@<TRIPOS>MOLECULE
guest-2_confgen4.mol2 : confsearch ligand conformer 1
          23          22           1
SMALL
USER_CHARGES
 
@<TRIPOS>ATOM
       1    N1      19.741304   18.660965   26.427818 N.4        1 MOL1        -0.5940
       2    H1      19.210494   17.784523   26.459048 H          1 MOL1         0.3649
       3    H2      19.480193   19.197231   27.262284 H          1 MOL1         0.3649
       4    H3      20.731952   18.417305   26.528471 H          1 MOL1         0.3649
       5    C1      19.476406   19.437622   25.154033 C.3        1 MOL1         0.0207
       6    H4      20.047889   20.368569   25.201356 H          1 MOL1         0.0950
       7    H5      18.412527   19.688452   25.126770 H          1 MOL1         0.0950
       8    C2      19.857967   18.659624   23.882142 C.3        1 MOL1        -0.1415
       9    H6      20.923310   18.395811   23.921469 H          1 MOL1         0.0976
      10    H7      19.293790   17.718039   23.847211 H          1 MOL1         0.0976
      11    C3      19.572873   19.484664   22.607695 C.3        1 MOL1        -0.1375
      12    H8      20.134940   20.428158   22.648949 H          1 MOL1         0.0976
      13    H9      18.507156   19.751056   22.574757 H          1 MOL1         0.0976
      14    C4      19.952577   18.712526   21.323705 C.3        1 MOL1        -0.1375
      15    H10     21.018186   18.446216   21.356420 H          1 MOL1         0.0976
      16    H11     19.390641   17.769114   21.282294 H          1 MOL1         0.0976
      17    C5      19.667237   19.537903   20.049305 C.3        1 MOL1        -0.1350
      18    H12     20.229143   20.481817   20.084824 H          1 MOL1         0.0976
      19    H13     18.601747   19.804761   20.010701 H          1 MOL1         0.0976
      20    C6      20.047635   18.763696   18.769302 C.3        1 MOL1        -0.2365
      21    H14     19.837974   19.365531   17.875500 H          1 MOL1         0.0987
      22    H15     19.476140   17.829862   18.688205 H          1 MOL1         0.0987
      23    H16     21.116247   18.512183   18.762920 H          1 MOL1         0.0987
@<TRIPOS>BOND
    1     1     2    1
    2     1     3    1
    3     1     4    1
    4     1     5    1
    5     5     6    1
    6     5     7    1
    7     5     8    1
    8     8     9    1
    9     8    10    1
   10     8    11    1
   11    11    12    1
   12    11    13    1
   13    11    14    1
   14    14    15    1
   15    14    16    1
   16    14    17    1
   17    17    18    1
   18    17    19    1
   19    17    20    1
   20    20    21    1
   21    20    22    1
   22    20    23    1
@<TRIPOS>SUBSTRUCTURE
       1 MOL1            1 RESIDUE      1      MOL     
@<SCITEGIC>MOL_PROPERTY
VConf Rank
SciTegic.value.IntegerValue
1

@<SCITEGIC>MOL_PROPERTY
Conf_Id
SciTegic.value.IntegerValue
40

@<SCITEGIC>MOL_PROPERTY
Delta U+W
SciTegic.value.DoubleValue
0.000

@<SCITEGIC>MOL_PROPERTY
U+W
SciTegic.value.DoubleValue
-8.382

@<SCITEGIC>MOL_PROPERTY
Grad RMS
SciTegic.value.DoubleValue
0.000000

@<SCITEGIC>MOL_PROPERTY
U
SciTegic.value.DoubleValue
46.604

@<SCITEGIC>MOL_PROPERTY
W
SciTegic.value.DoubleValue
-54.986

@<SCITEGIC>MOL_PROPERTY
W(PB)
SciTegic.value.DoubleValue
-57.162

@<SCITEGIC>MOL_PROPERTY
W(SA)
SciTegic.value.DoubleValue
2.176

@<SCITEGIC>MOL_PROPERTY
Valence
SciTegic.value.DoubleValue
1.727

@<SCITEGIC>MOL_PROPERTY
Coulomb
SciTegic.value.DoubleValue
44.434

@<SCITEGIC>MOL_PROPERTY
VdW
SciTegic.value.DoubleValue
0.443

@<SCITEGIC>MOL_PROPERTY
VdW6
SciTegic.value.DoubleValue
-4.623

@<SCITEGIC>MOL_PROPERTY
VdW12
SciTegic.value.DoubleValue
5.066

@<SCITEGIC>MOL_PROPERTY
Bond
SciTegic.value.DoubleValue
0.112

@<SCITEGIC>MOL_PROPERTY
Angle
SciTegic.value.DoubleValue
0.386

@<SCITEGIC>MOL_PROPERTY
Pdih
SciTegic.value.DoubleValue
1.228

@<SCITEGIC>MOL_PROPERTY
Idih
SciTegic.value.DoubleValue
0.000

@<SCITEGIC>MOL_PROPERTY
Tether
SciTegic.value.DoubleValue
0.000

@<TRIPOS>MOLECULE
guest-2_confgen4.mol2 : confsearch ligand conformer 2
          23          22           1
SMALL
USER_CHARGES
 
@<TRIPOS>ATOM
       1    N1      19.377940   18.777259   26.156253 N.4        1 MOL1        -0.5940
       2    H1      20.248183   19.042648   26.628572 H          1 MOL1         0.3649
       3    H2      19.308104   17.755684   26.204636 H          1 MOL1         0.3649
       4    H3      18.607212   19.155626   26.717365 H          1 MOL1         0.3649
       5    C1      19.333966   19.280053   24.727601 C.3        1 MOL1         0.0207
       6    H4      19.383579   20.371993   24.752445 H          1 MOL1         0.0950
       7    H5      18.371339   18.988807   24.299763 H          1 MOL1         0.0950
       8    C2      20.480394   18.729055   23.858559 C.3        1 MOL1        -0.1415
       9    H6      21.439598   18.988523   24.326053 H          1 MOL1         0.0976
      10    H7      20.430339   17.632339   23.832254 H          1 MOL1         0.0976
      11    C3      20.460300   19.285336   22.415032 C.3        1 MOL1        -0.1375
      12    H8      21.365507   18.937610   21.900591 H          1 MOL1         0.0976
      13    H9      20.520252   20.382114   22.444249 H          1 MOL1         0.0976
      14    C4      19.207127   18.850577   21.613086 C.3        1 MOL1        -0.1375
      15    H10     19.159084   17.753880   21.566530 H          1 MOL1         0.0976
      16    H11     18.301529   19.177272   22.140978 H          1 MOL1         0.0976
      17    C5      19.162517   19.430057   20.178255 C.3        1 MOL1        -0.1350
      18    H12     19.199701   20.527666   20.219124 H          1 MOL1         0.0976
      19    H13     18.195053   19.172534   19.724856 H          1 MOL1         0.0976
      20    C6      20.293758   18.904663   19.265213 C.3        1 MOL1        -0.2365
      21    H14     21.279355   19.243768   19.607066 H          1 MOL1         0.0987
      22    H15     20.158570   19.268816   18.238537 H          1 MOL1         0.0987
      23    H16     20.298590   17.807394   19.233778 H          1 MOL1         0.0987
@<TRIPOS>BOND
    1     1     2    1
    2     1     3    1
    3     1     4    1
    4     1     5    1
    5     5     6    1
    6     5     7    1
    7     5     8    1
    8     8     9    1
    9     8    10    1
   10     8    11    1
   11    11    12    1
   12    11    13    1
   13    11    14    1
   14    14    15    1
   15    14    16    1
   16    14    17    1
   17    17    18    1
   18    17    19    1
   19    17    20    1
   20    20    21    1
   21    20    22    1
   22    20    23    1
@<TRIPOS>SUBSTRUCTURE
       1 MOL1            1 RESIDUE      1      MOL     
@<SCITEGIC>MOL_PROPERTY
VConf Rank
SciTegic.value.IntegerValue
2

@<SCITEGIC>MOL_PROPERTY
Conf_Id
SciTegic.value.IntegerValue
65

@<SCITEGIC>MOL_PROPERTY
Delta U+W
SciTegic.value.DoubleValue
1.004

@<SCITEGIC>MOL_PROPERTY
U+W
SciTegic.value.DoubleValue
-7.378

@<SCITEGIC>MOL_PROPERTY
Grad RMS
SciTegic.value.DoubleValue
0.000000

@<SCITEGIC>MOL_PROPERTY
U
SciTegic.value.DoubleValue
48.047

@<SCITEGIC>MOL_PROPERTY
W
SciTegic.value.DoubleValue
-55.425

@<SCITEGIC>MOL_PROPERTY
W(PB)
SciTegic.value.DoubleValue
-57.542

@<SCITEGIC>MOL_PROPERTY
W(SA)
SciTegic.value.DoubleValue
2.116

@<SCITEGIC>MOL_PROPERTY
Valence
SciTegic.value.DoubleValue
2.583

@<SCITEGIC>MOL_PROPERTY
Coulomb
SciTegic.value.DoubleValue
44.791

@<SCITEGIC>MOL_PROPERTY
VdW
SciTegic.value.DoubleValue
0.673

@<SCITEGIC>MOL_PROPERTY
VdW6
SciTegic.value.DoubleValue
-5.788

@<SCITEGIC>MOL_PROPERTY
VdW12
SciTegic.value.DoubleValue
6.462

@<SCITEGIC>MOL_PROPERTY
Bond
SciTegic.value.DoubleValue
0.177

@<SCITEGIC>MOL_PROPERTY
Angle
SciTegic.value.DoubleValue
0.787

@<SCITEGIC>MOL_PROPERTY
Pdih
SciTegic.value.DoubleValue
1.619

@<SCITEGIC>MOL_PROPERTY
Idih
SciTegic.value.DoubleValue
0.000

@<SCITEGIC>MOL_PROPERTY
Tether
SciTegic.value.DoubleValue
0.000

@<TRIPOS>MOLECULE
guest-2_confgen4.mol2 : confsearch ligand conformer 3
          23          22           1
SMALL
USER_CHARGES
 
@<TRIPOS>ATOM
       1    N1      19.935300   19.009075   26.181606 N.4        1 MOL1        -0.5940
       2    H1      19.099846   18.565110   26.576259 H          1 MOL1         0.3649
       3    H2      20.165106   19.803544   26.788267 H          1 MOL1         0.3649
       4    H3      20.703709   18.336104   26.268160 H          1 MOL1         0.3649
       5    C1      19.720998   19.441016   24.745195 C.3        1 MOL1         0.0207
       6    H4      20.636148   19.930758   24.402890 H          1 MOL1         0.0950
       7    H5      18.911255   20.175538   24.730884 H          1 MOL1         0.0950
       8    C2      19.373591   18.268697   23.808120 C.3        1 MOL1        -0.1415
       9    H6      20.187132   17.531157   23.821185 H          1 MOL1         0.0976
      10    H7      18.480251   17.757689   24.191215 H          1 MOL1         0.0976
      11    C3      19.105867   18.721940   22.353298 C.3        1 MOL1        -0.1375
      12    H8      18.285001   19.452303   22.342344 H          1 MOL1         0.0976
      13    H9      18.756573   17.852342   21.781672 H          1 MOL1         0.0976
      14    C4      20.355559   19.328350   21.665468 C.3        1 MOL1        -0.1375
      15    H10     20.718957   20.182966   22.251197 H          1 MOL1         0.0976
      16    H11     21.169360   18.590179   21.658238 H          1 MOL1         0.0976
      17    C5      20.087961   19.815023   20.220456 C.3        1 MOL1        -0.1350
      18    H12     20.984579   20.332924   19.852045 H          1 MOL1         0.0976
      19    H13     19.281592   20.561723   20.222832 H          1 MOL1         0.0976
      20    C6      19.736724   18.672898   19.239857 C.3        1 MOL1        -0.2365
      21    H14     18.778245   18.203358   19.493049 H          1 MOL1         0.0987
      22    H15     20.512593   17.896352   19.243665 H          1 MOL1         0.0987
      23    H16     19.653544   19.058604   18.215525 H          1 MOL1         0.0987
@<TRIPOS>BOND
    1     1     2    1
    2     1     3    1
    3     1     4    1
    4     1     5    1
    5     5     6    1
    6     5     7    1
    7     5     8    1
    8     8     9    1
    9     8    10    1
   10     8    11    1
   11    11    12    1
   12    11    13    1
   13    11    14    1
   14    14    15    1
   15    14    16    1
   16    14    17    1
   17    17    18    1
   18    17    19    1
   19    17    20    1
   20    20    21    1
   21    20    22    1
   22    20    23    1
@<TRIPOS>SUBSTRUCTURE
       1 MOL1            1 RESIDUE      1      MOL     
@<SCITEGIC>MOL_PROPERTY
VConf Rank
SciTegic.value.IntegerValue
3

@<SCITEGIC>MOL_PROPERTY
Conf_Id
SciTegic.value.IntegerValue
92

@<SCITEGIC>MOL_PROPERTY
Delta U+W
SciTegic.value.DoubleValue
0.973

@<SCITEGIC>MOL_PROPERTY
U+W
SciTegic.value.DoubleValue
-7.409

@<SCITEGIC>MOL_PROPERTY
Grad RMS
SciTegic.value.DoubleValue
0.000000

@<SCITEGIC>MOL_PROPERTY
U
SciTegic.value.DoubleValue
48.047

@<SCITEGIC>MOL_PROPERTY
W
SciTegic.value.DoubleValue
-55.456

@<SCITEGIC>MOL_PROPERTY
W(PB)
SciTegic.value.DoubleValue
-57.595

@<SCITEGIC>MOL_PROPERTY
W(SA)
SciTegic.value.DoubleValue
2.138

@<SCITEGIC>MOL_PROPERTY
Valence
SciTegic.value.DoubleValue
2.583

@<SCITEGIC>MOL_PROPERTY
Coulomb
SciTegic.value.DoubleValue
44.791

@<SCITEGIC>MOL_PROPERTY
VdW
SciTegic.value.DoubleValue
0.674

@<SCITEGIC>MOL_PROPERTY
VdW6
SciTegic.value.DoubleValue
-5.789

@<SCITEGIC>MOL_PROPERTY
VdW12
SciTegic.value.DoubleValue
6.462

@<SCITEGIC>MOL_PROPERTY
Bond
SciTegic.value.DoubleValue
0.177

@<SCITEGIC>MOL_PROPERTY
Angle
SciTegic.value.DoubleValue
0.787

@<SCITEGIC>MOL_PROPERTY
Pdih
SciTegic.value.DoubleValue
1.619

@<SCITEGIC>MOL_PROPERTY
Idih
SciTegic.value.DoubleValue
0.000

@<SCITEGIC>MOL_PROPERTY
Tether
SciTegic.value.DoubleValue
0.000

@<TRIPOS>MOLECULE
guest-2_confgen4.mol2 : confsearch ligand conformer 4
          23          22           1
SMALL
USER_CHARGES
 
@<TRIPOS>ATOM
       1    N1      19.509560   18.259998   26.054926 N.4        1 MOL1        -0.5940
       2    H1      18.789919   17.626486   26.419359 H          1 MOL1         0.3649
       3    H2      19.545865   19.065073   26.688478 H          1 MOL1         0.3649
       4    H3      20.406607   17.770777   26.137451 H          1 MOL1         0.3649
       5    C1      19.221970   18.676823   24.626877 C.3        1 MOL1         0.0207
       6    H4      18.243274   19.163871   24.607959 H          1 MOL1         0.0950
       7    H5      19.167464   17.770837   24.017851 H          1 MOL1         0.0950
       8    C2      20.286119   19.629818   24.050469 C.3        1 MOL1        -0.1415
       9    H6      20.362291   20.514902   24.696046 H          1 MOL1         0.0976
      10    H7      21.269238   19.140860   24.070276 H          1 MOL1         0.0976
      11    C3      19.961647   20.086778   22.608616 C.3        1 MOL1        -0.1375
      12    H8      20.707890   20.831543   22.298943 H          1 MOL1         0.0976
      13    H9      18.989106   20.598310   22.596553 H          1 MOL1         0.0976
      14    C4      19.951972   18.922170   21.589275 C.3        1 MOL1        -0.1375
      15    H10     20.913956   18.392516   21.627632 H          1 MOL1         0.0976
      16    H11     19.176265   18.193149   21.859209 H          1 MOL1         0.0976
      17    C5      19.697771   19.421901   20.149684 C.3        1 MOL1        -0.1350
      18    H12     20.473719   20.146529   19.865466 H          1 MOL1         0.0976
      19    H13     18.736689   19.953283   20.105725 H          1 MOL1         0.0976
      20    C6      19.686959   18.259513   19.134154 C.3        1 MOL1        -0.2365
      21    H14     20.648156   17.729118   19.130984 H          1 MOL1         0.0987
      22    H15     19.505620   18.633981   18.118312 H          1 MOL1         0.0987
      23    H16     18.897339   17.534794   19.371853 H          1 MOL1         0.0987
@<TRIPOS>BOND
    1     1     2    1
    2     1     3    1
    3     1     4    1
    4     1     5    1
    5     5     6    1
    6     5     7    1
    7     5     8    1
    8     8     9    1
    9     8    10    1
   10     8    11    1
   11    11    12    1
   12    11    13    1
   13    11    14    1
   14    14    15    1
   15    14    16    1
   16    14    17    1
   17    17    18    1
   18    17    19    1
   19    17    20    1
   20    20    21    1
   21    20    22    1
   22    20    23    1
@<TRIPOS>SUBSTRUCTURE
       1 MOL1            1 RESIDUE      1      MOL     
@<SCITEGIC>MOL_PROPERTY
VConf Rank
SciTegic.value.IntegerValue
4

@<SCITEGIC>MOL_PROPERTY
Conf_Id
SciTegic.value.IntegerValue
42

@<SCITEGIC>MOL_PROPERTY
Delta U+W
SciTegic.value.DoubleValue
0.365

@<SCITEGIC>MOL_PROPERTY
U+W
SciTegic.value.DoubleValue
-8.017

@<SCITEGIC>MOL_PROPERTY
Grad RMS
SciTegic.value.DoubleValue
0.000000

@<SCITEGIC>MOL_PROPERTY
U
SciTegic.value.DoubleValue
47.375

@<SCITEGIC>MOL_PROPERTY
W
SciTegic.value.DoubleValue
-55.392

@<SCITEGIC>MOL_PROPERTY
W(PB)
SciTegic.value.DoubleValue
-57.543

@<SCITEGIC>MOL_PROPERTY
W(SA)
SciTegic.value.DoubleValue
2.152

@<SCITEGIC>MOL_PROPERTY
Valence
SciTegic.value.DoubleValue
2.032

@<SCITEGIC>MOL_PROPERTY
Coulomb
SciTegic.value.DoubleValue
44.843

@<SCITEGIC>MOL_PROPERTY
VdW
SciTegic.value.DoubleValue
0.499

@<SCITEGIC>MOL_PROPERTY
VdW6
SciTegic.value.DoubleValue
-5.218

@<SCITEGIC>MOL_PROPERTY
VdW12
SciTegic.value.DoubleValue
5.717

@<SCITEGIC>MOL_PROPERTY
Bond
SciTegic.value.DoubleValue
0.135

@<SCITEGIC>MOL_PROPERTY
Angle
SciTegic.value.DoubleValue
0.514

@<SCITEGIC>MOL_PROPERTY
Pdih
SciTegic.value.DoubleValue
1.383

@<SCITEGIC>MOL_PROPERTY
Idih
SciTegic.value.DoubleValue
0.000

@<SCITEGIC>MOL_PROPERTY
Tether
SciTegic.value.DoubleValue
0.000

@<TRIPOS>MOLECULE
guest-2_confgen4.mol2 : confsearch ligand conformer 5
          23          22           1
SMALL
USER_CHARGES
 
@<TRIPOS>ATOM
       1    N1      20.018510   18.746368   25.775803 N.4        1 MOL1        -0.5940
       2    H1      20.517560   17.852480   25.725341 H          1 MOL1         0.3649
       3    H2      19.682329   18.846871   26.739561 H          1 MOL1         0.3649
       4    H3      20.708487   19.487579   25.621079 H          1 MOL1         0.3649
       5    C1      18.882473   18.815237   24.773675 C.3        1 MOL1         0.0207
       6    H4      18.379315   19.778280   24.895343 H          1 MOL1         0.0950
       7    H5      18.170571   18.024990   25.027202 H          1 MOL1         0.0950
       8    C2      19.331519   18.645530   23.309166 C.3        1 MOL1        -0.1415
       9    H6      19.860743   17.690201   23.195500 H          1 MOL1         0.0976
      10    H7      18.430077   18.588435   22.686863 H          1 MOL1         0.0976
      11    C3      20.223164   19.811743   22.817513 C.3        1 MOL1        -0.1375
      12    H8      21.072472   19.935911   23.502048 H          1 MOL1         0.0976
      13    H9      19.653335   20.750092   22.864444 H          1 MOL1         0.0976
      14    C4      20.788884   19.624401   21.385758 C.3        1 MOL1        -0.1375
      15    H10     21.434630   20.487101   21.170709 H          1 MOL1         0.0976
      16    H11     21.448875   18.746605   21.352419 H          1 MOL1         0.0976
      17    C5      19.718463   19.533493   20.267556 C.3        1 MOL1        -0.1350
      18    H12     20.107850   20.032198   19.368866 H          1 MOL1         0.0976
      19    H13     18.816575   20.091631   20.555098 H          1 MOL1         0.0976
      20    C6      19.352988   18.080228   19.884530 C.3        1 MOL1        -0.2365
      21    H14     20.235859   17.536771   19.523626 H          1 MOL1         0.0987
      22    H15     18.605712   18.071492   19.080528 H          1 MOL1         0.0987
      23    H16     18.936865   17.522187   20.730433 H          1 MOL1         0.0987
@<TRIPOS>BOND
    1     1     2    1
    2     1     3    1
    3     1     4    1
    4     1     5    1
    5     5     6    1
    6     5     7    1
    7     5     8    1
    8     8     9    1
    9     8    10    1
   10     8    11    1
   11    11    12    1
   12    11    13    1
   13    11    14    1
   14    14    15    1
   15    14    16    1
   16    14    17    1
   17    17    18    1
   18    17    19    1
   19    17    20    1
   20    20    21    1
   21    20    22    1
   22    20    23    1
@<TRIPOS>SUBSTRUCTURE
       1 MOL1            1 RESIDUE      1      MOL     
@<SCITEGIC>MOL_PROPERTY
VConf Rank
SciTegic.value.IntegerValue
5

@<SCITEGIC>MOL_PROPERTY
Conf_Id
SciTegic.value.IntegerValue
3

@<SCITEGIC>MOL_PROPERTY
Delta U+W
SciTegic.value.DoubleValue
3.283

@<SCITEGIC>MOL_PROPERTY
U+W
SciTegic.value.DoubleValue
-5.099

@<SCITEGIC>MOL_PROPERTY
Grad RMS
SciTegic.value.DoubleValue
0.000000

@<SCITEGIC>MOL_PROPERTY
U
SciTegic.value.DoubleValue
50.701

@<SCITEGIC>MOL_PROPERTY
W
SciTegic.value.DoubleValue
-55.800

@<SCITEGIC>MOL_PROPERTY
W(PB)
SciTegic.value.DoubleValue
-57.867

@<SCITEGIC>MOL_PROPERTY
W(SA)
SciTegic.value.DoubleValue
2.067

@<SCITEGIC>MOL_PROPERTY
Valence
SciTegic.value.DoubleValue
4.880

@<SCITEGIC>MOL_PROPERTY
Coulomb
SciTegic.value.DoubleValue
45.095

@<SCITEGIC>MOL_PROPERTY
VdW
SciTegic.value.DoubleValue
0.726

@<SCITEGIC>MOL_PROPERTY
VdW6
SciTegic.value.DoubleValue
-6.620

@<SCITEGIC>MOL_PROPERTY
VdW12
SciTegic.value.DoubleValue
7.346

@<SCITEGIC>MOL_PROPERTY
Bond
SciTegic.value.DoubleValue
0.222

@<SCITEGIC>MOL_PROPERTY
Angle
SciTegic.value.DoubleValue
1.260

@<SCITEGIC>MOL_PROPERTY
Pdih
SciTegic.value.DoubleValue
3.398

@<SCITEGIC>MOL_PROPERTY
Idih
SciTegic.value.DoubleValue
0.000

@<SCITEGIC>MOL_PROPERTY
Tether
SciTegic.value.DoubleValue
0.000

@<TRIPOS>MOLECULE
guest-2_confgen4.mol2 : confsearch ligand conformer 6
          23          22           1
SMALL
USER_CHARGES
 
@<TRIPOS>ATOM
       1    N1      20.230093   19.840952   25.350228 N.4        1 MOL1        -0.5940
       2    H1      20.955932   19.291359   25.821035 H          1 MOL1         0.3649
       3    H2      19.904702   20.544584   26.021688 H          1 MOL1         0.3649
       4    H3      20.682153   20.345102   24.581415 H          1 MOL1         0.3649
       5    C1      19.094557   18.967108   24.855005 C.3        1 MOL1         0.0207
       6    H4      18.344751   19.614583   24.393424 H          1 MOL1         0.0950
       7    H5      18.638331   18.489244   25.726229 H          1 MOL1         0.0950
       8    C2      19.538551   17.882920   23.851670 C.3        1 MOL1        -0.1415
       9    H6      20.252208   17.209767   24.344987 H          1 MOL1         0.0976
      10    H7      18.667911   17.266690   23.590699 H          1 MOL1         0.0976
      11    C3      20.176013   18.441208   22.554132 C.3        1 MOL1        -0.1375
      12    H8      20.489840   17.589930   21.936303 H          1 MOL1         0.0976
      13    H9      21.091588   18.996931   22.796291 H          1 MOL1         0.0976
      14    C4      19.213626   19.344281   21.741298 C.3        1 MOL1        -0.1375
      15    H10     18.310123   18.778142   21.476087 H          1 MOL1         0.0976
      16    H11     18.880084   20.182940   22.366402 H          1 MOL1         0.0976
      17    C5      19.852718   19.927007   20.457382 C.3        1 MOL1        -0.1350
      18    H12     20.751251   20.503738   20.717658 H          1 MOL1         0.0976
      19    H13     19.149187   20.641561   20.007582 H          1 MOL1         0.0976
      20    C6      20.210443   18.853524   19.404285 C.3        1 MOL1        -0.2365
      21    H14     19.335241   18.241041   19.151515 H          1 MOL1         0.0987
      22    H15     21.005794   18.187307   19.760400 H          1 MOL1         0.0987
      23    H16     20.566861   19.326448   18.480032 H          1 MOL1         0.0987
@<TRIPOS>BOND
    1     1     2    1
    2     1     3    1
    3     1     4    1
    4     1     5    1
    5     5     6    1
    6     5     7    1
    7     5     8    1
    8     8     9    1
    9     8    10    1
   10     8    11    1
   11    11    12    1
   12    11    13    1
   13    11    14    1
   14    14    15    1
   15    14    16    1
   16    14    17    1
   17    17    18    1
   18    17    19    1
   19    17    20    1
   20    20    21    1
   21    20    22    1
   22    20    23    1
@<TRIPOS>SUBSTRUCTURE
       1 MOL1            1 RESIDUE      1      MOL     
@<SCITEGIC>MOL_PROPERTY
VConf Rank
SciTegic.value.IntegerValue
6

@<SCITEGIC>MOL_PROPERTY
Conf_Id
SciTegic.value.IntegerValue
83

@<SCITEGIC>MOL_PROPERTY
Delta U+W
SciTegic.value.DoubleValue
1.229

@<SCITEGIC>MOL_PROPERTY
U+W
SciTegic.value.DoubleValue
-7.154

@<SCITEGIC>MOL_PROPERTY
Grad RMS
SciTegic.value.DoubleValue
0.000000

@<SCITEGIC>MOL_PROPERTY
U
SciTegic.value.DoubleValue
48.727

@<SCITEGIC>MOL_PROPERTY
W
SciTegic.value.DoubleValue
-55.880

@<SCITEGIC>MOL_PROPERTY
W(PB)
SciTegic.value.DoubleValue
-57.960

@<SCITEGIC>MOL_PROPERTY
W(SA)
SciTegic.value.DoubleValue
2.080

@<SCITEGIC>MOL_PROPERTY
Valence
SciTegic.value.DoubleValue
2.671

@<SCITEGIC>MOL_PROPERTY
Coulomb
SciTegic.value.DoubleValue
45.371

@<SCITEGIC>MOL_PROPERTY
VdW
SciTegic.value.DoubleValue
0.684

@<SCITEGIC>MOL_PROPERTY
VdW6
SciTegic.value.DoubleValue
-6.511

@<SCITEGIC>MOL_PROPERTY
VdW12
SciTegic.value.DoubleValue
7.195

@<SCITEGIC>MOL_PROPERTY
Bond
SciTegic.value.DoubleValue
0.203

@<SCITEGIC>MOL_PROPERTY
Angle
SciTegic.value.DoubleValue
0.915

@<SCITEGIC>MOL_PROPERTY
Pdih
SciTegic.value.DoubleValue
1.554

@<SCITEGIC>MOL_PROPERTY
Idih
SciTegic.value.DoubleValue
0.000

@<SCITEGIC>MOL_PROPERTY
Tether
SciTegic.value.DoubleValue
0.000

@<TRIPOS>MOLECULE
guest-2_confgen4.mol2 : confsearch ligand conformer 7
          23          22           1
SMALL
USER_CHARGES
 
@<TRIPOS>ATOM
       1    N1      18.646360   19.181928   25.277844 N.4        1 MOL1        -0.5940
       2    H1      18.489634   18.265070   25.708380 H          1 MOL1         0.3649
       3    H2      18.031846   19.242194   24.460323 H          1 MOL1         0.3649
       4    H3      18.324226   19.886935   25.949432 H          1 MOL1         0.3649
       5    C1      20.100535   19.385782   24.900866 C.3        1 MOL1         0.0207
       6    H4      20.691408   19.343694   25.819901 H          1 MOL1         0.0950
       7    H5      20.204036   20.388354   24.478223 H          1 MOL1         0.0950
       8    C2      20.634741   18.339116   23.901670 C.3        1 MOL1        -0.1415
       9    H6      21.702345   18.529621   23.729070 H          1 MOL1         0.0976
      10    H7      20.572491   17.343027   24.359638 H          1 MOL1         0.0976
      11    C3      19.892711   18.323180   22.541234 C.3        1 MOL1        -0.1375
      12    H8      18.837919   18.058681   22.693559 H          1 MOL1         0.0976
      13    H9      20.323445   17.520579   21.928719 H          1 MOL1         0.0976
      14    C4      19.991294   19.667925   21.776792 C.3        1 MOL1        -0.1375
      15    H10     19.582832   20.475368   22.398521 H          1 MOL1         0.0976
      16    H11     21.046778   19.917239   21.600819 H          1 MOL1         0.0976
      17    C5      19.229630   19.667637   20.429086 C.3        1 MOL1        -0.1350
      18    H12     19.251857   20.684388   20.012450 H          1 MOL1         0.0976
      19    H13     18.170542   19.429345   20.600184 H          1 MOL1         0.0976
      20    C6      19.820727   18.691432   19.386507 C.3        1 MOL1        -0.2365
      21    H14     20.888157   18.887846   19.222122 H          1 MOL1         0.0987
      22    H15     19.307189   18.802217   18.422691 H          1 MOL1         0.0987
      23    H16     19.707234   17.646756   19.701174 H          1 MOL1         0.0987
@<TRIPOS>BOND
    1     1     2    1
    2     1     3    1
    3     1     4    1
    4     1     5    1
    5     5     6    1
    6     5     7    1
    7     5     8    1
    8     8     9    1
    9     8    10    1
   10     8    11    1
   11    11    12    1
   12    11    13    1
   13    11    14    1
   14    14    15    1
   15    14    16    1
   16    14    17    1
   17    17    18    1
   18    17    19    1
   19    17    20    1
   20    20    21    1
   21    20    22    1
   22    20    23    1
@<TRIPOS>SUBSTRUCTURE
       1 MOL1            1 RESIDUE      1      MOL     
@<SCITEGIC>MOL_PROPERTY
VConf Rank
SciTegic.value.IntegerValue
7

@<SCITEGIC>MOL_PROPERTY
Conf_Id
SciTegic.value.IntegerValue
50

@<SCITEGIC>MOL_PROPERTY
Delta U+W
SciTegic.value.DoubleValue
1.252

@<SCITEGIC>MOL_PROPERTY
U+W
SciTegic.value.DoubleValue
-7.130

@<SCITEGIC>MOL_PROPERTY
Grad RMS
SciTegic.value.DoubleValue
0.000000

@<SCITEGIC>MOL_PROPERTY
U
SciTegic.value.DoubleValue
48.727

@<SCITEGIC>MOL_PROPERTY
W
SciTegic.value.DoubleValue
-55.857

@<SCITEGIC>MOL_PROPERTY
W(PB)
SciTegic.value.DoubleValue
-57.937

@<SCITEGIC>MOL_PROPERTY
W(SA)
SciTegic.value.DoubleValue
2.080

@<SCITEGIC>MOL_PROPERTY
Valence
SciTegic.value.DoubleValue
2.671

@<SCITEGIC>MOL_PROPERTY
Coulomb
SciTegic.value.DoubleValue
45.371

@<SCITEGIC>MOL_PROPERTY
VdW
SciTegic.value.DoubleValue
0.684

@<SCITEGIC>MOL_PROPERTY
VdW6
SciTegic.value.DoubleValue
-6.511

@<SCITEGIC>MOL_PROPERTY
VdW12
SciTegic.value.DoubleValue
7.196

@<SCITEGIC>MOL_PROPERTY
Bond
SciTegic.value.DoubleValue
0.203

@<SCITEGIC>MOL_PROPERTY
Angle
SciTegic.value.DoubleValue
0.915

@<SCITEGIC>MOL_PROPERTY
Pdih
SciTegic.value.DoubleValue
1.554

@<SCITEGIC>MOL_PROPERTY
Idih
SciTegic.value.DoubleValue
0.000

@<SCITEGIC>MOL_PROPERTY
Tether
SciTegic.value.DoubleValue
0.000

@<TRIPOS>MOLECULE
guest-2_confgen4.mol2 : confsearch ligand conformer 8
          23          22           1
SMALL
USER_CHARGES
 
@<TRIPOS>ATOM
       1    N1      19.417617   19.172749   25.788063 N.4        1 MOL1        -0.5940
       2    H1      18.605334   19.695684   25.447082 H          1 MOL1         0.3649
       3    H2      19.706674   19.609844   26.669722 H          1 MOL1         0.3649
       4    H3      19.095542   18.226561   26.015268 H          1 MOL1         0.3649
       5    C1      20.543401   19.156489   24.772392 C.3        1 MOL1         0.0207
       6    H4      21.384912   18.620021   25.219197 H          1 MOL1         0.0950
       7    H5      20.854372   20.189369   24.593877 H          1 MOL1         0.0950
       8    C2      20.165640   18.490519   23.435029 C.3        1 MOL1        -0.1415
       9    H6      21.067608   18.429507   22.815840 H          1 MOL1         0.0976
      10    H7      19.849223   17.455441   23.620124 H          1 MOL1         0.0976
      11    C3      19.048048   19.255917   22.681484 C.3        1 MOL1        -0.1375
      12    H8      19.315261   20.316442   22.575472 H          1 MOL1         0.0976
      13    H9      18.135711   19.231239   23.292237 H          1 MOL1         0.0976
      14    C4      18.716351   18.650117   21.292567 C.3        1 MOL1        -0.1375
      15    H10     18.911675   17.568895   21.291152 H          1 MOL1         0.0976
      16    H11     17.635845   18.755293   21.122459 H          1 MOL1         0.0976
      17    C5      19.442865   19.324836   20.100871 C.3        1 MOL1        -0.1350
      18    H12     19.160414   20.385699   20.050239 H          1 MOL1         0.0976
      19    H13     19.080461   18.869290   19.168694 H          1 MOL1         0.0976
      20    C6      20.982077   19.206374   20.143593 C.3        1 MOL1        -0.2365
      21    H14     21.296177   18.160357   20.253248 H          1 MOL1         0.0987
      22    H15     21.403824   19.787689   20.972735 H          1 MOL1         0.0987
      23    H16     21.422205   19.593317   19.215448 H          1 MOL1         0.0987
@<TRIPOS>BOND
    1     1     2    1
    2     1     3    1
    3     1     4    1
    4     1     5    1
    5     5     6    1
    6     5     7    1
    7     5     8    1
    8     8     9    1
    9     8    10    1
   10     8    11    1
   11    11    12    1
   12    11    13    1
   13    11    14    1
   14    14    15    1
   15    14    16    1
   16    14    17    1
   17    17    18    1
   18    17    19    1
   19    17    20    1
   20    20    21    1
   21    20    22    1
   22    20    23    1
@<TRIPOS>SUBSTRUCTURE
       1 MOL1            1 RESIDUE      1      MOL     
@<SCITEGIC>MOL_PROPERTY
VConf Rank
SciTegic.value.IntegerValue
8

@<SCITEGIC>MOL_PROPERTY
Conf_Id
SciTegic.value.IntegerValue
55

@<SCITEGIC>MOL_PROPERTY
Delta U+W
SciTegic.value.DoubleValue
3.232

@<SCITEGIC>MOL_PROPERTY
U+W
SciTegic.value.DoubleValue
-5.150

@<SCITEGIC>MOL_PROPERTY
Grad RMS
SciTegic.value.DoubleValue
0.000000

@<SCITEGIC>MOL_PROPERTY
U
SciTegic.value.DoubleValue
50.625

@<SCITEGIC>MOL_PROPERTY
W
SciTegic.value.DoubleValue
-55.776

@<SCITEGIC>MOL_PROPERTY
W(PB)
SciTegic.value.DoubleValue
-57.839

@<SCITEGIC>MOL_PROPERTY
W(SA)
SciTegic.value.DoubleValue
2.064

@<SCITEGIC>MOL_PROPERTY
Valence
SciTegic.value.DoubleValue
4.837

@<SCITEGIC>MOL_PROPERTY
Coulomb
SciTegic.value.DoubleValue
45.097

@<SCITEGIC>MOL_PROPERTY
VdW
SciTegic.value.DoubleValue
0.692

@<SCITEGIC>MOL_PROPERTY
VdW6
SciTegic.value.DoubleValue
-6.655

@<SCITEGIC>MOL_PROPERTY
VdW12
SciTegic.value.DoubleValue
7.347

@<SCITEGIC>MOL_PROPERTY
Bond
SciTegic.value.DoubleValue
0.223

@<SCITEGIC>MOL_PROPERTY
Angle
SciTegic.value.DoubleValue
1.167

@<SCITEGIC>MOL_PROPERTY
Pdih
SciTegic.value.DoubleValue
3.447

@<SCITEGIC>MOL_PROPERTY
Idih
SciTegic.value.DoubleValue
0.000

@<SCITEGIC>MOL_PROPERTY
Tether
SciTegic.value.DoubleValue
0.000

@<TRIPOS>MOLECULE
guest-2_confgen4.mol2 : confsearch ligand conformer 9
          23          22           1
SMALL
USER_CHARGES
 
@<TRIPOS>ATOM
       1    N1      20.731288   18.792257   25.601666 N.4        1 MOL1        -0.5940
       2    H1      20.052980   18.741238   26.368558 H          1 MOL1         0.3649
       3    H2      21.536842   19.321992   25.951612 H          1 MOL1         0.3649
       4    H3      21.057270   17.836837   25.423716 H          1 MOL1         0.3649
       5    C1      20.135449   19.426956   24.361593 C.3        1 MOL1         0.0207
       6    H4      20.920139   19.480714   23.604816 H          1 MOL1         0.0950
       7    H5      19.837694   20.447605   24.616581 H          1 MOL1         0.0950
       8    C2      18.917379   18.655849   23.816172 C.3        1 MOL1        -0.1415
       9    H6      19.190131   17.614554   23.598980 H          1 MOL1         0.0976
      10    H7      18.156381   18.618391   24.607056 H          1 MOL1         0.0976
      11    C3      18.291775   19.315784   22.561353 C.3        1 MOL1        -0.1375
      12    H8      18.324946   20.410150   22.655521 H          1 MOL1         0.0976
      13    H9      17.225277   19.052583   22.532995 H          1 MOL1         0.0976
      14    C4      18.916786   18.877692   21.211201 C.3        1 MOL1        -0.1375
      15    H10     18.784166   17.794778   21.080813 H          1 MOL1         0.0976
      16    H11     18.347220   19.353553   20.400898 H          1 MOL1         0.0976
      17    C5      20.412337   19.234277   21.047872 C.3        1 MOL1        -0.1350
      18    H12     21.016023   18.645336   21.750457 H          1 MOL1         0.0976
      19    H13     20.572493   20.294459   21.288789 H          1 MOL1         0.0976
      20    C6      20.910985   18.954184   19.614143 C.3        1 MOL1        -0.2365
      21    H14     20.358918   19.554287   18.879082 H          1 MOL1         0.0987
      22    H15     20.787093   17.895021   19.353233 H          1 MOL1         0.0987
      23    H16     21.976063   19.202290   19.518845 H          1 MOL1         0.0987
@<TRIPOS>BOND
    1     1     2    1
    2     1     3    1
    3     1     4    1
    4     1     5    1
    5     5     6    1
    6     5     7    1
    7     5     8    1
    8     8     9    1
    9     8    10    1
   10     8    11    1
   11    11    12    1
   12    11    13    1
   13    11    14    1
   14    14    15    1
   15    14    16    1
   16    14    17    1
   17    17    18    1
   18    17    19    1
   19    17    20    1
   20    20    21    1
   21    20    22    1
   22    20    23    1
@<TRIPOS>SUBSTRUCTURE
       1 MOL1            1 RESIDUE      1      MOL     
@<SCITEGIC>MOL_PROPERTY
VConf Rank
SciTegic.value.IntegerValue
9

@<SCITEGIC>MOL_PROPERTY
Conf_Id
SciTegic.value.IntegerValue
93

@<SCITEGIC>MOL_PROPERTY
Delta U+W
SciTegic.value.DoubleValue
2.589

@<SCITEGIC>MOL_PROPERTY
U+W
SciTegic.value.DoubleValue
-5.793

@<SCITEGIC>MOL_PROPERTY
Grad RMS
SciTegic.value.DoubleValue
0.000000

@<SCITEGIC>MOL_PROPERTY
U
SciTegic.value.DoubleValue
50.122

@<SCITEGIC>MOL_PROPERTY
W
SciTegic.value.DoubleValue
-55.915

@<SCITEGIC>MOL_PROPERTY
W(PB)
SciTegic.value.DoubleValue
-58.031

@<SCITEGIC>MOL_PROPERTY
W(SA)
SciTegic.value.DoubleValue
2.115

@<SCITEGIC>MOL_PROPERTY
Valence
SciTegic.value.DoubleValue
4.132

@<SCITEGIC>MOL_PROPERTY
Coulomb
SciTegic.value.DoubleValue
45.536

@<SCITEGIC>MOL_PROPERTY
VdW
SciTegic.value.DoubleValue
0.454

@<SCITEGIC>MOL_PROPERTY
VdW6
SciTegic.value.DoubleValue
-6.262

@<SCITEGIC>MOL_PROPERTY
VdW12
SciTegic.value.DoubleValue
6.715

@<SCITEGIC>MOL_PROPERTY
Bond
SciTegic.value.DoubleValue
0.182

@<SCITEGIC>MOL_PROPERTY
Angle
SciTegic.value.DoubleValue
1.157

@<SCITEGIC>MOL_PROPERTY
Pdih
SciTegic.value.DoubleValue
2.794

@<SCITEGIC>MOL_PROPERTY
Idih
SciTegic.value.DoubleValue
0.000

@<SCITEGIC>MOL_PROPERTY
Tether
SciTegic.value.DoubleValue
0.000

@<TRIPOS>MOLECULE
guest-2_confgen4.mol2 : confsearch ligand conformer 10
          23          22           1
SMALL
USER_CHARGES
 
@<TRIPOS>ATOM
       1    N1      19.017394   18.079567   25.523559 N.4        1 MOL1        -0.5940
       2    H1      19.478447   17.180312   25.351725 H          1 MOL1         0.3649
       3    H2      18.049689   17.872031   25.792773 H          1 MOL1         0.3649
       4    H3      19.470402   18.498883   26.341964 H          1 MOL1         0.3649
       5    C1      19.082705   18.989197   24.313619 C.3        1 MOL1         0.0207
       6    H4      18.549585   19.911972   24.557892 H          1 MOL1         0.0950
       7    H5      18.552383   18.496150   23.496917 H          1 MOL1         0.0950
       8    C2      20.526058   19.324787   23.889476 C.3        1 MOL1        -0.1415
       9    H6      21.025556   19.811473   24.737803 H          1 MOL1         0.0976
      10    H7      21.088420   18.403920   23.685473 H          1 MOL1         0.0976
      11    C3      20.595550   20.273770   22.666339 C.3        1 MOL1        -0.1375
      12    H8      21.532874   20.843822   22.729299 H          1 MOL1         0.0976
      13    H9      19.790361   21.019519   22.722308 H          1 MOL1         0.0976
      14    C4      20.571514   19.565798   21.286603 C.3        1 MOL1        -0.1375
      15    H10     20.697409   20.330888   20.507997 H          1 MOL1         0.0976
      16    H11     21.441265   18.899732   21.201863 H          1 MOL1         0.0976
      17    C5      19.281741   18.764080   20.996367 C.3        1 MOL1        -0.1350
      18    H12     18.400174   19.391030   21.189887 H          1 MOL1         0.0976
      19    H13     19.220312   17.898493   21.668604 H          1 MOL1         0.0976
      20    C6      19.241037   18.259801   19.538037 C.3        1 MOL1        -0.2365
      21    H14     18.325023   17.684027   19.352480 H          1 MOL1         0.0987
      22    H15     20.097984   17.608568   19.321733 H          1 MOL1         0.0987
      23    H16     19.260813   19.097782   18.829086 H          1 MOL1         0.0987
@<TRIPOS>BOND
    1     1     2    1
    2     1     3    1
    3     1     4    1
    4     1     5    1
    5     5     6    1
    6     5     7    1
    7     5     8    1
    8     8     9    1
    9     8    10    1
   10     8    11    1
   11    11    12    1
   12    11    13    1
   13    11    14    1
   14    14    15    1
   15    14    16    1
   16    14    17    1
   17    17    18    1
   18    17    19    1
   19    17    20    1
   20    20    21    1
   21    20    22    1
   22    20    23    1
@<TRIPOS>SUBSTRUCTURE
       1 MOL1            1 RESIDUE      1      MOL     
@<SCITEGIC>MOL_PROPERTY
VConf Rank
SciTegic.value.IntegerValue
10

@<SCITEGIC>MOL_PROPERTY
Conf_Id
SciTegic.value.IntegerValue
70

@<SCITEGIC>MOL_PROPERTY
Delta U+W
SciTegic.value.DoubleValue
2.599

@<SCITEGIC>MOL_PROPERTY
U+W
SciTegic.value.DoubleValue
-5.783

@<SCITEGIC>MOL_PROPERTY
Grad RMS
SciTegic.value.DoubleValue
0.000000

@<SCITEGIC>MOL_PROPERTY
U
SciTegic.value.DoubleValue
50.122

@<SCITEGIC>MOL_PROPERTY
W
SciTegic.value.DoubleValue
-55.906

@<SCITEGIC>MOL_PROPERTY
W(PB)
SciTegic.value.DoubleValue
-58.010

@<SCITEGIC>MOL_PROPERTY
W(SA)
SciTegic.value.DoubleValue
2.105

@<SCITEGIC>MOL_PROPERTY
Valence
SciTegic.value.DoubleValue
4.132

@<SCITEGIC>MOL_PROPERTY
Coulomb
SciTegic.value.DoubleValue
45.536

@<SCITEGIC>MOL_PROPERTY
VdW
SciTegic.value.DoubleValue
0.454

@<SCITEGIC>MOL_PROPERTY
VdW6
SciTegic.value.DoubleValue
-6.262

@<SCITEGIC>MOL_PROPERTY
VdW12
SciTegic.value.DoubleValue
6.715

@<SCITEGIC>MOL_PROPERTY
Bond
SciTegic.value.DoubleValue
0.182

@<SCITEGIC>MOL_PROPERTY
Angle
SciTegic.value.DoubleValue
1.157

@<SCITEGIC>MOL_PROPERTY
Pdih
SciTegic.value.DoubleValue
2.794

@<SCITEGIC>MOL_PROPERTY
Idih
SciTegic.value.DoubleValue
0.000

@<SCITEGIC>MOL_PROPERTY
Tether
SciTegic.value.DoubleValue
0.000

@<TRIPOS>MOLECULE
guest-2_confgen4.mol2 : confsearch ligand conformer 11
          23          22           1
SMALL
USER_CHARGES
 
@<TRIPOS>ATOM
       1    N1      20.073652   18.158505   25.294120 N.4        1 MOL1        -0.5940
       2    H1      19.445523   18.443908   26.052082 H          1 MOL1         0.3649
       3    H2      20.888907   17.716084   25.731598 H          1 MOL1         0.3649
       4    H3      19.589483   17.433275   24.756451 H          1 MOL1         0.3649
       5    C1      20.470222   19.331922   24.420015 C.3        1 MOL1         0.0207
       6    H4      21.162815   18.968034   23.656572 H          1 MOL1         0.0950
       7    H5      21.004148   20.049927   25.048415 H          1 MOL1         0.0950
       8    C2      19.273420   20.032124   23.745355 C.3        1 MOL1        -0.1415
       9    H6      18.602488   20.423570   24.521457 H          1 MOL1         0.0976
      10    H7      19.639500   20.909394   23.196904 H          1 MOL1         0.0976
      11    C3      18.465752   19.116996   22.787639 C.3        1 MOL1        -0.1375
      12    H8      17.663340   19.708602   22.325749 H          1 MOL1         0.0976
      13    H9      17.959747   18.337429   23.372847 H          1 MOL1         0.0976
      14    C4      19.302261   18.440440   21.670803 C.3        1 MOL1        -0.1375
      15    H10     20.050577   17.769956   22.113935 H          1 MOL1         0.0976
      16    H11     18.634751   17.799191   21.078715 H          1 MOL1         0.0976
      17    C5      19.999839   19.446856   20.725602 C.3        1 MOL1        -0.1350
      18    H12     20.725470   20.051915   21.285337 H          1 MOL1         0.0976
      19    H13     19.256994   20.142539   20.310971 H          1 MOL1         0.0976
      20    C6      20.730855   18.730158   19.570465 C.3        1 MOL1        -0.2365
      21    H14     21.221857   19.458082   18.911635 H          1 MOL1         0.0987
      22    H15     20.029442   18.144828   18.961695 H          1 MOL1         0.0987
      23    H16     21.501773   18.049024   19.953802 H          1 MOL1         0.0987
@<TRIPOS>BOND
    1     1     2    1
    2     1     3    1
    3     1     4    1
    4     1     5    1
    5     5     6    1
    6     5     7    1
    7     5     8    1
    8     8     9    1
    9     8    10    1
   10     8    11    1
   11    11    12    1
   12    11    13    1
   13    11    14    1
   14    14    15    1
   15    14    16    1
   16    14    17    1
   17    17    18    1
   18    17    19    1
   19    17    20    1
   20    20    21    1
   21    20    22    1
   22    20    23    1
@<TRIPOS>SUBSTRUCTURE
       1 MOL1            1 RESIDUE      1      MOL     
@<SCITEGIC>MOL_PROPERTY
VConf Rank
SciTegic.value.IntegerValue
11

@<SCITEGIC>MOL_PROPERTY
Conf_Id
SciTegic.value.IntegerValue
72

@<SCITEGIC>MOL_PROPERTY
Delta U+W
SciTegic.value.DoubleValue
1.051

@<SCITEGIC>MOL_PROPERTY
U+W
SciTegic.value.DoubleValue
-7.331

@<SCITEGIC>MOL_PROPERTY
Grad RMS
SciTegic.value.DoubleValue
0.000000

@<SCITEGIC>MOL_PROPERTY
U
SciTegic.value.DoubleValue
48.590

@<SCITEGIC>MOL_PROPERTY
W
SciTegic.value.DoubleValue
-55.922

@<SCITEGIC>MOL_PROPERTY
W(PB)
SciTegic.value.DoubleValue
-58.012

@<SCITEGIC>MOL_PROPERTY
W(SA)
SciTegic.value.DoubleValue
2.090

@<SCITEGIC>MOL_PROPERTY
Valence
SciTegic.value.DoubleValue
2.601

@<SCITEGIC>MOL_PROPERTY
Coulomb
SciTegic.value.DoubleValue
45.520

@<SCITEGIC>MOL_PROPERTY
VdW
SciTegic.value.DoubleValue
0.469

@<SCITEGIC>MOL_PROPERTY
VdW6
SciTegic.value.DoubleValue
-6.867

@<SCITEGIC>MOL_PROPERTY
VdW12
SciTegic.value.DoubleValue
7.336

@<SCITEGIC>MOL_PROPERTY
Bond
SciTegic.value.DoubleValue
0.205

@<SCITEGIC>MOL_PROPERTY
Angle
SciTegic.value.DoubleValue
0.962

@<SCITEGIC>MOL_PROPERTY
Pdih
SciTegic.value.DoubleValue
1.434

@<SCITEGIC>MOL_PROPERTY
Idih
SciTegic.value.DoubleValue
0.000

@<SCITEGIC>MOL_PROPERTY
Tether
SciTegic.value.DoubleValue
0.000

@<TRIPOS>MOLECULE
guest-2_confgen4.mol2 : confsearch ligand conformer 12
          23          22           1
SMALL
USER_CHARGES
 
@<TRIPOS>ATOM
       1    N1      19.214959   18.152668   25.591480 N.4        1 MOL1        -0.5940
       2    H1      18.400049   18.333320   26.187503 H          1 MOL1         0.3649
       3    H2      20.038937   18.169003   26.201052 H          1 MOL1         0.3649
       4    H3      19.119794   17.195032   25.238579 H          1 MOL1         0.3649
       5    C1      19.324335   19.161868   24.466673 C.3        1 MOL1         0.0207
       6    H4      19.393449   20.158066   24.911827 H          1 MOL1         0.0950
       7    H5      18.404220   19.110628   23.878714 H          1 MOL1         0.0950
       8    C2      20.539220   18.917878   23.552157 C.3        1 MOL1        -0.1415
       9    H6      21.454454   18.934275   24.158628 H          1 MOL1         0.0976
      10    H7      20.477577   17.913185   23.114866 H          1 MOL1         0.0976
      11    C3      20.664489   19.977508   22.429412 C.3        1 MOL1        -0.1375
      12    H8      21.558440   19.760947   21.829494 H          1 MOL1         0.0976
      13    H9      20.846498   20.959590   22.887343 H          1 MOL1         0.0976
      14    C4      19.427990   20.087974   21.496874 C.3        1 MOL1        -0.1375
      15    H10     18.570899   20.465583   22.070555 H          1 MOL1         0.0976
      16    H11     19.631526   20.852075   20.734057 H          1 MOL1         0.0976
      17    C5      19.016566   18.772168   20.788634 C.3        1 MOL1        -0.1350
      18    H12     18.129268   18.969644   20.171063 H          1 MOL1         0.0976
      19    H13     18.706244   18.023051   21.529338 H          1 MOL1         0.0976
      20    C6      20.128441   18.186937   19.888769 C.3        1 MOL1        -0.2365
      21    H14     20.464058   18.923434   19.147235 H          1 MOL1         0.0987
      22    H15     19.760318   17.307077   19.345471 H          1 MOL1         0.0987
      23    H16     20.998434   17.871435   20.477946 H          1 MOL1         0.0987
@<TRIPOS>BOND
    1     1     2    1
    2     1     3    1
    3     1     4    1
    4     1     5    1
    5     5     6    1
    6     5     7    1
    7     5     8    1
    8     8     9    1
    9     8    10    1
   10     8    11    1
   11    11    12    1
   12    11    13    1
   13    11    14    1
   14    14    15    1
   15    14    16    1
   16    14    17    1
   17    17    18    1
   18    17    19    1
   19    17    20    1
   20    20    21    1
   21    20    22    1
   22    20    23    1
@<TRIPOS>SUBSTRUCTURE
       1 MOL1            1 RESIDUE      1      MOL     
@<SCITEGIC>MOL_PROPERTY
VConf Rank
SciTegic.value.IntegerValue
12

@<SCITEGIC>MOL_PROPERTY
Conf_Id
SciTegic.value.IntegerValue
26

@<SCITEGIC>MOL_PROPERTY
Delta U+W
SciTegic.value.DoubleValue
1.076

@<SCITEGIC>MOL_PROPERTY
U+W
SciTegic.value.DoubleValue
-7.306

@<SCITEGIC>MOL_PROPERTY
Grad RMS
SciTegic.value.DoubleValue
0.000000

@<SCITEGIC>MOL_PROPERTY
U
SciTegic.value.DoubleValue
48.641

@<SCITEGIC>MOL_PROPERTY
W
SciTegic.value.DoubleValue
-55.947

@<SCITEGIC>MOL_PROPERTY
W(PB)
SciTegic.value.DoubleValue
-58.031

@<SCITEGIC>MOL_PROPERTY
W(SA)
SciTegic.value.DoubleValue
2.084

@<SCITEGIC>MOL_PROPERTY
Valence
SciTegic.value.DoubleValue
2.922

@<SCITEGIC>MOL_PROPERTY
Coulomb
SciTegic.value.DoubleValue
45.269

@<SCITEGIC>MOL_PROPERTY
VdW
SciTegic.value.DoubleValue
0.449

@<SCITEGIC>MOL_PROPERTY
VdW6
SciTegic.value.DoubleValue
-7.045

@<SCITEGIC>MOL_PROPERTY
VdW12
SciTegic.value.DoubleValue
7.494

@<SCITEGIC>MOL_PROPERTY
Bond
SciTegic.value.DoubleValue
0.220

@<SCITEGIC>MOL_PROPERTY
Angle
SciTegic.value.DoubleValue
1.205

@<SCITEGIC>MOL_PROPERTY
Pdih
SciTegic.value.DoubleValue
1.497

@<SCITEGIC>MOL_PROPERTY
Idih
SciTegic.value.DoubleValue
0.000

@<SCITEGIC>MOL_PROPERTY
Tether
SciTegic.value.DoubleValue
0.000

@<TRIPOS>MOLECULE
guest-2_confgen4.mol2 : confsearch ligand conformer 13
          23          22           1
SMALL
USER_CHARGES
 
@<TRIPOS>ATOM
       1    N1      20.535593   18.701682   25.651570 N.4        1 MOL1        -0.5940
       2    H1      19.898139   18.110470   26.194619 H          1 MOL1         0.3649
       3    H2      20.933869   19.386673   26.302816 H          1 MOL1         0.3649
       4    H3      21.307457   18.104489   25.338122 H          1 MOL1         0.3649
       5    C1      19.831748   19.372821   24.489757 C.3        1 MOL1         0.0207
       6    H4      20.559733   20.006780   23.976857 H          1 MOL1         0.0950
       7    H5      19.043700   20.012648   24.895899 H          1 MOL1         0.0950
       8    C2      19.222153   18.370342   23.492136 C.3        1 MOL1        -0.1415
       9    H6      20.010350   17.718935   23.093578 H          1 MOL1         0.0976
      10    H7      18.520762   17.714693   24.024961 H          1 MOL1         0.0976
      11    C3      18.471412   19.065772   22.329456 C.3        1 MOL1        -0.1375
      12    H8      17.613045   19.615328   22.739952 H          1 MOL1         0.0976
      13    H9      18.043458   18.299637   21.669270 H          1 MOL1         0.0976
      14    C4      19.333941   20.048883   21.492621 C.3        1 MOL1        -0.1375
      15    H10     18.709461   20.468775   20.692069 H          1 MOL1         0.0976
      16    H11     19.624099   20.903423   22.118618 H          1 MOL1         0.0976
      17    C5      20.608996   19.434203   20.861253 C.3        1 MOL1        -0.1350
      18    H12     21.299598   19.101221   21.647581 H          1 MOL1         0.0976
      19    H13     21.140260   20.221425   20.308322 H          1 MOL1         0.0976
      20    C6      20.312157   18.263296   19.897209 C.3        1 MOL1        -0.2365
      21    H14     19.878854   17.405910   20.427018 H          1 MOL1         0.0987
      22    H15     21.235474   17.920389   19.412709 H          1 MOL1         0.0987
      23    H16     19.612716   18.569468   19.108550 H          1 MOL1         0.0987
@<TRIPOS>BOND
    1     1     2    1
    2     1     3    1
    3     1     4    1
    4     1     5    1
    5     5     6    1
    6     5     7    1
    7     5     8    1
    8     8     9    1
    9     8    10    1
   10     8    11    1
   11    11    12    1
   12    11    13    1
   13    11    14    1
   14    14    15    1
   15    14    16    1
   16    14    17    1
   17    17    18    1
   18    17    19    1
   19    17    20    1
   20    20    21    1
   21    20    22    1
   22    20    23    1
@<TRIPOS>SUBSTRUCTURE
       1 MOL1            1 RESIDUE      1      MOL     
@<SCITEGIC>MOL_PROPERTY
VConf Rank
SciTegic.value.IntegerValue
13

@<SCITEGIC>MOL_PROPERTY
Conf_Id
SciTegic.value.IntegerValue
90

@<SCITEGIC>MOL_PROPERTY
Delta U+W
SciTegic.value.DoubleValue
1.131

@<SCITEGIC>MOL_PROPERTY
U+W
SciTegic.value.DoubleValue
-7.251

@<SCITEGIC>MOL_PROPERTY
Grad RMS
SciTegic.value.DoubleValue
0.000000

@<SCITEGIC>MOL_PROPERTY
U
SciTegic.value.DoubleValue
48.641

@<SCITEGIC>MOL_PROPERTY
W
SciTegic.value.DoubleValue
-55.892

@<SCITEGIC>MOL_PROPERTY
W(PB)
SciTegic.value.DoubleValue
-57.962

@<SCITEGIC>MOL_PROPERTY
W(SA)
SciTegic.value.DoubleValue
2.070

@<SCITEGIC>MOL_PROPERTY
Valence
SciTegic.value.DoubleValue
2.922

@<SCITEGIC>MOL_PROPERTY
Coulomb
SciTegic.value.DoubleValue
45.269

@<SCITEGIC>MOL_PROPERTY
VdW
SciTegic.value.DoubleValue
0.450

@<SCITEGIC>MOL_PROPERTY
VdW6
SciTegic.value.DoubleValue
-7.045

@<SCITEGIC>MOL_PROPERTY
VdW12
SciTegic.value.DoubleValue
7.495

@<SCITEGIC>MOL_PROPERTY
Bond
SciTegic.value.DoubleValue
0.220

@<SCITEGIC>MOL_PROPERTY
Angle
SciTegic.value.DoubleValue
1.205

@<SCITEGIC>MOL_PROPERTY
Pdih
SciTegic.value.DoubleValue
1.497

@<SCITEGIC>MOL_PROPERTY
Idih
SciTegic.value.DoubleValue
0.000

@<SCITEGIC>MOL_PROPERTY
Tether
SciTegic.value.DoubleValue
0.000

@<TRIPOS>MOLECULE
guest-2_confgen4.mol2 : confsearch ligand conformer 14
          23          22           1
SMALL
USER_CHARGES
 
@<TRIPOS>ATOM
       1    N1      20.353727   17.878554   24.946871 N.4        1 MOL1        -0.5940
       2    H1      21.193688   17.716989   25.512745 H          1 MOL1         0.3649
       3    H2      20.521201   17.452198   24.030467 H          1 MOL1         0.3649
       4    H3      19.590117   17.357392   25.389435 H          1 MOL1         0.3649
       5    C1      20.031429   19.354995   24.825860 C.3        1 MOL1         0.0207
       6    H4      20.893945   19.854502   24.377221 H          1 MOL1         0.0950
       7    H5      19.898533   19.750747   25.836423 H          1 MOL1         0.0950
       8    C2      18.767443   19.647047   23.991634 C.3        1 MOL1        -0.1415
       9    H6      17.900205   19.180182   24.477149 H          1 MOL1         0.0976
      10    H7      18.579298   20.728841   24.004563 H          1 MOL1         0.0976
      11    C3      18.855941   19.161153   22.523078 C.3        1 MOL1        -0.1375
      12    H8      17.909508   19.398815   22.018209 H          1 MOL1         0.0976
      13    H9      18.946471   18.067741   22.504162 H          1 MOL1         0.0976
      14    C4      20.025995   19.808007   21.739479 C.3        1 MOL1        -0.1375
      15    H10     19.965278   20.900283   21.842019 H          1 MOL1         0.0976
      16    H11     20.987240   19.508875   22.178183 H          1 MOL1         0.0976
      17    C5      20.024551   19.454922   20.232588 C.3        1 MOL1        -0.1350
      18    H12     20.814586   20.033716   19.733912 H          1 MOL1         0.0976
      19    H13     19.076580   19.773143   19.776663 H          1 MOL1         0.0976
      20    C6      20.256914   17.952322   19.954491 C.3        1 MOL1        -0.2365
      21    H14     21.186240   17.602945   20.422706 H          1 MOL1         0.0987
      22    H15     20.336231   17.769589   18.875022 H          1 MOL1         0.0987
      23    H16     19.429128   17.339447   20.332068 H          1 MOL1         0.0987
@<TRIPOS>BOND
    1     1     2    1
    2     1     3    1
    3     1     4    1
    4     1     5    1
    5     5     6    1
    6     5     7    1
    7     5     8    1
    8     8     9    1
    9     8    10    1
   10     8    11    1
   11    11    12    1
   12    11    13    1
   13    11    14    1
   14    14    15    1
   15    14    16    1
   16    14    17    1
   17    17    18    1
   18    17    19    1
   19    17    20    1
   20    20    21    1
   21    20    22    1
   22    20    23    1
@<TRIPOS>SUBSTRUCTURE
       1 MOL1            1 RESIDUE      1      MOL     
@<SCITEGIC>MOL_PROPERTY
VConf Rank
SciTegic.value.IntegerValue
14

@<SCITEGIC>MOL_PROPERTY
Conf_Id
SciTegic.value.IntegerValue
85

@<SCITEGIC>MOL_PROPERTY
Delta U+W
SciTegic.value.DoubleValue
1.193

@<SCITEGIC>MOL_PROPERTY
U+W
SciTegic.value.DoubleValue
-7.189

@<SCITEGIC>MOL_PROPERTY
Grad RMS
SciTegic.value.DoubleValue
0.000000

@<SCITEGIC>MOL_PROPERTY
U
SciTegic.value.DoubleValue
48.775

@<SCITEGIC>MOL_PROPERTY
W
SciTegic.value.DoubleValue
-55.965

@<SCITEGIC>MOL_PROPERTY
W(PB)
SciTegic.value.DoubleValue
-58.038

@<SCITEGIC>MOL_PROPERTY
W(SA)
SciTegic.value.DoubleValue
2.073

@<SCITEGIC>MOL_PROPERTY
Valence
SciTegic.value.DoubleValue
2.602

@<SCITEGIC>MOL_PROPERTY
Coulomb
SciTegic.value.DoubleValue
45.581

@<SCITEGIC>MOL_PROPERTY
VdW
SciTegic.value.DoubleValue
0.592

@<SCITEGIC>MOL_PROPERTY
VdW6
SciTegic.value.DoubleValue
-6.616

@<SCITEGIC>MOL_PROPERTY
VdW12
SciTegic.value.DoubleValue
7.208

@<SCITEGIC>MOL_PROPERTY
Bond
SciTegic.value.DoubleValue
0.196

@<SCITEGIC>MOL_PROPERTY
Angle
SciTegic.value.DoubleValue
0.832

@<SCITEGIC>MOL_PROPERTY
Pdih
SciTegic.value.DoubleValue
1.574

@<SCITEGIC>MOL_PROPERTY
Idih
SciTegic.value.DoubleValue
0.000

@<SCITEGIC>MOL_PROPERTY
Tether
SciTegic.value.DoubleValue
0.000

@<TRIPOS>MOLECULE
guest-2_confgen4.mol2 : confsearch ligand conformer 15
          23          22           1
SMALL
USER_CHARGES
 
@<TRIPOS>ATOM
       1    N1      19.269552   17.593504   24.068458 N.4        1 MOL1        -0.5940
       2    H1      19.455223   17.525895   23.062662 H          1 MOL1         0.3649
       3    H2      18.434115   17.031745   24.265369 H          1 MOL1         0.3649
       4    H3      20.052516   17.144908   24.555021 H          1 MOL1         0.3649
       5    C1      19.092794   19.036099   24.501283 C.3        1 MOL1         0.0207
       6    H4      18.901398   19.025312   25.577741 H          1 MOL1         0.0950
       7    H5      18.209500   19.445392   24.003889 H          1 MOL1         0.0950
       8    C2      20.316397   19.930787   24.216595 C.3        1 MOL1        -0.1415
       9    H6      20.262545   20.794648   24.892378 H          1 MOL1         0.0976
      10    H7      21.237218   19.397228   24.487289 H          1 MOL1         0.0976
      11    C3      20.418589   20.470856   22.764702 C.3        1 MOL1        -0.1375
      12    H8      21.296184   21.130714   22.720901 H          1 MOL1         0.0976
      13    H9      19.556259   21.114657   22.542490 H          1 MOL1         0.0976
      14    C4      20.575686   19.389951   21.664600 C.3        1 MOL1        -0.1375
      15    H10     21.243654   19.780814   20.884354 H          1 MOL1         0.0976
      16    H11     21.083301   18.505492   22.071769 H          1 MOL1         0.0976
      17    C5      19.235045   19.004742   20.992741 C.3        1 MOL1        -0.1350
      18    H12     18.837673   19.875388   20.452180 H          1 MOL1         0.0976
      19    H13     18.478102   18.743450   21.741768 H          1 MOL1         0.0976
      20    C6      19.407937   17.831060   20.005622 C.3        1 MOL1        -0.2365
      21    H14     20.122554   18.086100   19.212120 H          1 MOL1         0.0987
      22    H15     18.451172   17.582087   19.528345 H          1 MOL1         0.0987
      23    H16     19.773389   16.931008   20.516617 H          1 MOL1         0.0987
@<TRIPOS>BOND
    1     1     2    1
    2     1     3    1
    3     1     4    1
    4     1     5    1
    5     5     6    1
    6     5     7    1
    7     5     8    1
    8     8     9    1
    9     8    10    1
   10     8    11    1
   11    11    12    1
   12    11    13    1
   13    11    14    1
   14    14    15    1
   15    14    16    1
   16    14    17    1
   17    17    18    1
   18    17    19    1
   19    17    20    1
   20    20    21    1
   21    20    22    1
   22    20    23    1
@<TRIPOS>SUBSTRUCTURE
       1 MOL1            1 RESIDUE      1      MOL     
@<SCITEGIC>MOL_PROPERTY
VConf Rank
SciTegic.value.IntegerValue
15

@<SCITEGIC>MOL_PROPERTY
Conf_Id
SciTegic.value.IntegerValue
82

@<SCITEGIC>MOL_PROPERTY
Delta U+W
SciTegic.value.DoubleValue
5.994

@<SCITEGIC>MOL_PROPERTY
U+W
SciTegic.value.DoubleValue
-2.388

@<SCITEGIC>MOL_PROPERTY
Grad RMS
SciTegic.value.DoubleValue
0.000000

@<SCITEGIC>MOL_PROPERTY
U
SciTegic.value.DoubleValue
52.836

@<SCITEGIC>MOL_PROPERTY
W
SciTegic.value.DoubleValue
-55.224

@<SCITEGIC>MOL_PROPERTY
W(PB)
SciTegic.value.DoubleValue
-57.261

@<SCITEGIC>MOL_PROPERTY
W(SA)
SciTegic.value.DoubleValue
2.037

@<SCITEGIC>MOL_PROPERTY
Valence
SciTegic.value.DoubleValue
5.785

@<SCITEGIC>MOL_PROPERTY
Coulomb
SciTegic.value.DoubleValue
46.744

@<SCITEGIC>MOL_PROPERTY
VdW
SciTegic.value.DoubleValue
0.307

@<SCITEGIC>MOL_PROPERTY
VdW6
SciTegic.value.DoubleValue
-7.672

@<SCITEGIC>MOL_PROPERTY
VdW12
SciTegic.value.DoubleValue
7.979

@<SCITEGIC>MOL_PROPERTY
Bond
SciTegic.value.DoubleValue
0.217

@<SCITEGIC>MOL_PROPERTY
Angle
SciTegic.value.DoubleValue
1.470

@<SCITEGIC>MOL_PROPERTY
Pdih
SciTegic.value.DoubleValue
4.098

@<SCITEGIC>MOL_PROPERTY
Idih
SciTegic.value.DoubleValue
0.000

@<SCITEGIC>MOL_PROPERTY
Tether
SciTegic.value.DoubleValue
0.000

@<TRIPOS>MOLECULE
guest-2_confgen4.mol2 : confsearch ligand conformer 16
          23          22           1
SMALL
USER_CHARGES
 
@<TRIPOS>ATOM
       1    N1      21.011119   18.317659   24.147679 N.4        1 MOL1        -0.5940
       2    H1      20.741106   17.431201   24.586199 H          1 MOL1         0.3649
       3    H2      21.980078   18.506126   24.426785 H          1 MOL1         0.3649
       4    H3      21.006561   18.171058   23.133203 H          1 MOL1         0.3649
       5    C1      20.080669   19.446834   24.546280 C.3        1 MOL1         0.0207
       6    H4      20.449774   20.376911   24.106002 H          1 MOL1         0.0950
       7    H5      20.139251   19.539893   25.634130 H          1 MOL1         0.0950
       8    C2      18.610321   19.221404   24.138880 C.3        1 MOL1        -0.1415
       9    H6      18.320371   18.184419   24.354436 H          1 MOL1         0.0976
      10    H7      17.984334   19.847383   24.788595 H          1 MOL1         0.0976
      11    C3      18.268905   19.577001   22.666773 C.3        1 MOL1        -0.1375
      12    H8      18.435953   20.648835   22.491454 H          1 MOL1         0.0976
      13    H9      17.189054   19.422914   22.533790 H          1 MOL1         0.0976
      14    C4      19.008964   18.738497   21.593233 C.3        1 MOL1        -0.1375
      15    H10     19.247009   17.741947   21.988133 H          1 MOL1         0.0976
      16    H11     18.323795   18.566664   20.751358 H          1 MOL1         0.0976
      17    C5      20.275016   19.437241   21.040085 C.3        1 MOL1        -0.1350
      18    H12     20.933297   19.764645   21.853569 H          1 MOL1         0.0976
      19    H13     19.979657   20.350220   20.504018 H          1 MOL1         0.0976
      20    C6      21.061006   18.518364   20.081070 C.3        1 MOL1        -0.2365
      21    H14     21.401984   17.608234   20.591134 H          1 MOL1         0.0987
      22    H15     21.945941   19.035297   19.687560 H          1 MOL1         0.0987
      23    H16     20.440275   18.217842   19.226818 H          1 MOL1         0.0987
@<TRIPOS>BOND
    1     1     2    1
    2     1     3    1
    3     1     4    1
    4     1     5    1
    5     5     6    1
    6     5     7    1
    7     5     8    1
    8     8     9    1
    9     8    10    1
   10     8    11    1
   11    11    12    1
   12    11    13    1
   13    11    14    1
   14    14    15    1
   15    14    16    1
   16    14    17    1
   17    17    18    1
   18    17    19    1
   19    17    20    1
   20    20    21    1
   21    20    22    1
   22    20    23    1
@<TRIPOS>SUBSTRUCTURE
       1 MOL1            1 RESIDUE      1      MOL     
@<SCITEGIC>MOL_PROPERTY
VConf Rank
SciTegic.value.IntegerValue
16

@<SCITEGIC>MOL_PROPERTY
Conf_Id
SciTegic.value.IntegerValue
5

@<SCITEGIC>MOL_PROPERTY
Delta U+W
SciTegic.value.DoubleValue
6.087

@<SCITEGIC>MOL_PROPERTY
U+W
SciTegic.value.DoubleValue
-2.295

@<SCITEGIC>MOL_PROPERTY
Grad RMS
SciTegic.value.DoubleValue
0.000000

@<SCITEGIC>MOL_PROPERTY
U
SciTegic.value.DoubleValue
52.836

@<SCITEGIC>MOL_PROPERTY
W
SciTegic.value.DoubleValue
-55.131

@<SCITEGIC>MOL_PROPERTY
W(PB)
SciTegic.value.DoubleValue
-57.202

@<SCITEGIC>MOL_PROPERTY
W(SA)
SciTegic.value.DoubleValue
2.071

@<SCITEGIC>MOL_PROPERTY
Valence
SciTegic.value.DoubleValue
5.785

@<SCITEGIC>MOL_PROPERTY
Coulomb
SciTegic.value.DoubleValue
46.744

@<SCITEGIC>MOL_PROPERTY
VdW
SciTegic.value.DoubleValue
0.307

@<SCITEGIC>MOL_PROPERTY
VdW6
SciTegic.value.DoubleValue
-7.672

@<SCITEGIC>MOL_PROPERTY
VdW12
SciTegic.value.DoubleValue
7.980

@<SCITEGIC>MOL_PROPERTY
Bond
SciTegic.value.DoubleValue
0.217

@<SCITEGIC>MOL_PROPERTY
Angle
SciTegic.value.DoubleValue
1.470

@<SCITEGIC>MOL_PROPERTY
Pdih
SciTegic.value.DoubleValue
4.098

@<SCITEGIC>MOL_PROPERTY
Idih
SciTegic.value.DoubleValue
0.000

@<SCITEGIC>MOL_PROPERTY
Tether
SciTegic.value.DoubleValue
0.000

@<TRIPOS>MOLECULE
guest-2_confgen4.mol2 : confsearch ligand conformer 17
          23          22           1
SMALL
USER_CHARGES
 
@<TRIPOS>ATOM
       1    N1      19.653717   15.433154   24.000662 N.4        1 MOL1        -0.5940
       2    H1      20.445229   15.072012   23.458475 H          1 MOL1         0.3649
       3    H2      18.992838   14.657231   24.115880 H          1 MOL1         0.3649
       4    H3      20.008027   15.663583   24.934606 H          1 MOL1         0.3649
       5    C1      19.007144   16.628278   23.330200 C.3        1 MOL1         0.0207
       6    H4      18.157782   16.940820   23.943713 H          1 MOL1         0.0950
       7    H5      18.627675   16.304936   22.357087 H          1 MOL1         0.0950
       8    C2      19.973586   17.811187   23.142334 C.3        1 MOL1        -0.1415
       9    H6      20.364587   18.121937   24.120421 H          1 MOL1         0.0976
      10    H7      20.832876   17.488254   22.539479 H          1 MOL1         0.0976
      11    C3      19.276877   19.007215   22.456553 C.3        1 MOL1        -0.1375
      12    H8      18.414684   19.323878   23.060002 H          1 MOL1         0.0976
      13    H9      18.882528   18.690874   21.480736 H          1 MOL1         0.0976
      14    C4      20.238756   20.201476   22.262815 C.3        1 MOL1        -0.1375
      15    H10     20.633038   20.517994   23.238454 H          1 MOL1         0.0976
      16    H11     21.100903   19.885017   21.659434 H          1 MOL1         0.0976
      17    C5      19.541677   21.397424   21.576850 C.3        1 MOL1        -0.1350
      18    H12     18.679735   21.719357   22.178006 H          1 MOL1         0.0976
      19    H13     19.147574   21.086439   20.599126 H          1 MOL1         0.0976
      20    C6      20.505206   22.587952   21.385112 C.3        1 MOL1        -0.2365
      21    H14     19.992490   23.426890   20.896902 H          1 MOL1         0.0987
      22    H15     21.361437   22.305936   20.758562 H          1 MOL1         0.0987
      23    H16     20.889965   22.943783   22.349775 H          1 MOL1         0.0987
@<TRIPOS>BOND
    1     1     2    1
    2     1     3    1
    3     1     4    1
    4     1     5    1
    5     5     6    1
    6     5     7    1
    7     5     8    1
    8     8     9    1
    9     8    10    1
   10     8    11    1
   11    11    12    1
   12    11    13    1
   13    11    14    1
   14    14    15    1
   15    14    16    1
   16    14    17    1
   17    17    18    1
   18    17    19    1
   19    17    20    1
   20    20    21    1
   21    20    22    1
   22    20    23    1
@<TRIPOS>SUBSTRUCTURE
       1 MOL1            1 RESIDUE      1      MOL     
@<SCITEGIC>MOL_PROPERTY
VConf Rank
SciTegic.value.IntegerValue
17

@<SCITEGIC>MOL_PROPERTY
Conf_Id
SciTegic.value.IntegerValue
40

@<SCITEGIC>MOL_PROPERTY
Delta U+W
SciTegic.value.DoubleValue
0.000

@<SCITEGIC>MOL_PROPERTY
U+W
SciTegic.value.DoubleValue
-8.382

@<SCITEGIC>MOL_PROPERTY
Grad RMS
SciTegic.value.DoubleValue
0.000000

@<SCITEGIC>MOL_PROPERTY
U
SciTegic.value.DoubleValue
46.604

@<SCITEGIC>MOL_PROPERTY
W
SciTegic.value.DoubleValue
-54.986

@<SCITEGIC>MOL_PROPERTY
W(PB)
SciTegic.value.DoubleValue
-57.162

@<SCITEGIC>MOL_PROPERTY
W(SA)
SciTegic.value.DoubleValue
2.176

@<SCITEGIC>MOL_PROPERTY
Valence
SciTegic.value.DoubleValue
1.727

@<SCITEGIC>MOL_PROPERTY
Coulomb
SciTegic.value.DoubleValue
44.434

@<SCITEGIC>MOL_PROPERTY
VdW
SciTegic.value.DoubleValue
0.443

@<SCITEGIC>MOL_PROPERTY
VdW6
SciTegic.value.DoubleValue
-4.623

@<SCITEGIC>MOL_PROPERTY
VdW12
SciTegic.value.DoubleValue
5.066

@<SCITEGIC>MOL_PROPERTY
Bond
SciTegic.value.DoubleValue
0.112

@<SCITEGIC>MOL_PROPERTY
Angle
SciTegic.value.DoubleValue
0.386

@<SCITEGIC>MOL_PROPERTY
Pdih
SciTegic.value.DoubleValue
1.228

@<SCITEGIC>MOL_PROPERTY
Idih
SciTegic.value.DoubleValue
0.000

@<SCITEGIC>MOL_PROPERTY
Tether
SciTegic.value.DoubleValue
0.000

@<TRIPOS>MOLECULE
guest-2_confgen4.mol2 : confsearch ligand conformer 18
          23          22           1
SMALL
USER_CHARGES
 
@<TRIPOS>ATOM
       1    N1      19.101946   15.789561   23.990115 N.4        1 MOL1        -0.5940
       2    H1      19.961789   15.381557   24.370959 H          1 MOL1         0.3649
       3    H2      18.908790   15.312444   23.103614 H          1 MOL1         0.3649
       4    H3      18.343478   15.540492   24.634103 H          1 MOL1         0.3649
       5    C1      19.218873   17.289598   23.811226 C.3        1 MOL1         0.0207
       6    H4      19.395119   17.734011   24.794509 H          1 MOL1         0.0950
       7    H5      18.261326   17.657309   23.433853 H          1 MOL1         0.0950
       8    C2      20.350895   17.695955   22.848661 C.3        1 MOL1        -0.1415
       9    H6      21.298495   17.279432   23.215417 H          1 MOL1         0.0976
      10    H7      20.173752   17.250833   21.860496 H          1 MOL1         0.0976
      11    C3      20.498840   19.229673   22.709216 C.3        1 MOL1        -0.1375
      12    H8      21.390820   19.434739   22.103177 H          1 MOL1         0.0976
      13    H9      20.685588   19.671076   23.697983 H          1 MOL1         0.0976
      14    C4      19.263061   19.903364   22.059937 C.3        1 MOL1        -0.1375
      15    H10     19.089347   19.476126   21.062685 H          1 MOL1         0.0976
      16    H11     18.367260   19.677218   22.653153 H          1 MOL1         0.0976
      17    C5      19.388846   21.442172   21.946908 C.3        1 MOL1        -0.1350
      18    H12     19.552315   21.876144   22.943274 H          1 MOL1         0.0976
      19    H13     18.432297   21.847887   21.588741 H          1 MOL1         0.0976
      20    C6      20.511962   21.900702   20.988915 C.3        1 MOL1        -0.2365
      21    H14     21.503997   21.627927   21.369331 H          1 MOL1         0.0987
      22    H15     20.493722   22.991861   20.870646 H          1 MOL1         0.0987
      23    H16     20.389480   21.453591   19.993877 H          1 MOL1         0.0987
@<TRIPOS>BOND
    1     1     2    1
    2     1     3    1
    3     1     4    1
    4     1     5    1
    5     5     6    1
    6     5     7    1
    7     5     8    1
    8     8     9    1
    9     8    10    1
   10     8    11    1
   11    11    12    1
   12    11    13    1
   13    11    14    1
   14    14    15    1
   15    14    16    1
   16    14    17    1
   17    17    18    1
   18    17    19    1
   19    17    20    1
   20    20    21    1
   21    20    22    1
   22    20    23    1
@<TRIPOS>SUBSTRUCTURE
       1 MOL1            1 RESIDUE      1      MOL     
@<SCITEGIC>MOL_PROPERTY
VConf Rank
SciTegic.value.IntegerValue
18

@<SCITEGIC>MOL_PROPERTY
Conf_Id
SciTegic.value.IntegerValue
65

@<SCITEGIC>MOL_PROPERTY
Delta U+W
SciTegic.value.DoubleValue
1.004

@<SCITEGIC>MOL_PROPERTY
U+W
SciTegic.value.DoubleValue
-7.378

@<SCITEGIC>MOL_PROPERTY
Grad RMS
SciTegic.value.DoubleValue
0.000000

@<SCITEGIC>MOL_PROPERTY
U
SciTegic.value.DoubleValue
48.047

@<SCITEGIC>MOL_PROPERTY
W
SciTegic.value.DoubleValue
-55.425

@<SCITEGIC>MOL_PROPERTY
W(PB)
SciTegic.value.DoubleValue
-57.542

@<SCITEGIC>MOL_PROPERTY
W(SA)
SciTegic.value.DoubleValue
2.116

@<SCITEGIC>MOL_PROPERTY
Valence
SciTegic.value.DoubleValue
2.583

@<SCITEGIC>MOL_PROPERTY
Coulomb
SciTegic.value.DoubleValue
44.791

@<SCITEGIC>MOL_PROPERTY
VdW
SciTegic.value.DoubleValue
0.673

@<SCITEGIC>MOL_PROPERTY
VdW6
SciTegic.value.DoubleValue
-5.788

@<SCITEGIC>MOL_PROPERTY
VdW12
SciTegic.value.DoubleValue
6.462

@<SCITEGIC>MOL_PROPERTY
Bond
SciTegic.value.DoubleValue
0.177

@<SCITEGIC>MOL_PROPERTY
Angle
SciTegic.value.DoubleValue
0.787

@<SCITEGIC>MOL_PROPERTY
Pdih
SciTegic.value.DoubleValue
1.619

@<SCITEGIC>MOL_PROPERTY
Idih
SciTegic.value.DoubleValue
0.000

@<SCITEGIC>MOL_PROPERTY
Tether
SciTegic.value.DoubleValue
0.000

@<TRIPOS>MOLECULE
guest-2_confgen4.mol2 : confsearch ligand conformer 19
          23          22           1
SMALL
USER_CHARGES
 
@<TRIPOS>ATOM
       1    N1      16.518945   20.213620   21.713146 N.4        1 MOL1        -0.5940
       2    H1      16.582570   21.156934   21.316976 H          1 MOL1         0.3649
       3    H2      15.674136   20.191066   22.294367 H          1 MOL1         0.3649
       4    H3      16.360577   19.568721   20.932211 H          1 MOL1         0.3649
       5    C1      17.757588   19.848513   22.505759 C.3        1 MOL1         0.0207
       6    H4      17.606472   18.849009   22.921301 H          1 MOL1         0.0950
       7    H5      17.848638   20.555879   23.334465 H          1 MOL1         0.0950
       8    C2      19.044546   19.873666   21.659448 C.3        1 MOL1        -0.1415
       9    H6      18.954125   19.162465   20.827582 H          1 MOL1         0.0976
      10    H7      19.157498   20.869438   21.210420 H          1 MOL1         0.0976
      11    C3      20.312400   19.549967   22.484906 C.3        1 MOL1        -0.1375
      12    H8      20.405503   20.269090   23.310475 H          1 MOL1         0.0976
      13    H9      21.188700   19.699926   21.841032 H          1 MOL1         0.0976
      14    C4      20.320517   18.104971   23.045704 C.3        1 MOL1        -0.1375
      15    H10     19.430855   17.948028   23.669704 H          1 MOL1         0.0976
      16    H11     20.248327   17.385903   22.218087 H          1 MOL1         0.0976
      17    C5      21.570217   17.783218   23.900833 C.3        1 MOL1        -0.1350
      18    H12     21.441062   16.789618   24.352441 H          1 MOL1         0.0976
      19    H13     21.641762   18.493165   24.736689 H          1 MOL1         0.0976
      20    C6      22.888994   17.794006   23.094546 C.3        1 MOL1        -0.2365
      21    H14     23.129310   18.798957   22.726336 H          1 MOL1         0.0987
      22    H15     22.830935   17.116064   22.233132 H          1 MOL1         0.0987
      23    H16     23.726214   17.465427   23.723866 H          1 MOL1         0.0987
@<TRIPOS>BOND
    1     1     2    1
    2     1     3    1
    3     1     4    1
    4     1     5    1
    5     5     6    1
    6     5     7    1
    7     5     8    1
    8     8     9    1
    9     8    10    1
   10     8    11    1
   11    11    12    1
   12    11    13    1
   13    11    14    1
   14    14    15    1
   15    14    16    1
   16    14    17    1
   17    17    18    1
   18    17    19    1
   19    17    20    1
   20    20    21    1
   21    20    22    1
   22    20    23    1
@<TRIPOS>SUBSTRUCTURE
       1 MOL1            1 RESIDUE      1      MOL     
@<SCITEGIC>MOL_PROPERTY
VConf Rank
SciTegic.value.IntegerValue
19

@<SCITEGIC>MOL_PROPERTY
Conf_Id
SciTegic.value.IntegerValue
92

@<SCITEGIC>MOL_PROPERTY
Delta U+W
SciTegic.value.DoubleValue
0.973

@<SCITEGIC>MOL_PROPERTY
U+W
SciTegic.value.DoubleValue
-7.409

@<SCITEGIC>MOL_PROPERTY
Grad RMS
SciTegic.value.DoubleValue
0.000000

@<SCITEGIC>MOL_PROPERTY
U
SciTegic.value.DoubleValue
48.047

@<SCITEGIC>MOL_PROPERTY
W
SciTegic.value.DoubleValue
-55.456

@<SCITEGIC>MOL_PROPERTY
W(PB)
SciTegic.value.DoubleValue
-57.595

@<SCITEGIC>MOL_PROPERTY
W(SA)
SciTegic.value.DoubleValue
2.138

@<SCITEGIC>MOL_PROPERTY
Valence
SciTegic.value.DoubleValue
2.583

@<SCITEGIC>MOL_PROPERTY
Coulomb
SciTegic.value.DoubleValue
44.791

@<SCITEGIC>MOL_PROPERTY
VdW
SciTegic.value.DoubleValue
0.674

@<SCITEGIC>MOL_PROPERTY
VdW6
SciTegic.value.DoubleValue
-5.789

@<SCITEGIC>MOL_PROPERTY
VdW12
SciTegic.value.DoubleValue
6.462

@<SCITEGIC>MOL_PROPERTY
Bond
SciTegic.value.DoubleValue
0.177

@<SCITEGIC>MOL_PROPERTY
Angle
SciTegic.value.DoubleValue
0.787

@<SCITEGIC>MOL_PROPERTY
Pdih
SciTegic.value.DoubleValue
1.619

@<SCITEGIC>MOL_PROPERTY
Idih
SciTegic.value.DoubleValue
0.000

@<SCITEGIC>MOL_PROPERTY
Tether
SciTegic.value.DoubleValue
0.000

@<TRIPOS>MOLECULE
guest-2_confgen4.mol2 : confsearch ligand conformer 20
          23          22           1
SMALL
USER_CHARGES
 
@<TRIPOS>ATOM
       1    N1      20.469299   22.153026   23.956700 N.4        1 MOL1        -0.5940
       2    H1      20.499192   22.989237   23.363496 H          1 MOL1         0.3649
       3    H2      21.276009   22.206242   24.586970 H          1 MOL1         0.3649
       4    H3      19.627772   22.229426   24.537076 H          1 MOL1         0.3649
       5    C1      20.476330   20.879637   23.135599 C.3        1 MOL1         0.0207
       6    H4      21.382073   20.877851   22.523189 H          1 MOL1         0.0950
       7    H5      19.610291   20.905768   22.469275 H          1 MOL1         0.0950
       8    C2      20.432191   19.604666   23.998940 C.3        1 MOL1        -0.1415
       9    H6      21.282331   19.612627   24.694027 H          1 MOL1         0.0976
      10    H7      19.522843   19.606938   24.614632 H          1 MOL1         0.0976
      11    C3      20.485750   18.309037   23.155430 C.3        1 MOL1        -0.1375
      12    H8      20.544651   17.448141   23.835754 H          1 MOL1         0.0976
      13    H9      21.409156   18.297626   22.559746 H          1 MOL1         0.0976
      14    C4      19.261293   18.138611   22.224236 C.3        1 MOL1        -0.1375
      15    H10     18.338461   18.183639   22.819023 H          1 MOL1         0.0976
      16    H11     19.217572   18.967909   21.505619 H          1 MOL1         0.0976
      17    C5      19.309767   16.801606   21.451682 C.3        1 MOL1        -0.1350
      18    H12     19.345275   15.963336   22.161615 H          1 MOL1         0.0976
      19    H13     20.231582   16.750957   20.855301 H          1 MOL1         0.0976
      20    C6      18.088896   16.633309   20.522321 C.3        1 MOL1        -0.2365
      21    H14     17.152233   16.646143   21.094793 H          1 MOL1         0.0987
      22    H15     18.140934   15.678556   19.983076 H          1 MOL1         0.0987
      23    H16     18.045496   17.438742   19.777597 H          1 MOL1         0.0987
@<TRIPOS>BOND
    1     1     2    1
    2     1     3    1
    3     1     4    1
    4     1     5    1
    5     5     6    1
    6     5     7    1
    7     5     8    1
    8     8     9    1
    9     8    10    1
   10     8    11    1
   11    11    12    1
   12    11    13    1
   13    11    14    1
   14    14    15    1
   15    14    16    1
   16    14    17    1
   17    17    18    1
   18    17    19    1
   19    17    20    1
   20    20    21    1
   21    20    22    1
   22    20    23    1
@<TRIPOS>SUBSTRUCTURE
       1 MOL1            1 RESIDUE      1      MOL     
@<SCITEGIC>MOL_PROPERTY
VConf Rank
SciTegic.value.IntegerValue
20

@<SCITEGIC>MOL_PROPERTY
Conf_Id
SciTegic.value.IntegerValue
42

@<SCITEGIC>MOL_PROPERTY
Delta U+W
SciTegic.value.DoubleValue
0.365

@<SCITEGIC>MOL_PROPERTY
U+W
SciTegic.value.DoubleValue
-8.017

@<SCITEGIC>MOL_PROPERTY
Grad RMS
SciTegic.value.DoubleValue
0.000000

@<SCITEGIC>MOL_PROPERTY
U
SciTegic.value.DoubleValue
47.375

@<SCITEGIC>MOL_PROPERTY
W
SciTegic.value.DoubleValue
-55.392

@<SCITEGIC>MOL_PROPERTY
W(PB)
SciTegic.value.DoubleValue
-57.543

@<SCITEGIC>MOL_PROPERTY
W(SA)
SciTegic.value.DoubleValue
2.152

@<SCITEGIC>MOL_PROPERTY
Valence
SciTegic.value.DoubleValue
2.032

@<SCITEGIC>MOL_PROPERTY
Coulomb
SciTegic.value.DoubleValue
44.843

@<SCITEGIC>MOL_PROPERTY
VdW
SciTegic.value.DoubleValue
0.499

@<SCITEGIC>MOL_PROPERTY
VdW6
SciTegic.value.DoubleValue
-5.218

@<SCITEGIC>MOL_PROPERTY
VdW12
SciTegic.value.DoubleValue
5.717

@<SCITEGIC>MOL_PROPERTY
Bond
SciTegic.value.DoubleValue
0.135

@<SCITEGIC>MOL_PROPERTY
Angle
SciTegic.value.DoubleValue
0.514

@<SCITEGIC>MOL_PROPERTY
Pdih
SciTegic.value.DoubleValue
1.383

@<SCITEGIC>MOL_PROPERTY
Idih
SciTegic.value.DoubleValue
0.000

@<SCITEGIC>MOL_PROPERTY
Tether
SciTegic.value.DoubleValue
0.000

@<TRIPOS>MOLECULE
guest-2_confgen4.mol2 : confsearch ligand conformer 21
          23          22           1
SMALL
USER_CHARGES
 
@<TRIPOS>ATOM
       1    N1      18.218561   19.512349   19.890283 N.4        1 MOL1        -0.5940
       2    H1      19.051165   19.888013   19.425224 H          1 MOL1         0.3649
       3    H2      17.408993   19.794474   19.327297 H          1 MOL1         0.3649
       4    H3      18.277505   18.490968   19.838246 H          1 MOL1         0.3649
       5    C1      18.104899   19.998483   21.322184 C.3        1 MOL1         0.0207
       6    H4      17.188782   19.583231   21.750805 H          1 MOL1         0.0950
       7    H5      18.004437   21.086916   21.294049 H          1 MOL1         0.0950
       8    C2      19.309322   19.620894   22.206505 C.3        1 MOL1        -0.1415
       9    H6      20.231362   20.015431   21.759477 H          1 MOL1         0.0976
      10    H7      19.183549   20.120417   23.174893 H          1 MOL1         0.0976
      11    C3      19.434095   18.093699   22.427664 C.3        1 MOL1        -0.1375
      12    H8      19.455100   17.584302   21.455344 H          1 MOL1         0.0976
      13    H9      18.537116   17.726647   22.945454 H          1 MOL1         0.0976
      14    C4      20.696913   17.663199   23.218246 C.3        1 MOL1        -0.1375
      15    H10     20.695179   16.565584   23.270428 H          1 MOL1         0.0976
      16    H11     21.602978   17.930197   22.657012 H          1 MOL1         0.0976
      17    C5      20.780475   18.213980   24.665346 C.3        1 MOL1        -0.1350
      18    H12     21.237079   17.446595   25.306130 H          1 MOL1         0.0976
      19    H13     19.772498   18.383016   25.069089 H          1 MOL1         0.0976
      20    C6      21.630783   19.500492   24.784195 C.3        1 MOL1        -0.2365
      21    H14     22.661809   19.320157   24.453253 H          1 MOL1         0.0987
      22    H15     21.671054   19.839012   25.827601 H          1 MOL1         0.0987
      23    H16     21.223603   20.321768   24.184338 H          1 MOL1         0.0987
@<TRIPOS>BOND
    1     1     2    1
    2     1     3    1
    3     1     4    1
    4     1     5    1
    5     5     6    1
    6     5     7    1
    7     5     8    1
    8     8     9    1
    9     8    10    1
   10     8    11    1
   11    11    12    1
   12    11    13    1
   13    11    14    1
   14    14    15    1
   15    14    16    1
   16    14    17    1
   17    17    18    1
   18    17    19    1
   19    17    20    1
   20    20    21    1
   21    20    22    1
   22    20    23    1
@<TRIPOS>SUBSTRUCTURE
       1 MOL1            1 RESIDUE      1      MOL     
@<SCITEGIC>MOL_PROPERTY
VConf Rank
SciTegic.value.IntegerValue
21

@<SCITEGIC>MOL_PROPERTY
Conf_Id
SciTegic.value.IntegerValue
3

@<SCITEGIC>MOL_PROPERTY
Delta U+W
SciTegic.value.DoubleValue
3.283

@<SCITEGIC>MOL_PROPERTY
U+W
SciTegic.value.DoubleValue
-5.099

@<SCITEGIC>MOL_PROPERTY
Grad RMS
SciTegic.value.DoubleValue
0.000000

@<SCITEGIC>MOL_PROPERTY
U
SciTegic.value.DoubleValue
50.701

@<SCITEGIC>MOL_PROPERTY
W
SciTegic.value.DoubleValue
-55.800

@<SCITEGIC>MOL_PROPERTY
W(PB)
SciTegic.value.DoubleValue
-57.867

@<SCITEGIC>MOL_PROPERTY
W(SA)
SciTegic.value.DoubleValue
2.067

@<SCITEGIC>MOL_PROPERTY
Valence
SciTegic.value.DoubleValue
4.880

@<SCITEGIC>MOL_PROPERTY
Coulomb
SciTegic.value.DoubleValue
45.095

@<SCITEGIC>MOL_PROPERTY
VdW
SciTegic.value.DoubleValue
0.726

@<SCITEGIC>MOL_PROPERTY
VdW6
SciTegic.value.DoubleValue
-6.620

@<SCITEGIC>MOL_PROPERTY
VdW12
SciTegic.value.DoubleValue
7.346

@<SCITEGIC>MOL_PROPERTY
Bond
SciTegic.value.DoubleValue
0.222

@<SCITEGIC>MOL_PROPERTY
Angle
SciTegic.value.DoubleValue
1.260

@<SCITEGIC>MOL_PROPERTY
Pdih
SciTegic.value.DoubleValue
3.398

@<SCITEGIC>MOL_PROPERTY
Idih
SciTegic.value.DoubleValue
0.000

@<SCITEGIC>MOL_PROPERTY
Tether
SciTegic.value.DoubleValue
0.000

@<TRIPOS>MOLECULE
guest-2_confgen4.mol2 : confsearch ligand conformer 22
          23          22           1
SMALL
USER_CHARGES
 
@<TRIPOS>ATOM
       1    N1      20.521231   16.288010   23.057133 N.4        1 MOL1        -0.5940
       2    H1      20.632743   16.058226   24.049765 H          1 MOL1         0.3649
       3    H2      20.666495   15.419847   22.530801 H          1 MOL1         0.3649
       4    H3      19.544693   16.564627   22.917647 H          1 MOL1         0.3649
       5    C1      21.479446   17.378665   22.620567 C.3        1 MOL1         0.0207
       6    H4      21.330886   17.552901   21.551894 H          1 MOL1         0.0950
       7    H5      22.496792   17.004496   22.763860 H          1 MOL1         0.0950
       8    C2      21.307795   18.701487   23.395133 C.3        1 MOL1        -0.1415
       9    H6      21.510417   18.521748   24.459295 H          1 MOL1         0.0976
      10    H7      22.073247   19.411217   23.054213 H          1 MOL1         0.0976
      11    C3      19.907956   19.348956   23.243869 C.3        1 MOL1        -0.1375
      12    H8      19.883649   20.254365   23.863965 H          1 MOL1         0.0976
      13    H9      19.139746   18.678653   23.651663 H          1 MOL1         0.0976
      14    C4      19.560386   19.715257   21.778452 C.3        1 MOL1        -0.1375
      15    H10     20.315068   20.407826   21.380994 H          1 MOL1         0.0976
      16    H11     19.608134   18.814357   21.152790 H          1 MOL1         0.0976
      17    C5      18.152450   20.338106   21.616522 C.3        1 MOL1        -0.1350
      18    H12     17.392146   19.644856   22.002615 H          1 MOL1         0.0976
      19    H13     17.942183   20.457931   20.544471 H          1 MOL1         0.0976
      20    C6      18.002494   21.712432   22.307961 C.3        1 MOL1        -0.2365
      21    H14     18.772901   22.414269   21.963136 H          1 MOL1         0.0987
      22    H15     18.078421   21.626393   23.398869 H          1 MOL1         0.0987
      23    H16     17.022680   22.151740   22.080132 H          1 MOL1         0.0987
@<TRIPOS>BOND
    1     1     2    1
    2     1     3    1
    3     1     4    1
    4     1     5    1
    5     5     6    1
    6     5     7    1
    7     5     8    1
    8     8     9    1
    9     8    10    1
   10     8    11    1
   11    11    12    1
   12    11    13    1
   13    11    14    1
   14    14    15    1
   15    14    16    1
   16    14    17    1
   17    17    18    1
   18    17    19    1
   19    17    20    1
   20    20    21    1
   21    20    22    1
   22    20    23    1
@<TRIPOS>SUBSTRUCTURE
       1 MOL1            1 RESIDUE      1      MOL     
@<SCITEGIC>MOL_PROPERTY
VConf Rank
SciTegic.value.IntegerValue
22

@<SCITEGIC>MOL_PROPERTY
Conf_Id
SciTegic.value.IntegerValue
83

@<SCITEGIC>MOL_PROPERTY
Delta U+W
SciTegic.value.DoubleValue
1.229

@<SCITEGIC>MOL_PROPERTY
U+W
SciTegic.value.DoubleValue
-7.154

@<SCITEGIC>MOL_PROPERTY
Grad RMS
SciTegic.value.DoubleValue
0.000000

@<SCITEGIC>MOL_PROPERTY
U
SciTegic.value.DoubleValue
48.727

@<SCITEGIC>MOL_PROPERTY
W
SciTegic.value.DoubleValue
-55.880

@<SCITEGIC>MOL_PROPERTY
W(PB)
SciTegic.value.DoubleValue
-57.960

@<SCITEGIC>MOL_PROPERTY
W(SA)
SciTegic.value.DoubleValue
2.080

@<SCITEGIC>MOL_PROPERTY
Valence
SciTegic.value.DoubleValue
2.671

@<SCITEGIC>MOL_PROPERTY
Coulomb
SciTegic.value.DoubleValue
45.371

@<SCITEGIC>MOL_PROPERTY
VdW
SciTegic.value.DoubleValue
0.684

@<SCITEGIC>MOL_PROPERTY
VdW6
SciTegic.value.DoubleValue
-6.511

@<SCITEGIC>MOL_PROPERTY
VdW12
SciTegic.value.DoubleValue
7.195

@<SCITEGIC>MOL_PROPERTY
Bond
SciTegic.value.DoubleValue
0.203

@<SCITEGIC>MOL_PROPERTY
Angle
SciTegic.value.DoubleValue
0.915

@<SCITEGIC>MOL_PROPERTY
Pdih
SciTegic.value.DoubleValue
1.554

@<SCITEGIC>MOL_PROPERTY
Idih
SciTegic.value.DoubleValue
0.000

@<SCITEGIC>MOL_PROPERTY
Tether
SciTegic.value.DoubleValue
0.000

@<TRIPOS>MOLECULE
guest-2_confgen4.mol2 : confsearch ligand conformer 23
          23          22           1
SMALL
USER_CHARGES
 
@<TRIPOS>ATOM
       1    N1      20.662308   20.144257   20.065541 N.4        1 MOL1        -0.5940
       2    H1      20.213630   21.031491   19.816428 H          1 MOL1         0.3649
       3    H2      19.929394   19.428675   20.085094 H          1 MOL1         0.3649
       4    H3      21.297491   19.903938   19.297020 H          1 MOL1         0.3649
       5    C1      21.391292   20.234793   21.391693 C.3        1 MOL1         0.0207
       6    H4      22.176931   20.988229   21.288586 H          1 MOL1         0.0950
       7    H5      21.870266   19.271011   21.581947 H          1 MOL1         0.0950
       8    C2      20.477851   20.608119   22.577245 C.3        1 MOL1        -0.1415
       9    H6      21.094775   20.704519   23.480556 H          1 MOL1         0.0976
      10    H7      20.044473   21.600687   22.396148 H          1 MOL1         0.0976
      11    C3      19.337169   19.593597   22.844148 C.3        1 MOL1        -0.1375
      12    H8      18.668752   19.544921   21.974322 H          1 MOL1         0.0976
      13    H9      18.730008   19.975883   23.674863 H          1 MOL1         0.0976
      14    C4      19.852508   18.173287   23.189947 C.3        1 MOL1        -0.1375
      15    H10     20.479912   17.799808   22.370050 H          1 MOL1         0.0976
      16    H11     20.498935   18.219817   24.077155 H          1 MOL1         0.0976
      17    C5      18.717918   17.148197   23.431480 C.3        1 MOL1        -0.1350
      18    H12     19.164641   16.151443   23.553065 H          1 MOL1         0.0976
      19    H13     18.074033   17.089431   22.542838 H          1 MOL1         0.0976
      20    C6      17.858090   17.461613   24.677197 C.3        1 MOL1        -0.2365
      21    H14     18.483100   17.558305   25.574427 H          1 MOL1         0.0987
      22    H15     17.135400   16.655276   24.857402 H          1 MOL1         0.0987
      23    H16     17.289062   18.391016   24.552057 H          1 MOL1         0.0987
@<TRIPOS>BOND
    1     1     2    1
    2     1     3    1
    3     1     4    1
    4     1     5    1
    5     5     6    1
    6     5     7    1
    7     5     8    1
    8     8     9    1
    9     8    10    1
   10     8    11    1
   11    11    12    1
   12    11    13    1
   13    11    14    1
   14    14    15    1
   15    14    16    1
   16    14    17    1
   17    17    18    1
   18    17    19    1
   19    17    20    1
   20    20    21    1
   21    20    22    1
   22    20    23    1
@<TRIPOS>SUBSTRUCTURE
       1 MOL1            1 RESIDUE      1      MOL     
@<SCITEGIC>MOL_PROPERTY
VConf Rank
SciTegic.value.IntegerValue
23

@<SCITEGIC>MOL_PROPERTY
Conf_Id
SciTegic.value.IntegerValue
50

@<SCITEGIC>MOL_PROPERTY
Delta U+W
SciTegic.value.DoubleValue
1.252

@<SCITEGIC>MOL_PROPERTY
U+W
SciTegic.value.DoubleValue
-7.130

@<SCITEGIC>MOL_PROPERTY
Grad RMS
SciTegic.value.DoubleValue
0.000000

@<SCITEGIC>MOL_PROPERTY
U
SciTegic.value.DoubleValue
48.727

@<SCITEGIC>MOL_PROPERTY
W
SciTegic.value.DoubleValue
-55.857

@<SCITEGIC>MOL_PROPERTY
W(PB)
SciTegic.value.DoubleValue
-57.937

@<SCITEGIC>MOL_PROPERTY
W(SA)
SciTegic.value.DoubleValue
2.080

@<SCITEGIC>MOL_PROPERTY
Valence
SciTegic.value.DoubleValue
2.671

@<SCITEGIC>MOL_PROPERTY
Coulomb
SciTegic.value.DoubleValue
45.371

@<SCITEGIC>MOL_PROPERTY
VdW
SciTegic.value.DoubleValue
0.684

@<SCITEGIC>MOL_PROPERTY
VdW6
SciTegic.value.DoubleValue
-6.511

@<SCITEGIC>MOL_PROPERTY
VdW12
SciTegic.value.DoubleValue
7.196

@<SCITEGIC>MOL_PROPERTY
Bond
SciTegic.value.DoubleValue
0.203

@<SCITEGIC>MOL_PROPERTY
Angle
SciTegic.value.DoubleValue
0.915

@<SCITEGIC>MOL_PROPERTY
Pdih
SciTegic.value.DoubleValue
1.554

@<SCITEGIC>MOL_PROPERTY
Idih
SciTegic.value.DoubleValue
0.000

@<SCITEGIC>MOL_PROPERTY
Tether
SciTegic.value.DoubleValue
0.000

@<TRIPOS>MOLECULE
guest-2_confgen4.mol2 : confsearch ligand conformer 24
          23          22           1
SMALL
USER_CHARGES
 
@<TRIPOS>ATOM
       1    N1      17.319884   18.056904   24.367946 N.4        1 MOL1        -0.5940
       2    H1      17.068214   19.027390   24.157348 H          1 MOL1         0.3649
       3    H2      16.957733   17.850142   25.304975 H          1 MOL1         0.3649
       4    H3      16.806153   17.461016   23.710966 H          1 MOL1         0.3649
       5    C1      18.816925   17.832081   24.280973 C.3        1 MOL1         0.0207
       6    H4      19.012294   16.792207   24.556773 H          1 MOL1         0.0950
       7    H5      19.300424   18.476805   25.019872 H          1 MOL1         0.0950
       8    C2      19.408015   18.109684   22.885155 C.3        1 MOL1        -0.1415
       9    H6      20.463436   17.815323   22.895291 H          1 MOL1         0.0976
      10    H7      18.915785   17.463722   22.146094 H          1 MOL1         0.0976
      11    C3      19.268921   19.594441   22.462278 C.3        1 MOL1        -0.1375
      12    H8      19.674604   20.253884   23.241966 H          1 MOL1         0.0976
      13    H9      18.200524   19.836210   22.384414 H          1 MOL1         0.0976
      14    C4      19.936656   19.910834   21.098412 C.3        1 MOL1        -0.1375
      15    H10     19.925251   19.022116   20.452469 H          1 MOL1         0.0976
      16    H11     19.320805   20.659729   20.581329 H          1 MOL1         0.0976
      17    C5      21.375358   20.479621   21.197537 C.3        1 MOL1        -0.1350
      18    H12     21.360230   21.423601   21.760073 H          1 MOL1         0.0976
      19    H13     21.719726   20.734699   20.185529 H          1 MOL1         0.0976
      20    C6      22.397940   19.517104   21.840125 C.3        1 MOL1        -0.2365
      21    H14     22.395392   18.542013   21.336115 H          1 MOL1         0.0987
      22    H15     22.184785   19.361803   22.904888 H          1 MOL1         0.0987
      23    H16     23.412183   19.930318   21.766267 H          1 MOL1         0.0987
@<TRIPOS>BOND
    1     1     2    1
    2     1     3    1
    3     1     4    1
    4     1     5    1
    5     5     6    1
    6     5     7    1
    7     5     8    1
    8     8     9    1
    9     8    10    1
   10     8    11    1
   11    11    12    1
   12    11    13    1
   13    11    14    1
   14    14    15    1
   15    14    16    1
   16    14    17    1
   17    17    18    1
   18    17    19    1
   19    17    20    1
   20    20    21    1
   21    20    22    1
   22    20    23    1
@<TRIPOS>SUBSTRUCTURE
       1 MOL1            1 RESIDUE      1      MOL     
@<SCITEGIC>MOL_PROPERTY
VConf Rank
SciTegic.value.IntegerValue
24

@<SCITEGIC>MOL_PROPERTY
Conf_Id
SciTegic.value.IntegerValue
55

@<SCITEGIC>MOL_PROPERTY
Delta U+W
SciTegic.value.DoubleValue
3.232

@<SCITEGIC>MOL_PROPERTY
U+W
SciTegic.value.DoubleValue
-5.150

@<SCITEGIC>MOL_PROPERTY
Grad RMS
SciTegic.value.DoubleValue
0.000000

@<SCITEGIC>MOL_PROPERTY
U
SciTegic.value.DoubleValue
50.625

@<SCITEGIC>MOL_PROPERTY
W
SciTegic.value.DoubleValue
-55.776

@<SCITEGIC>MOL_PROPERTY
W(PB)
SciTegic.value.DoubleValue
-57.839

@<SCITEGIC>MOL_PROPERTY
W(SA)
SciTegic.value.DoubleValue
2.064

@<SCITEGIC>MOL_PROPERTY
Valence
SciTegic.value.DoubleValue
4.837

@<SCITEGIC>MOL_PROPERTY
Coulomb
SciTegic.value.DoubleValue
45.097

@<SCITEGIC>MOL_PROPERTY
VdW
SciTegic.value.DoubleValue
0.692

@<SCITEGIC>MOL_PROPERTY
VdW6
SciTegic.value.DoubleValue
-6.655

@<SCITEGIC>MOL_PROPERTY
VdW12
SciTegic.value.DoubleValue
7.347

@<SCITEGIC>MOL_PROPERTY
Bond
SciTegic.value.DoubleValue
0.223

@<SCITEGIC>MOL_PROPERTY
Angle
SciTegic.value.DoubleValue
1.167

@<SCITEGIC>MOL_PROPERTY
Pdih
SciTegic.value.DoubleValue
3.447

@<SCITEGIC>MOL_PROPERTY
Idih
SciTegic.value.DoubleValue
0.000

@<SCITEGIC>MOL_PROPERTY
Tether
SciTegic.value.DoubleValue
0.000

@<TRIPOS>MOLECULE
guest-2_confgen4.mol2 : confsearch ligand conformer 25
          23          22           1
SMALL
USER_CHARGES
 
@<TRIPOS>ATOM
       1    N1      18.501716   16.218691   23.008518 N.4        1 MOL1        -0.5940
       2    H1      18.970726   15.455645   23.507134 H          1 MOL1         0.3649
       3    H2      17.950290   15.789090   22.257938 H          1 MOL1         0.3649
       4    H3      17.835816   16.641796   23.662977 H          1 MOL1         0.3649
       5    C1      19.489727   17.233982   22.471242 C.3        1 MOL1         0.0207
       6    H4      18.925147   17.991768   21.925027 H          1 MOL1         0.0950
       7    H5      20.146066   16.721643   21.762632 H          1 MOL1         0.0950
       8    C2      20.338561   17.891980   23.576821 C.3        1 MOL1        -0.1415
       9    H6      19.690181   18.371583   24.322104 H          1 MOL1         0.0976
      10    H7      20.883609   17.098328   24.105082 H          1 MOL1         0.0976
      11    C3      21.366041   18.913886   23.027771 C.3        1 MOL1        -0.1375
      12    H8      21.781673   18.555298   22.075790 H          1 MOL1         0.0976
      13    H9      22.214043   18.953875   23.725476 H          1 MOL1         0.0976
      14    C4      20.827881   20.359211   22.863784 C.3        1 MOL1        -0.1375
      15    H10     20.511540   20.745184   23.842684 H          1 MOL1         0.0976
      16    H11     21.660406   20.998790   22.539313 H          1 MOL1         0.0976
      17    C5      19.664322   20.502821   21.855811 C.3        1 MOL1        -0.1350
      18    H12     18.770136   19.996991   22.242441 H          1 MOL1         0.0976
      19    H13     19.929692   20.016784   20.906588 H          1 MOL1         0.0976
      20    C6      19.318272   21.984029   21.593222 C.3        1 MOL1        -0.2365
      21    H14     20.175891   22.521079   21.167452 H          1 MOL1         0.0987
      22    H15     19.023920   22.490943   22.521471 H          1 MOL1         0.0987
      23    H16     18.483981   22.067390   20.884675 H          1 MOL1         0.0987
@<TRIPOS>BOND
    1     1     2    1
    2     1     3    1
    3     1     4    1
    4     1     5    1
    5     5     6    1
    6     5     7    1
    7     5     8    1
    8     8     9    1
    9     8    10    1
   10     8    11    1
   11    11    12    1
   12    11    13    1
   13    11    14    1
   14    14    15    1
   15    14    16    1
   16    14    17    1
   17    17    18    1
   18    17    19    1
   19    17    20    1
   20    20    21    1
   21    20    22    1
   22    20    23    1
@<TRIPOS>SUBSTRUCTURE
       1 MOL1            1 RESIDUE      1      MOL     
@<SCITEGIC>MOL_PROPERTY
VConf Rank
SciTegic.value.IntegerValue
25

@<SCITEGIC>MOL_PROPERTY
Conf_Id
SciTegic.value.IntegerValue
93

@<SCITEGIC>MOL_PROPERTY
Delta U+W
SciTegic.value.DoubleValue
2.589

@<SCITEGIC>MOL_PROPERTY
U+W
SciTegic.value.DoubleValue
-5.793

@<SCITEGIC>MOL_PROPERTY
Grad RMS
SciTegic.value.DoubleValue
0.000000

@<SCITEGIC>MOL_PROPERTY
U
SciTegic.value.DoubleValue
50.122

@<SCITEGIC>MOL_PROPERTY
W
SciTegic.value.DoubleValue
-55.915

@<SCITEGIC>MOL_PROPERTY
W(PB)
SciTegic.value.DoubleValue
-58.031

@<SCITEGIC>MOL_PROPERTY
W(SA)
SciTegic.value.DoubleValue
2.115

@<SCITEGIC>MOL_PROPERTY
Valence
SciTegic.value.DoubleValue
4.132

@<SCITEGIC>MOL_PROPERTY
Coulomb
SciTegic.value.DoubleValue
45.536

@<SCITEGIC>MOL_PROPERTY
VdW
SciTegic.value.DoubleValue
0.454

@<SCITEGIC>MOL_PROPERTY
VdW6
SciTegic.value.DoubleValue
-6.262

@<SCITEGIC>MOL_PROPERTY
VdW12
SciTegic.value.DoubleValue
6.715

@<SCITEGIC>MOL_PROPERTY
Bond
SciTegic.value.DoubleValue
0.182

@<SCITEGIC>MOL_PROPERTY
Angle
SciTegic.value.DoubleValue
1.157

@<SCITEGIC>MOL_PROPERTY
Pdih
SciTegic.value.DoubleValue
2.794

@<SCITEGIC>MOL_PROPERTY
Idih
SciTegic.value.DoubleValue
0.000

@<SCITEGIC>MOL_PROPERTY
Tether
SciTegic.value.DoubleValue
0.000

@<TRIPOS>MOLECULE
guest-2_confgen4.mol2 : confsearch ligand conformer 26
          23          22           1
SMALL
USER_CHARGES
 
@<TRIPOS>ATOM
       1    N1      18.229762   17.347957   20.352619 N.4        1 MOL1        -0.5940
       2    H1      18.510997   16.474031   20.808596 H          1 MOL1         0.3649
       3    H2      18.601359   17.318887   19.397072 H          1 MOL1         0.3649
       4    H3      17.207737   17.331919   20.274925 H          1 MOL1         0.3649
       5    C1      18.719763   18.564835   21.110744 C.3        1 MOL1         0.0207
       6    H4      18.410160   19.454036   20.554986 H          1 MOL1         0.0950
       7    H5      19.810744   18.533602   21.121902 H          1 MOL1         0.0950
       8    C2      18.171425   18.639429   22.549337 C.3        1 MOL1        -0.1415
       9    H6      17.074828   18.662128   22.494747 H          1 MOL1         0.0976
      10    H7      18.435232   17.730710   23.106561 H          1 MOL1         0.0976
      11    C3      18.652484   19.895298   23.319297 C.3        1 MOL1        -0.1375
      12    H8      17.891621   20.147141   24.071069 H          1 MOL1         0.0976
      13    H9      18.696615   20.758728   22.640958 H          1 MOL1         0.0976
      14    C4      20.004675   19.730219   24.060783 C.3        1 MOL1        -0.1375
      15    H10     20.201280   20.654147   24.622161 H          1 MOL1         0.0976
      16    H11     19.915822   18.931937   24.810544 H          1 MOL1         0.0976
      17    C5      21.212239   19.437213   23.140762 C.3        1 MOL1        -0.1350
      18    H12     21.241836   20.166209   22.318955 H          1 MOL1         0.0976
      19    H13     21.106166   18.441900   22.690188 H          1 MOL1         0.0976
      20    C6      22.545112   19.487348   23.917691 C.3        1 MOL1        -0.2365
      21    H14     23.389979   19.266487   23.252523 H          1 MOL1         0.0987
      22    H15     22.555372   18.750500   24.731447 H          1 MOL1         0.0987
      23    H16     22.711490   20.480940   24.353933 H          1 MOL1         0.0987
@<TRIPOS>BOND
    1     1     2    1
    2     1     3    1
    3     1     4    1
    4     1     5    1
    5     5     6    1
    6     5     7    1
    7     5     8    1
    8     8     9    1
    9     8    10    1
   10     8    11    1
   11    11    12    1
   12    11    13    1
   13    11    14    1
   14    14    15    1
   15    14    16    1
   16    14    17    1
   17    17    18    1
   18    17    19    1
   19    17    20    1
   20    20    21    1
   21    20    22    1
   22    20    23    1
@<TRIPOS>SUBSTRUCTURE
       1 MOL1            1 RESIDUE      1      MOL     
@<SCITEGIC>MOL_PROPERTY
VConf Rank
SciTegic.value.IntegerValue
26

@<SCITEGIC>MOL_PROPERTY
Conf_Id
SciTegic.value.IntegerValue
70

@<SCITEGIC>MOL_PROPERTY
Delta U+W
SciTegic.value.DoubleValue
2.599

@<SCITEGIC>MOL_PROPERTY
U+W
SciTegic.value.DoubleValue
-5.783

@<SCITEGIC>MOL_PROPERTY
Grad RMS
SciTegic.value.DoubleValue
0.000000

@<SCITEGIC>MOL_PROPERTY
U
SciTegic.value.DoubleValue
50.122

@<SCITEGIC>MOL_PROPERTY
W
SciTegic.value.DoubleValue
-55.906

@<SCITEGIC>MOL_PROPERTY
W(PB)
SciTegic.value.DoubleValue
-58.010

@<SCITEGIC>MOL_PROPERTY
W(SA)
SciTegic.value.DoubleValue
2.105

@<SCITEGIC>MOL_PROPERTY
Valence
SciTegic.value.DoubleValue
4.132

@<SCITEGIC>MOL_PROPERTY
Coulomb
SciTegic.value.DoubleValue
45.536

@<SCITEGIC>MOL_PROPERTY
VdW
SciTegic.value.DoubleValue
0.454

@<SCITEGIC>MOL_PROPERTY
VdW6
SciTegic.value.DoubleValue
-6.262

@<SCITEGIC>MOL_PROPERTY
VdW12
SciTegic.value.DoubleValue
6.715

@<SCITEGIC>MOL_PROPERTY
Bond
SciTegic.value.DoubleValue
0.182

@<SCITEGIC>MOL_PROPERTY
Angle
SciTegic.value.DoubleValue
1.157

@<SCITEGIC>MOL_PROPERTY
Pdih
SciTegic.value.DoubleValue
2.794

@<SCITEGIC>MOL_PROPERTY
Idih
SciTegic.value.DoubleValue
0.000

@<SCITEGIC>MOL_PROPERTY
Tether
SciTegic.value.DoubleValue
0.000

@<TRIPOS>MOLECULE
guest-2_confgen4.mol2 : confsearch ligand conformer 27
          23          22           1
SMALL
USER_CHARGES
 
@<TRIPOS>ATOM
       1    N1      21.189543   17.641369   20.493664 N.4        1 MOL1        -0.5940
       2    H1      22.160437   17.827730   20.223215 H          1 MOL1         0.3649
       3    H2      20.779657   17.059351   19.755414 H          1 MOL1         0.3649
       4    H3      21.216239   17.073034   21.345573 H          1 MOL1         0.3649
       5    C1      20.407140   18.923246   20.700724 C.3        1 MOL1         0.0207
       6    H4      19.377567   18.655902   20.952621 H          1 MOL1         0.0950
       7    H5      20.394894   19.463259   19.750076 H          1 MOL1         0.0950
       8    C2      20.991925   19.833440   21.799521 C.3        1 MOL1        -0.1415
       9    H6      22.013210   20.123591   21.519336 H          1 MOL1         0.0976
      10    H7      20.414571   20.766220   21.831169 H          1 MOL1         0.0976
      11    C3      21.014779   19.185234   23.208886 C.3        1 MOL1        -0.1375
      12    H8      21.407270   19.916817   23.928567 H          1 MOL1         0.0976
      13    H9      21.730773   18.352426   23.212738 H          1 MOL1         0.0976
      14    C4      19.642312   18.667343   23.711802 C.3        1 MOL1        -0.1375
      15    H10     19.277733   17.866526   23.054790 H          1 MOL1         0.0976
      16    H11     19.786818   18.206374   24.698698 H          1 MOL1         0.0976
      17    C5      18.568629   19.774897   23.827659 C.3        1 MOL1        -0.1350
      18    H12     18.356493   20.201881   22.838406 H          1 MOL1         0.0976
      19    H13     18.947237   20.594519   24.454227 H          1 MOL1         0.0976
      20    C6      17.255293   19.233549   24.431374 C.3        1 MOL1        -0.2365
      21    H14     16.504432   20.031014   24.503991 H          1 MOL1         0.0987
      22    H15     17.419642   18.833211   25.440290 H          1 MOL1         0.0987
      23    H16     16.836220   18.431825   23.809425 H          1 MOL1         0.0987
@<TRIPOS>BOND
    1     1     2    1
    2     1     3    1
    3     1     4    1
    4     1     5    1
    5     5     6    1
    6     5     7    1
    7     5     8    1
    8     8     9    1
    9     8    10    1
   10     8    11    1
   11    11    12    1
   12    11    13    1
   13    11    14    1
   14    14    15    1
   15    14    16    1
   16    14    17    1
   17    17    18    1
   18    17    19    1
   19    17    20    1
   20    20    21    1
   21    20    22    1
   22    20    23    1
@<TRIPOS>SUBSTRUCTURE
       1 MOL1            1 RESIDUE      1      MOL     
@<SCITEGIC>MOL_PROPERTY
VConf Rank
SciTegic.value.IntegerValue
27

@<SCITEGIC>MOL_PROPERTY
Conf_Id
SciTegic.value.IntegerValue
72

@<SCITEGIC>MOL_PROPERTY
Delta U+W
SciTegic.value.DoubleValue
1.051

@<SCITEGIC>MOL_PROPERTY
U+W
SciTegic.value.DoubleValue
-7.331

@<SCITEGIC>MOL_PROPERTY
Grad RMS
SciTegic.value.DoubleValue
0.000000

@<SCITEGIC>MOL_PROPERTY
U
SciTegic.value.DoubleValue
48.590

@<SCITEGIC>MOL_PROPERTY
W
SciTegic.value.DoubleValue
-55.922

@<SCITEGIC>MOL_PROPERTY
W(PB)
SciTegic.value.DoubleValue
-58.012

@<SCITEGIC>MOL_PROPERTY
W(SA)
SciTegic.value.DoubleValue
2.090

@<SCITEGIC>MOL_PROPERTY
Valence
SciTegic.value.DoubleValue
2.601

@<SCITEGIC>MOL_PROPERTY
Coulomb
SciTegic.value.DoubleValue
45.520

@<SCITEGIC>MOL_PROPERTY
VdW
SciTegic.value.DoubleValue
0.469

@<SCITEGIC>MOL_PROPERTY
VdW6
SciTegic.value.DoubleValue
-6.867

@<SCITEGIC>MOL_PROPERTY
VdW12
SciTegic.value.DoubleValue
7.336

@<SCITEGIC>MOL_PROPERTY
Bond
SciTegic.value.DoubleValue
0.205

@<SCITEGIC>MOL_PROPERTY
Angle
SciTegic.value.DoubleValue
0.962

@<SCITEGIC>MOL_PROPERTY
Pdih
SciTegic.value.DoubleValue
1.434

@<SCITEGIC>MOL_PROPERTY
Idih
SciTegic.value.DoubleValue
0.000

@<SCITEGIC>MOL_PROPERTY
Tether
SciTegic.value.DoubleValue
0.000

@<TRIPOS>MOLECULE
guest-2_confgen4.mol2 : confsearch ligand conformer 28
          23          22           1
SMALL
USER_CHARGES
 
@<TRIPOS>ATOM
       1    N1      19.497387   17.667686   25.453919 N.4        1 MOL1        -0.5940
       2    H1      19.536617   16.681807   25.734026 H          1 MOL1         0.3649
       3    H2      18.835238   18.130237   26.085099 H          1 MOL1         0.3649
       4    H3      20.422310   18.067848   25.641134 H          1 MOL1         0.3649
       5    C1      19.096620   17.824484   24.001184 C.3        1 MOL1         0.0207
       6    H4      18.119296   17.353027   23.867330 H          1 MOL1         0.0950
       7    H5      19.825706   17.284542   23.391405 H          1 MOL1         0.0950
       8    C2      19.028573   19.294985   23.548619 C.3        1 MOL1        -0.1415
       9    H6      18.321735   19.836323   24.191317 H          1 MOL1         0.0976
      10    H7      20.005675   19.772873   23.694656 H          1 MOL1         0.0976
      11    C3      18.580019   19.446267   22.073839 C.3        1 MOL1        -0.1375
      12    H8      18.530366   20.513863   21.821406 H          1 MOL1         0.0976
      13    H9      17.551967   19.071081   21.975569 H          1 MOL1         0.0976
      14    C4      19.476143   18.710080   21.041487 C.3        1 MOL1        -0.1375
      15    H10     19.392855   17.625568   21.193802 H          1 MOL1         0.0976
      16    H11     19.077737   18.897623   20.034874 H          1 MOL1         0.0976
      17    C5      20.974315   19.106332   21.067639 C.3        1 MOL1        -0.1350
      18    H12     21.505985   18.515596   20.308660 H          1 MOL1         0.0976
      19    H13     21.423318   18.830962   22.031321 H          1 MOL1         0.0976
      20    C6      21.216292   20.607101   20.788971 C.3        1 MOL1        -0.2365
      21    H14     20.764665   20.908873   19.835081 H          1 MOL1         0.0987
      22    H15     22.291763   20.819532   20.733495 H          1 MOL1         0.0987
      23    H16     20.795581   21.236653   21.582838 H          1 MOL1         0.0987
@<TRIPOS>BOND
    1     1     2    1
    2     1     3    1
    3     1     4    1
    4     1     5    1
    5     5     6    1
    6     5     7    1
    7     5     8    1
    8     8     9    1
    9     8    10    1
   10     8    11    1
   11    11    12    1
   12    11    13    1
   13    11    14    1
   14    14    15    1
   15    14    16    1
   16    14    17    1
   17    17    18    1
   18    17    19    1
   19    17    20    1
   20    20    21    1
   21    20    22    1
   22    20    23    1
@<TRIPOS>SUBSTRUCTURE
       1 MOL1            1 RESIDUE      1      MOL     
@<SCITEGIC>MOL_PROPERTY
VConf Rank
SciTegic.value.IntegerValue
28

@<SCITEGIC>MOL_PROPERTY
Conf_Id
SciTegic.value.IntegerValue
26

@<SCITEGIC>MOL_PROPERTY
Delta U+W
SciTegic.value.DoubleValue
1.076

@<SCITEGIC>MOL_PROPERTY
U+W
SciTegic.value.DoubleValue
-7.306

@<SCITEGIC>MOL_PROPERTY
Grad RMS
SciTegic.value.DoubleValue
0.000000

@<SCITEGIC>MOL_PROPERTY
U
SciTegic.value.DoubleValue
48.641

@<SCITEGIC>MOL_PROPERTY
W
SciTegic.value.DoubleValue
-55.947

@<SCITEGIC>MOL_PROPERTY
W(PB)
SciTegic.value.DoubleValue
-58.031

@<SCITEGIC>MOL_PROPERTY
W(SA)
SciTegic.value.DoubleValue
2.084

@<SCITEGIC>MOL_PROPERTY
Valence
SciTegic.value.DoubleValue
2.922

@<SCITEGIC>MOL_PROPERTY
Coulomb
SciTegic.value.DoubleValue
45.269

@<SCITEGIC>MOL_PROPERTY
VdW
SciTegic.value.DoubleValue
0.449

@<SCITEGIC>MOL_PROPERTY
VdW6
SciTegic.value.DoubleValue
-7.045

@<SCITEGIC>MOL_PROPERTY
VdW12
SciTegic.value.DoubleValue
7.494

@<SCITEGIC>MOL_PROPERTY
Bond
SciTegic.value.DoubleValue
0.220

@<SCITEGIC>MOL_PROPERTY
Angle
SciTegic.value.DoubleValue
1.205

@<SCITEGIC>MOL_PROPERTY
Pdih
SciTegic.value.DoubleValue
1.497

@<SCITEGIC>MOL_PROPERTY
Idih
SciTegic.value.DoubleValue
0.000

@<SCITEGIC>MOL_PROPERTY
Tether
SciTegic.value.DoubleValue
0.000

@<TRIPOS>MOLECULE
guest-2_confgen4.mol2 : confsearch ligand conformer 29
          23          22           1
SMALL
USER_CHARGES
 
@<TRIPOS>ATOM
       1    N1      17.499125   16.972384   22.002522 N.4        1 MOL1        -0.5940
       2    H1      17.188050   16.951818   21.026001 H          1 MOL1         0.3649
       3    H2      16.695165   16.697371   22.576957 H          1 MOL1         0.3649
       4    H3      18.206727   16.238499   22.109180 H          1 MOL1         0.3649
       5    C1      18.032861   18.334488   22.396772 C.3        1 MOL1         0.0207
       6    H4      18.315916   18.291888   23.451759 H          1 MOL1         0.0950
       7    H5      17.222351   19.059969   22.286773 H          1 MOL1         0.0950
       8    C2      19.242210   18.777063   21.552130 C.3        1 MOL1        -0.1415
       9    H6      20.051774   18.042783   21.651486 H          1 MOL1         0.0976
      10    H7      18.957762   18.780400   20.491561 H          1 MOL1         0.0976
      11    C3      19.755712   20.186928   21.936396 C.3        1 MOL1        -0.1375
      12    H8      18.970376   20.922879   21.715180 H          1 MOL1         0.0976
      13    H9      20.600028   20.451148   21.285805 H          1 MOL1         0.0976
      14    C4      20.176730   20.344274   23.422581 C.3        1 MOL1        -0.1375
      15    H10     20.536804   21.370603   23.578019 H          1 MOL1         0.0976
      16    H11     19.291935   20.242135   24.065237 H          1 MOL1         0.0976
      17    C5      21.265728   19.353900   23.907828 C.3        1 MOL1        -0.1350
      18    H12     20.889688   18.323102   23.861260 H          1 MOL1         0.0976
      19    H13     21.470594   19.551374   24.969302 H          1 MOL1         0.0976
      20    C6      22.589284   19.462808   23.117350 C.3        1 MOL1        -0.2365
      21    H14     22.457281   19.167500   22.069053 H          1 MOL1         0.0987
      22    H15     23.352554   18.804929   23.552615 H          1 MOL1         0.0987
      23    H16     22.978320   20.489023   23.139170 H          1 MOL1         0.0987
@<TRIPOS>BOND
    1     1     2    1
    2     1     3    1
    3     1     4    1
    4     1     5    1
    5     5     6    1
    6     5     7    1
    7     5     8    1
    8     8     9    1
    9     8    10    1
   10     8    11    1
   11    11    12    1
   12    11    13    1
   13    11    14    1
   14    14    15    1
   15    14    16    1
   16    14    17    1
   17    17    18    1
   18    17    19    1
   19    17    20    1
   20    20    21    1
   21    20    22    1
   22    20    23    1
@<TRIPOS>SUBSTRUCTURE
       1 MOL1            1 RESIDUE      1      MOL     
@<SCITEGIC>MOL_PROPERTY
VConf Rank
SciTegic.value.IntegerValue
29

@<SCITEGIC>MOL_PROPERTY
Conf_Id
SciTegic.value.IntegerValue
90

@<SCITEGIC>MOL_PROPERTY
Delta U+W
SciTegic.value.DoubleValue
1.131

@<SCITEGIC>MOL_PROPERTY
U+W
SciTegic.value.DoubleValue
-7.251

@<SCITEGIC>MOL_PROPERTY
Grad RMS
SciTegic.value.DoubleValue
0.000000

@<SCITEGIC>MOL_PROPERTY
U
SciTegic.value.DoubleValue
48.641

@<SCITEGIC>MOL_PROPERTY
W
SciTegic.value.DoubleValue
-55.892

@<SCITEGIC>MOL_PROPERTY
W(PB)
SciTegic.value.DoubleValue
-57.962

@<SCITEGIC>MOL_PROPERTY
W(SA)
SciTegic.value.DoubleValue
2.070

@<SCITEGIC>MOL_PROPERTY
Valence
SciTegic.value.DoubleValue
2.922

@<SCITEGIC>MOL_PROPERTY
Coulomb
SciTegic.value.DoubleValue
45.269

@<SCITEGIC>MOL_PROPERTY
VdW
SciTegic.value.DoubleValue
0.450

@<SCITEGIC>MOL_PROPERTY
VdW6
SciTegic.value.DoubleValue
-7.045

@<SCITEGIC>MOL_PROPERTY
VdW12
SciTegic.value.DoubleValue
7.495

@<SCITEGIC>MOL_PROPERTY
Bond
SciTegic.value.DoubleValue
0.220

@<SCITEGIC>MOL_PROPERTY
Angle
SciTegic.value.DoubleValue
1.205

@<SCITEGIC>MOL_PROPERTY
Pdih
SciTegic.value.DoubleValue
1.497

@<SCITEGIC>MOL_PROPERTY
Idih
SciTegic.value.DoubleValue
0.000

@<SCITEGIC>MOL_PROPERTY
Tether
SciTegic.value.DoubleValue
0.000

@<TRIPOS>MOLECULE
guest-2_confgen4.mol2 : confsearch ligand conformer 30
          23          22           1
SMALL
USER_CHARGES
 
@<TRIPOS>ATOM
       1    N1      19.355628   16.822614   21.072323 N.4        1 MOL1        -0.5940
       2    H1      19.223836   16.638136   20.072098 H          1 MOL1         0.3649
       3    H2      18.673553   17.539048   21.339002 H          1 MOL1         0.3649
       4    H3      19.103961   15.963054   21.570714 H          1 MOL1         0.3649
       5    C1      20.774145   17.258395   21.382647 C.3        1 MOL1         0.0207
       6    H4      20.987880   18.157408   20.798858 H          1 MOL1         0.0950
       7    H5      21.447489   16.466361   21.043810 H          1 MOL1         0.0950
       8    C2      21.023617   17.536699   22.879042 C.3        1 MOL1        -0.1415
       9    H6      20.851697   16.614589   23.449958 H          1 MOL1         0.0976
      10    H7      22.083168   17.789309   23.018268 H          1 MOL1         0.0976
      11    C3      20.146369   18.672385   23.463196 C.3        1 MOL1        -0.1375
      12    H8      20.383982   18.784621   24.529992 H          1 MOL1         0.0976
      13    H9      19.089680   18.380630   23.414298 H          1 MOL1         0.0976
      14    C4      20.359202   20.031471   22.749712 C.3        1 MOL1        -0.1375
      15    H10     21.432981   20.263943   22.734763 H          1 MOL1         0.0976
      16    H11     20.042803   19.962395   21.700402 H          1 MOL1         0.0976
      17    C5      19.611724   21.204429   23.428563 C.3        1 MOL1        -0.1350
      18    H12     19.898482   22.141040   22.930201 H          1 MOL1         0.0976
      19    H13     19.939401   21.299742   24.473228 H          1 MOL1         0.0976
      20    C6      18.073363   21.063370   23.376766 C.3        1 MOL1        -0.2365
      21    H14     17.722466   20.939979   22.344011 H          1 MOL1         0.0987
      22    H15     17.591713   21.959210   23.789585 H          1 MOL1         0.0987
      23    H16     17.727107   20.203574   23.963509 H          1 MOL1         0.0987
@<TRIPOS>BOND
    1     1     2    1
    2     1     3    1
    3     1     4    1
    4     1     5    1
    5     5     6    1
    6     5     7    1
    7     5     8    1
    8     8     9    1
    9     8    10    1
   10     8    11    1
   11    11    12    1
   12    11    13    1
   13    11    14    1
   14    14    15    1
   15    14    16    1
   16    14    17    1
   17    17    18    1
   18    17    19    1
   19    17    20    1
   20    20    21    1
   21    20    22    1
   22    20    23    1
@<TRIPOS>SUBSTRUCTURE
       1 MOL1            1 RESIDUE      1      MOL     
@<SCITEGIC>MOL_PROPERTY
VConf Rank
SciTegic.value.IntegerValue
30

@<SCITEGIC>MOL_PROPERTY
Conf_Id
SciTegic.value.IntegerValue
85

@<SCITEGIC>MOL_PROPERTY
Delta U+W
SciTegic.value.DoubleValue
1.193

@<SCITEGIC>MOL_PROPERTY
U+W
SciTegic.value.DoubleValue
-7.189

@<SCITEGIC>MOL_PROPERTY
Grad RMS
SciTegic.value.DoubleValue
0.000000

@<SCITEGIC>MOL_PROPERTY
U
SciTegic.value.DoubleValue
48.775

@<SCITEGIC>MOL_PROPERTY
W
SciTegic.value.DoubleValue
-55.965

@<SCITEGIC>MOL_PROPERTY
W(PB)
SciTegic.value.DoubleValue
-58.038

@<SCITEGIC>MOL_PROPERTY
W(SA)
SciTegic.value.DoubleValue
2.073

@<SCITEGIC>MOL_PROPERTY
Valence
SciTegic.value.DoubleValue
2.602

@<SCITEGIC>MOL_PROPERTY
Coulomb
SciTegic.value.DoubleValue
45.581

@<SCITEGIC>MOL_PROPERTY
VdW
SciTegic.value.DoubleValue
0.592

@<SCITEGIC>MOL_PROPERTY
VdW6
SciTegic.value.DoubleValue
-6.616

@<SCITEGIC>MOL_PROPERTY
VdW12
SciTegic.value.DoubleValue
7.208

@<SCITEGIC>MOL_PROPERTY
Bond
SciTegic.value.DoubleValue
0.196

@<SCITEGIC>MOL_PROPERTY
Angle
SciTegic.value.DoubleValue
0.832

@<SCITEGIC>MOL_PROPERTY
Pdih
SciTegic.value.DoubleValue
1.574

@<SCITEGIC>MOL_PROPERTY
Idih
SciTegic.value.DoubleValue
0.000

@<SCITEGIC>MOL_PROPERTY
Tether
SciTegic.value.DoubleValue
0.000

@<TRIPOS>MOLECULE
guest-2_confgen4.mol2 : confsearch ligand conformer 31
          23          22           1
SMALL
USER_CHARGES
 
@<TRIPOS>ATOM
       1    N1      19.239243   16.918912   22.650906 N.4        1 MOL1        -0.5940
       2    H1      19.146887   17.726846   23.274913 H          1 MOL1         0.3649
       3    H2      19.615881   16.142966   23.206203 H          1 MOL1         0.3649
       4    H3      18.294422   16.647096   22.360316 H          1 MOL1         0.3649
       5    C1      20.121820   17.239361   21.460094 C.3        1 MOL1         0.0207
       6    H4      20.169729   16.336034   20.845915 H          1 MOL1         0.0950
       7    H5      21.130457   17.458329   21.820417 H          1 MOL1         0.0950
       8    C2      19.608581   18.409035   20.595706 C.3        1 MOL1        -0.1415
       9    H6      20.052423   18.305442   19.596651 H          1 MOL1         0.0976
      10    H7      18.523982   18.315768   20.451419 H          1 MOL1         0.0976
      11    C3      19.957652   19.826320   21.124443 C.3        1 MOL1        -0.1375
      12    H8      19.583487   20.552321   20.389304 H          1 MOL1         0.0976
      13    H9      21.047946   19.962063   21.141890 H          1 MOL1         0.0976
      14    C4      19.352401   20.186598   22.505431 C.3        1 MOL1        -0.1375
      15    H10     19.081398   21.251620   22.500414 H          1 MOL1         0.0976
      16    H11     18.410852   19.643220   22.660195 H          1 MOL1         0.0976
      17    C5      20.332662   19.951575   23.680571 C.3        1 MOL1        -0.1350
      18    H12     21.187728   20.635006   23.580980 H          1 MOL1         0.0976
      19    H13     20.751011   18.938499   23.649946 H          1 MOL1         0.0976
      20    C6      19.653029   20.185940   25.046221 C.3        1 MOL1        -0.2365
      21    H14     19.271112   21.212255   25.124865 H          1 MOL1         0.0987
      22    H15     20.366365   20.029530   25.865896 H          1 MOL1         0.0987
      23    H16     18.811737   19.497101   25.196198 H          1 MOL1         0.0987
@<TRIPOS>BOND
    1     1     2    1
    2     1     3    1
    3     1     4    1
    4     1     5    1
    5     5     6    1
    6     5     7    1
    7     5     8    1
    8     8     9    1
    9     8    10    1
   10     8    11    1
   11    11    12    1
   12    11    13    1
   13    11    14    1
   14    14    15    1
   15    14    16    1
   16    14    17    1
   17    17    18    1
   18    17    19    1
   19    17    20    1
   20    20    21    1
   21    20    22    1
   22    20    23    1
@<TRIPOS>SUBSTRUCTURE
       1 MOL1            1 RESIDUE      1      MOL     
@<SCITEGIC>MOL_PROPERTY
VConf Rank
SciTegic.value.IntegerValue
31

@<SCITEGIC>MOL_PROPERTY
Conf_Id
SciTegic.value.IntegerValue
82

@<SCITEGIC>MOL_PROPERTY
Delta U+W
SciTegic.value.DoubleValue
5.994

@<SCITEGIC>MOL_PROPERTY
U+W
SciTegic.value.DoubleValue
-2.388

@<SCITEGIC>MOL_PROPERTY
Grad RMS
SciTegic.value.DoubleValue
0.000000

@<SCITEGIC>MOL_PROPERTY
U
SciTegic.value.DoubleValue
52.836

@<SCITEGIC>MOL_PROPERTY
W
SciTegic.value.DoubleValue
-55.224

@<SCITEGIC>MOL_PROPERTY
W(PB)
SciTegic.value.DoubleValue
-57.261

@<SCITEGIC>MOL_PROPERTY
W(SA)
SciTegic.value.DoubleValue
2.037

@<SCITEGIC>MOL_PROPERTY
Valence
SciTegic.value.DoubleValue
5.785

@<SCITEGIC>MOL_PROPERTY
Coulomb
SciTegic.value.DoubleValue
46.744

@<SCITEGIC>MOL_PROPERTY
VdW
SciTegic.value.DoubleValue
0.307

@<SCITEGIC>MOL_PROPERTY
VdW6
SciTegic.value.DoubleValue
-7.672

@<SCITEGIC>MOL_PROPERTY
VdW12
SciTegic.value.DoubleValue
7.979

@<SCITEGIC>MOL_PROPERTY
Bond
SciTegic.value.DoubleValue
0.217

@<SCITEGIC>MOL_PROPERTY
Angle
SciTegic.value.DoubleValue
1.470

@<SCITEGIC>MOL_PROPERTY
Pdih
SciTegic.value.DoubleValue
4.098

@<SCITEGIC>MOL_PROPERTY
Idih
SciTegic.value.DoubleValue
0.000

@<SCITEGIC>MOL_PROPERTY
Tether
SciTegic.value.DoubleValue
0.000

@<TRIPOS>MOLECULE
guest-2_confgen4.mol2 : confsearch ligand conformer 32
          23          22           1
SMALL
USER_CHARGES
 
@<TRIPOS>ATOM
       1    N1      21.663123   19.283871   21.581772 N.4        1 MOL1        -0.5940
       2    H1      22.509936   19.337791   22.157112 H          1 MOL1         0.3649
       3    H2      21.966681   19.094838   20.620304 H          1 MOL1         0.3649
       4    H3      21.127882   18.469920   21.900637 H          1 MOL1         0.3649
       5    C1      20.841248   20.555033   21.673014 C.3        1 MOL1         0.0207
       6    H4      19.988675   20.470496   20.993971 H          1 MOL1         0.0950
       7    H5      21.476413   21.371954   21.319863 H          1 MOL1         0.0950
       8    C2      20.346829   20.881402   23.097005 C.3        1 MOL1        -0.1415
       9    H6      21.156737   20.711902   23.818941 H          1 MOL1         0.0976
      10    H7      20.131833   21.957509   23.137106 H          1 MOL1         0.0976
      11    C3      19.066228   20.125583   23.543001 C.3        1 MOL1        -0.1375
      12    H8      18.222910   20.401715   22.894899 H          1 MOL1         0.0976
      13    H9      18.799721   20.493289   24.543636 H          1 MOL1         0.0976
      14    C4      19.199068   18.582882   23.618427 C.3        1 MOL1        -0.1375
      15    H10     20.236799   18.302130   23.842071 H          1 MOL1         0.0976
      16    H11     18.605536   18.222872   24.470396 H          1 MOL1         0.0976
      17    C5      18.687752   17.864156   22.345992 C.3        1 MOL1        -0.1350
      18    H12     19.143081   18.287459   21.442790 H          1 MOL1         0.0976
      19    H13     17.605952   18.030992   22.245955 H          1 MOL1         0.0976
      20    C6      18.963769   16.346610   22.397897 C.3        1 MOL1        -0.2365
      21    H14     20.039524   16.139213   22.465016 H          1 MOL1         0.0987
      22    H15     18.581320   15.852167   21.495434 H          1 MOL1         0.0987
      23    H16     18.473425   15.886801   23.265944 H          1 MOL1         0.0987
@<TRIPOS>BOND
    1     1     2    1
    2     1     3    1
    3     1     4    1
    4     1     5    1
    5     5     6    1
    6     5     7    1
    7     5     8    1
    8     8     9    1
    9     8    10    1
   10     8    11    1
   11    11    12    1
   12    11    13    1
   13    11    14    1
   14    14    15    1
   15    14    16    1
   16    14    17    1
   17    17    18    1
   18    17    19    1
   19    17    20    1
   20    20    21    1
   21    20    22    1
   22    20    23    1
@<TRIPOS>SUBSTRUCTURE
       1 MOL1            1 RESIDUE      1      MOL     
@<SCITEGIC>MOL_PROPERTY
VConf Rank
SciTegic.value.IntegerValue
32

@<SCITEGIC>MOL_PROPERTY
Conf_Id
SciTegic.value.IntegerValue
5

@<SCITEGIC>MOL_PROPERTY
Delta U+W
SciTegic.value.DoubleValue
6.087

@<SCITEGIC>MOL_PROPERTY
U+W
SciTegic.value.DoubleValue
-2.295

@<SCITEGIC>MOL_PROPERTY
Grad RMS
SciTegic.value.DoubleValue
0.000000

@<SCITEGIC>MOL_PROPERTY
U
SciTegic.value.DoubleValue
52.836

@<SCITEGIC>MOL_PROPERTY
W
SciTegic.value.DoubleValue
-55.131

@<SCITEGIC>MOL_PROPERTY
W(PB)
SciTegic.value.DoubleValue
-57.202

@<SCITEGIC>MOL_PROPERTY
W(SA)
SciTegic.value.DoubleValue
2.071

@<SCITEGIC>MOL_PROPERTY
Valence
SciTegic.value.DoubleValue
5.785

@<SCITEGIC>MOL_PROPERTY
Coulomb
SciTegic.value.DoubleValue
46.744

@<SCITEGIC>MOL_PROPERTY
VdW
SciTegic.value.DoubleValue
0.307

@<SCITEGIC>MOL_PROPERTY
VdW6
SciTegic.value.DoubleValue
-7.672

@<SCITEGIC>MOL_PROPERTY
VdW12
SciTegic.value.DoubleValue
7.980

@<SCITEGIC>MOL_PROPERTY
Bond
SciTegic.value.DoubleValue
0.217

@<SCITEGIC>MOL_PROPERTY
Angle
SciTegic.value.DoubleValue
1.470

@<SCITEGIC>MOL_PROPERTY
Pdih
SciTegic.value.DoubleValue
4.098

@<SCITEGIC>MOL_PROPERTY
Idih
SciTegic.value.DoubleValue
0.000

@<SCITEGIC>MOL_PROPERTY
Tether
SciTegic.value.DoubleValue
0.000

@<TRIPOS>MOLECULE
guest-2_confgen4.mol2 : confsearch ligand conformer 33
          23          22           1
SMALL
USER_CHARGES
 
@<TRIPOS>ATOM
       1    N1      18.329754   17.377737   25.767493 N.4        1 MOL1        -0.5940
       2    H1      17.342433   17.505985   25.523294 H          1 MOL1         0.3649
       3    H2      18.396264   17.452613   26.788308 H          1 MOL1         0.3649
       4    H3      18.578144   16.413702   25.522903 H          1 MOL1         0.3649
       5    C1      19.220504   18.385706   25.070026 C.3        1 MOL1         0.0207
       6    H4      20.248946   18.210724   25.397417 H          1 MOL1         0.0950
       7    H5      18.920743   19.384781   25.397884 H          1 MOL1         0.0950
       8    C2      19.143602   18.299321   23.535360 C.3        1 MOL1        -0.1415
       9    H6      19.429789   17.289604   23.211835 H          1 MOL1         0.0976
      10    H7      18.106244   18.459413   23.212316 H          1 MOL1         0.0976
      11    C3      20.064608   19.341655   22.863444 C.3        1 MOL1        -0.1375
      12    H8      21.100632   19.181483   23.193292 H          1 MOL1         0.0976
      13    H9      19.778458   20.350033   23.193739 H          1 MOL1         0.0976
      14    C4      19.995236   19.263753   21.321328 C.3        1 MOL1        -0.1375
      15    H10     20.281467   18.255585   20.990901 H          1 MOL1         0.0976
      16    H11     18.959389   19.423905   20.991350 H          1 MOL1         0.0976
      17    C5      20.916387   20.306395   20.649659 C.3        1 MOL1        -0.1350
      18    H12     21.954388   20.148806   20.974762 H          1 MOL1         0.0976
      19    H13     20.632419   21.317017   20.975201 H          1 MOL1         0.0976
      20    C6      20.844459   20.225579   19.109917 C.3        1 MOL1        -0.2365
      21    H14     21.504793   20.972979   18.651225 H          1 MOL1         0.0987
      22    H15     19.823700   20.413100   18.751985 H          1 MOL1         0.0987
      23    H16     21.155971   19.235752   18.751543 H          1 MOL1         0.0987
@<TRIPOS>BOND
    1     1     2    1
    2     1     3    1
    3     1     4    1
    4     1     5    1
    5     5     6    1
    6     5     7    1
    7     5     8    1
    8     8     9    1
    9     8    10    1
   10     8    11    1
   11    11    12    1
   12    11    13    1
   13    11    14    1
   14    14    15    1
   15    14    16    1
   16    14    17    1
   17    17    18    1
   18    17    19    1
   19    17    20    1
   20    20    21    1
   21    20    22    1
   22    20    23    1
@<TRIPOS>SUBSTRUCTURE
       1 MOL1            1 RESIDUE      1      MOL     
@<SCITEGIC>MOL_PROPERTY
VConf Rank
SciTegic.value.IntegerValue
33

@<SCITEGIC>MOL_PROPERTY
Conf_Id
SciTegic.value.IntegerValue
40

@<SCITEGIC>MOL_PROPERTY
Delta U+W
SciTegic.value.DoubleValue
0.000

@<SCITEGIC>MOL_PROPERTY
U+W
SciTegic.value.DoubleValue
-8.382

@<SCITEGIC>MOL_PROPERTY
Grad RMS
SciTegic.value.DoubleValue
0.000000

@<SCITEGIC>MOL_PROPERTY
U
SciTegic.value.DoubleValue
46.604

@<SCITEGIC>MOL_PROPERTY
W
SciTegic.value.DoubleValue
-54.986

@<SCITEGIC>MOL_PROPERTY
W(PB)
SciTegic.value.DoubleValue
-57.162

@<SCITEGIC>MOL_PROPERTY
W(SA)
SciTegic.value.DoubleValue
2.176

@<SCITEGIC>MOL_PROPERTY
Valence
SciTegic.value.DoubleValue
1.727

@<SCITEGIC>MOL_PROPERTY
Coulomb
SciTegic.value.DoubleValue
44.434

@<SCITEGIC>MOL_PROPERTY
VdW
SciTegic.value.DoubleValue
0.443

@<SCITEGIC>MOL_PROPERTY
VdW6
SciTegic.value.DoubleValue
-4.623

@<SCITEGIC>MOL_PROPERTY
VdW12
SciTegic.value.DoubleValue
5.066

@<SCITEGIC>MOL_PROPERTY
Bond
SciTegic.value.DoubleValue
0.112

@<SCITEGIC>MOL_PROPERTY
Angle
SciTegic.value.DoubleValue
0.386

@<SCITEGIC>MOL_PROPERTY
Pdih
SciTegic.value.DoubleValue
1.228

@<SCITEGIC>MOL_PROPERTY
Idih
SciTegic.value.DoubleValue
0.000

@<SCITEGIC>MOL_PROPERTY
Tether
SciTegic.value.DoubleValue
0.000

@<TRIPOS>MOLECULE
guest-2_confgen4.mol2 : confsearch ligand conformer 34
          23          22           1
SMALL
USER_CHARGES
 
@<TRIPOS>ATOM
       1    N1      21.106224   19.481536   19.329957 N.4        1 MOL1        -0.5940
       2    H1      20.490021   19.056036   18.629898 H          1 MOL1         0.3649
       3    H2      21.914756   18.860555   19.437155 H          1 MOL1         0.3649
       4    H3      21.454790   20.357808   18.926623 H          1 MOL1         0.3649
       5    C1      20.392068   19.712414   20.646187 C.3        1 MOL1         0.0207
       6    H4      19.563379   20.401999   20.464093 H          1 MOL1         0.0950
       7    H5      21.096575   20.193572   21.329323 H          1 MOL1         0.0950
       8    C2      19.855948   18.413567   21.277618 C.3        1 MOL1        -0.1415
       9    H6      19.187290   17.917629   20.561455 H          1 MOL1         0.0976
      10    H7      20.688051   17.721004   21.461862 H          1 MOL1         0.0976
      11    C3      19.083621   18.660773   22.595200 C.3        1 MOL1        -0.1375
      12    H8      18.640629   17.709383   22.917032 H          1 MOL1         0.0976
      13    H9      18.246048   19.346304   22.405754 H          1 MOL1         0.0976
      14    C4      19.978044   19.227106   23.727388 C.3        1 MOL1        -0.1375
      15    H10     20.803612   18.531144   23.930604 H          1 MOL1         0.0976
      16    H11     20.440265   20.166113   23.395540 H          1 MOL1         0.0976
      17    C5      19.206203   19.508721   25.039441 C.3        1 MOL1        -0.1350
      18    H12     18.385267   20.212811   24.844197 H          1 MOL1         0.0976
      19    H13     19.882251   20.013415   25.743796 H          1 MOL1         0.0976
      20    C6      18.649277   18.233966   25.713402 C.3        1 MOL1        -0.2365
      21    H14     17.872829   17.759350   25.100928 H          1 MOL1         0.0987
      22    H15     18.198674   18.478672   26.683981 H          1 MOL1         0.0987
      23    H16     19.446173   17.499797   25.889366 H          1 MOL1         0.0987
@<TRIPOS>BOND
    1     1     2    1
    2     1     3    1
    3     1     4    1
    4     1     5    1
    5     5     6    1
    6     5     7    1
    7     5     8    1
    8     8     9    1
    9     8    10    1
   10     8    11    1
   11    11    12    1
   12    11    13    1
   13    11    14    1
   14    14    15    1
   15    14    16    1
   16    14    17    1
   17    17    18    1
   18    17    19    1
   19    17    20    1
   20    20    21    1
   21    20    22    1
   22    20    23    1
@<TRIPOS>SUBSTRUCTURE
       1 MOL1            1 RESIDUE      1      MOL     
@<SCITEGIC>MOL_PROPERTY
VConf Rank
SciTegic.value.IntegerValue
34

@<SCITEGIC>MOL_PROPERTY
Conf_Id
SciTegic.value.IntegerValue
65

@<SCITEGIC>MOL_PROPERTY
Delta U+W
SciTegic.value.DoubleValue
1.004

@<SCITEGIC>MOL_PROPERTY
U+W
SciTegic.value.DoubleValue
-7.378

@<SCITEGIC>MOL_PROPERTY
Grad RMS
SciTegic.value.DoubleValue
0.000000

@<SCITEGIC>MOL_PROPERTY
U
SciTegic.value.DoubleValue
48.047

@<SCITEGIC>MOL_PROPERTY
W
SciTegic.value.DoubleValue
-55.425

@<SCITEGIC>MOL_PROPERTY
W(PB)
SciTegic.value.DoubleValue
-57.542

@<SCITEGIC>MOL_PROPERTY
W(SA)
SciTegic.value.DoubleValue
2.116

@<SCITEGIC>MOL_PROPERTY
Valence
SciTegic.value.DoubleValue
2.583

@<SCITEGIC>MOL_PROPERTY
Coulomb
SciTegic.value.DoubleValue
44.791

@<SCITEGIC>MOL_PROPERTY
VdW
SciTegic.value.DoubleValue
0.673

@<SCITEGIC>MOL_PROPERTY
VdW6
SciTegic.value.DoubleValue
-5.788

@<SCITEGIC>MOL_PROPERTY
VdW12
SciTegic.value.DoubleValue
6.462

@<SCITEGIC>MOL_PROPERTY
Bond
SciTegic.value.DoubleValue
0.177

@<SCITEGIC>MOL_PROPERTY
Angle
SciTegic.value.DoubleValue
0.787

@<SCITEGIC>MOL_PROPERTY
Pdih
SciTegic.value.DoubleValue
1.619

@<SCITEGIC>MOL_PROPERTY
Idih
SciTegic.value.DoubleValue
0.000

@<SCITEGIC>MOL_PROPERTY
Tether
SciTegic.value.DoubleValue
0.000

@<TRIPOS>MOLECULE
guest-2_confgen4.mol2 : confsearch ligand conformer 35
          23          22           1
SMALL
USER_CHARGES
 
@<TRIPOS>ATOM
       1    N1      19.328808   22.469598   23.444192 N.4        1 MOL1        -0.5940
       2    H1      19.988280   23.050345   22.916303 H          1 MOL1         0.3649
       3    H2      19.266675   22.870697   24.386152 H          1 MOL1         0.3649
       4    H3      18.408176   22.587282   23.008967 H          1 MOL1         0.3649
       5    C1      19.756690   21.016483   23.478090 C.3        1 MOL1         0.0207
       6    H4      19.028316   20.467063   24.079862 H          1 MOL1         0.0950
       7    H5      20.727525   20.962112   23.978024 H          1 MOL1         0.0950
       8    C2      19.859571   20.385024   22.076731 C.3        1 MOL1        -0.1415
       9    H6      18.884393   20.438288   21.574560 H          1 MOL1         0.0976
      10    H7      20.558324   20.975446   21.469201 H          1 MOL1         0.0976
      11    C3      20.345813   18.916761   22.114005 C.3        1 MOL1        -0.1375
      12    H8      21.326026   18.867931   22.608139 H          1 MOL1         0.0976
      13    H9      20.500891   18.580243   21.080724 H          1 MOL1         0.0976
      14    C4      19.351887   17.964849   22.827131 C.3        1 MOL1        -0.1375
      15    H10     19.178274   18.316206   23.852759 H          1 MOL1         0.0976
      16    H11     18.377848   17.998495   22.319849 H          1 MOL1         0.0976
      17    C5      19.845905   16.499446   22.898245 C.3        1 MOL1        -0.1350
      18    H12     19.144657   15.921485   23.516374 H          1 MOL1         0.0976
      19    H13     20.815367   16.458418   23.414249 H          1 MOL1         0.0976
      20    C6      19.963613   15.820204   21.514711 C.3        1 MOL1        -0.2365
      21    H14     20.745746   16.284708   20.901719 H          1 MOL1         0.0987
      22    H15     19.015328   15.877159   20.964691 H          1 MOL1         0.0987
      23    H16     20.221778   14.759406   21.628749 H          1 MOL1         0.0987
@<TRIPOS>BOND
    1     1     2    1
    2     1     3    1
    3     1     4    1
    4     1     5    1
    5     5     6    1
    6     5     7    1
    7     5     8    1
    8     8     9    1
    9     8    10    1
   10     8    11    1
   11    11    12    1
   12    11    13    1
   13    11    14    1
   14    14    15    1
   15    14    16    1
   16    14    17    1
   17    17    18    1
   18    17    19    1
   19    17    20    1
   20    20    21    1
   21    20    22    1
   22    20    23    1
@<TRIPOS>SUBSTRUCTURE
       1 MOL1            1 RESIDUE      1      MOL     
@<SCITEGIC>MOL_PROPERTY
VConf Rank
SciTegic.value.IntegerValue
35

@<SCITEGIC>MOL_PROPERTY
Conf_Id
SciTegic.value.IntegerValue
92

@<SCITEGIC>MOL_PROPERTY
Delta U+W
SciTegic.value.DoubleValue
0.973

@<SCITEGIC>MOL_PROPERTY
U+W
SciTegic.value.DoubleValue
-7.409

@<SCITEGIC>MOL_PROPERTY
Grad RMS
SciTegic.value.DoubleValue
0.000000

@<SCITEGIC>MOL_PROPERTY
U
SciTegic.value.DoubleValue
48.047

@<SCITEGIC>MOL_PROPERTY
W
SciTegic.value.DoubleValue
-55.456

@<SCITEGIC>MOL_PROPERTY
W(PB)
SciTegic.value.DoubleValue
-57.595

@<SCITEGIC>MOL_PROPERTY
W(SA)
SciTegic.value.DoubleValue
2.138

@<SCITEGIC>MOL_PROPERTY
Valence
SciTegic.value.DoubleValue
2.583

@<SCITEGIC>MOL_PROPERTY
Coulomb
SciTegic.value.DoubleValue
44.791

@<SCITEGIC>MOL_PROPERTY
VdW
SciTegic.value.DoubleValue
0.674

@<SCITEGIC>MOL_PROPERTY
VdW6
SciTegic.value.DoubleValue
-5.789

@<SCITEGIC>MOL_PROPERTY
VdW12
SciTegic.value.DoubleValue
6.462

@<SCITEGIC>MOL_PROPERTY
Bond
SciTegic.value.DoubleValue
0.177

@<SCITEGIC>MOL_PROPERTY
Angle
SciTegic.value.DoubleValue
0.787

@<SCITEGIC>MOL_PROPERTY
Pdih
SciTegic.value.DoubleValue
1.619

@<SCITEGIC>MOL_PROPERTY
Idih
SciTegic.value.DoubleValue
0.000

@<SCITEGIC>MOL_PROPERTY
Tether
SciTegic.value.DoubleValue
0.000

@<TRIPOS>MOLECULE
guest-2_confgen4.mol2 : confsearch ligand conformer 36
          23          22           1
SMALL
USER_CHARGES
 
@<TRIPOS>ATOM
       1    N1      23.201497   18.322031   22.246643 N.4        1 MOL1        -0.5940
       2    H1      23.880472   19.086694   22.167166 H          1 MOL1         0.3649
       3    H2      23.462974   17.618111   21.548804 H          1 MOL1         0.3649
       4    H3      23.338177   17.896990   23.169409 H          1 MOL1         0.3649
       5    C1      21.779805   18.809036   22.053270 C.3        1 MOL1         0.0207
       6    H4      21.713537   19.273791   21.065834 H          1 MOL1         0.0950
       7    H5      21.582228   19.574552   22.808015 H          1 MOL1         0.0950
       8    C2      20.735341   17.682505   22.166768 C.3        1 MOL1        -0.1415
       9    H6      20.971225   16.899576   21.433741 H          1 MOL1         0.0976
      10    H7      20.802529   17.215201   23.158286 H          1 MOL1         0.0976
      11    C3      19.290811   18.179428   21.922981 C.3        1 MOL1        -0.1375
      12    H8      18.615016   17.312977   21.926875 H          1 MOL1         0.0976
      13    H9      19.220464   18.623400   20.920190 H          1 MOL1         0.0976
      14    C4      18.812729   19.202136   22.981739 C.3        1 MOL1        -0.1375
      15    H10     18.915538   18.766916   23.985448 H          1 MOL1         0.0976
      16    H11     19.450410   20.095854   22.955505 H          1 MOL1         0.0976
      17    C5      17.343765   19.621700   22.751777 C.3        1 MOL1        -0.1350
      18    H12     16.694727   18.735332   22.784363 H          1 MOL1         0.0976
      19    H13     17.235055   20.057260   21.748558 H          1 MOL1         0.0976
      20    C6      16.868461   20.642659   23.807377 C.3        1 MOL1        -0.2365
      21    H14     16.933818   20.223164   24.819790 H          1 MOL1         0.0987
      22    H15     15.823741   20.927927   23.627855 H          1 MOL1         0.0987
      23    H16     17.477076   21.555788   23.775701 H          1 MOL1         0.0987
@<TRIPOS>BOND
    1     1     2    1
    2     1     3    1
    3     1     4    1
    4     1     5    1
    5     5     6    1
    6     5     7    1
    7     5     8    1
    8     8     9    1
    9     8    10    1
   10     8    11    1
   11    11    12    1
   12    11    13    1
   13    11    14    1
   14    14    15    1
   15    14    16    1
   16    14    17    1
   17    17    18    1
   18    17    19    1
   19    17    20    1
   20    20    21    1
   21    20    22    1
   22    20    23    1
@<TRIPOS>SUBSTRUCTURE
       1 MOL1            1 RESIDUE      1      MOL     
@<SCITEGIC>MOL_PROPERTY
VConf Rank
SciTegic.value.IntegerValue
36

@<SCITEGIC>MOL_PROPERTY
Conf_Id
SciTegic.value.IntegerValue
42

@<SCITEGIC>MOL_PROPERTY
Delta U+W
SciTegic.value.DoubleValue
0.365

@<SCITEGIC>MOL_PROPERTY
U+W
SciTegic.value.DoubleValue
-8.017

@<SCITEGIC>MOL_PROPERTY
Grad RMS
SciTegic.value.DoubleValue
0.000000

@<SCITEGIC>MOL_PROPERTY
U
SciTegic.value.DoubleValue
47.375

@<SCITEGIC>MOL_PROPERTY
W
SciTegic.value.DoubleValue
-55.392

@<SCITEGIC>MOL_PROPERTY
W(PB)
SciTegic.value.DoubleValue
-57.543

@<SCITEGIC>MOL_PROPERTY
W(SA)
SciTegic.value.DoubleValue
2.152

@<SCITEGIC>MOL_PROPERTY
Valence
SciTegic.value.DoubleValue
2.032

@<SCITEGIC>MOL_PROPERTY
Coulomb
SciTegic.value.DoubleValue
44.843

@<SCITEGIC>MOL_PROPERTY
VdW
SciTegic.value.DoubleValue
0.499

@<SCITEGIC>MOL_PROPERTY
VdW6
SciTegic.value.DoubleValue
-5.218

@<SCITEGIC>MOL_PROPERTY
VdW12
SciTegic.value.DoubleValue
5.717

@<SCITEGIC>MOL_PROPERTY
Bond
SciTegic.value.DoubleValue
0.135

@<SCITEGIC>MOL_PROPERTY
Angle
SciTegic.value.DoubleValue
0.514

@<SCITEGIC>MOL_PROPERTY
Pdih
SciTegic.value.DoubleValue
1.383

@<SCITEGIC>MOL_PROPERTY
Idih
SciTegic.value.DoubleValue
0.000

@<SCITEGIC>MOL_PROPERTY
Tether
SciTegic.value.DoubleValue
0.000

@<TRIPOS>MOLECULE
guest-2_confgen4.mol2 : confsearch ligand conformer 37
          23          22           1
SMALL
USER_CHARGES
 
@<TRIPOS>ATOM
       1    N1      21.435627   16.337441   23.115105 N.4        1 MOL1        -0.5940
       2    H1      20.606566   15.735467   23.084808 H          1 MOL1         0.3649
       3    H2      22.187251   15.789272   23.546983 H          1 MOL1         0.3649
       4    H3      21.715292   16.516716   22.146059 H          1 MOL1         0.3649
       5    C1      21.170867   17.623997   23.872905 C.3        1 MOL1         0.0207
       6    H4      22.096198   18.206177   23.888722 H          1 MOL1         0.0950
       7    H5      20.920634   17.354772   24.902698 H          1 MOL1         0.0950
       8    C2      20.032125   18.475215   23.277988 C.3        1 MOL1        -0.1415
       9    H6      19.110656   17.879470   23.237593 H          1 MOL1         0.0976
      10    H7      19.844150   19.309925   23.964314 H          1 MOL1         0.0976
      11    C3      20.371035   19.030497   21.873136 C.3        1 MOL1        -0.1375
      12    H8      20.660759   18.202364   21.213145 H          1 MOL1         0.0976
      13    H9      21.249619   19.686649   21.943573 H          1 MOL1         0.0976
      14    C4      19.208717   19.798377   21.191642 C.3        1 MOL1        -0.1375
      15    H10     19.553860   20.100965   20.193242 H          1 MOL1         0.0976
      16    H11     18.360202   19.122326   21.017858 H          1 MOL1         0.0976
      17    C5      18.736502   21.069553   21.943684 C.3        1 MOL1        -0.1350
      18    H12     18.458660   21.831911   21.202343 H          1 MOL1         0.0976
      19    H13     19.564452   21.500667   22.523544 H          1 MOL1         0.0976
      20    C6      17.511439   20.823757   22.855313 C.3        1 MOL1        -0.2365
      21    H14     16.654592   20.464082   22.270927 H          1 MOL1         0.0987
      22    H15     17.208408   21.755312   23.350581 H          1 MOL1         0.0987
      23    H16     17.719642   20.084910   23.636899 H          1 MOL1         0.0987
@<TRIPOS>BOND
    1     1     2    1
    2     1     3    1
    3     1     4    1
    4     1     5    1
    5     5     6    1
    6     5     7    1
    7     5     8    1
    8     8     9    1
    9     8    10    1
   10     8    11    1
   11    11    12    1
   12    11    13    1
   13    11    14    1
   14    14    15    1
   15    14    16    1
   16    14    17    1
   17    17    18    1
   18    17    19    1
   19    17    20    1
   20    20    21    1
   21    20    22    1
   22    20    23    1
@<TRIPOS>SUBSTRUCTURE
       1 MOL1            1 RESIDUE      1      MOL     
@<SCITEGIC>MOL_PROPERTY
VConf Rank
SciTegic.value.IntegerValue
37

@<SCITEGIC>MOL_PROPERTY
Conf_Id
SciTegic.value.IntegerValue
3

@<SCITEGIC>MOL_PROPERTY
Delta U+W
SciTegic.value.DoubleValue
3.283

@<SCITEGIC>MOL_PROPERTY
U+W
SciTegic.value.DoubleValue
-5.099

@<SCITEGIC>MOL_PROPERTY
Grad RMS
SciTegic.value.DoubleValue
0.000000

@<SCITEGIC>MOL_PROPERTY
U
SciTegic.value.DoubleValue
50.701

@<SCITEGIC>MOL_PROPERTY
W
SciTegic.value.DoubleValue
-55.800

@<SCITEGIC>MOL_PROPERTY
W(PB)
SciTegic.value.DoubleValue
-57.867

@<SCITEGIC>MOL_PROPERTY
W(SA)
SciTegic.value.DoubleValue
2.067

@<SCITEGIC>MOL_PROPERTY
Valence
SciTegic.value.DoubleValue
4.880

@<SCITEGIC>MOL_PROPERTY
Coulomb
SciTegic.value.DoubleValue
45.095

@<SCITEGIC>MOL_PROPERTY
VdW
SciTegic.value.DoubleValue
0.726

@<SCITEGIC>MOL_PROPERTY
VdW6
SciTegic.value.DoubleValue
-6.620

@<SCITEGIC>MOL_PROPERTY
VdW12
SciTegic.value.DoubleValue
7.346

@<SCITEGIC>MOL_PROPERTY
Bond
SciTegic.value.DoubleValue
0.222

@<SCITEGIC>MOL_PROPERTY
Angle
SciTegic.value.DoubleValue
1.260

@<SCITEGIC>MOL_PROPERTY
Pdih
SciTegic.value.DoubleValue
3.398

@<SCITEGIC>MOL_PROPERTY
Idih
SciTegic.value.DoubleValue
0.000

@<SCITEGIC>MOL_PROPERTY
Tether
SciTegic.value.DoubleValue
0.000

@<TRIPOS>MOLECULE
guest-2_confgen4.mol2 : confsearch ligand conformer 38
          23          22           1
SMALL
USER_CHARGES
 
@<TRIPOS>ATOM
       1    N1      18.957300   16.320839   22.107798 N.4        1 MOL1        -0.5940
       2    H1      18.729098   16.126272   21.127685 H          1 MOL1         0.3649
       3    H2      18.851120   15.439007   22.620566 H          1 MOL1         0.3649
       4    H3      19.949791   16.572333   22.144013 H          1 MOL1         0.3649
       5    C1      18.081262   17.416206   22.683142 C.3        1 MOL1         0.0207
       6    H4      18.353477   17.551991   23.732881 H          1 MOL1         0.0950
       7    H5      17.045427   17.068209   22.644807 H          1 MOL1         0.0950
       8    C2      18.196781   18.759987   21.934687 C.3        1 MOL1        -0.1415
       9    H6      17.871238   18.619680   20.895389 H          1 MOL1         0.0976
      10    H7      17.492153   19.473862   22.381611 H          1 MOL1         0.0976
      11    C3      19.620126   19.372857   21.945881 C.3        1 MOL1        -0.1375
      12    H8      19.596501   20.297514   21.354843 H          1 MOL1         0.0976
      13    H9      20.320921   18.700526   21.433431 H          1 MOL1         0.0976
      14    C4      20.139405   19.683341   23.372897 C.3        1 MOL1        -0.1375
      15    H10     19.451426   20.377980   23.874227 H          1 MOL1         0.0976
      16    H11     20.140482   18.763494   23.972259 H          1 MOL1         0.0976
      17    C5      21.571394   20.271090   23.393018 C.3        1 MOL1        -0.1350
      18    H12     22.266221   19.575278   22.902318 H          1 MOL1         0.0976
      19    H13     21.903958   20.351109   24.437462 H          1 MOL1         0.0976
      20    C6      21.675983   21.664045   22.731140 C.3        1 MOL1        -0.2365
      21    H14     20.966681   22.370008   23.182264 H          1 MOL1         0.0987
      22    H15     21.475565   21.615614   21.653767 H          1 MOL1         0.0987
      23    H16     22.685651   22.075126   22.859662 H          1 MOL1         0.0987
@<TRIPOS>BOND
    1     1     2    1
    2     1     3    1
    3     1     4    1
    4     1     5    1
    5     5     6    1
    6     5     7    1
    7     5     8    1
    8     8     9    1
    9     8    10    1
   10     8    11    1
   11    11    12    1
   12    11    13    1
   13    11    14    1
   14    14    15    1
   15    14    16    1
   16    14    17    1
   17    17    18    1
   18    17    19    1
   19    17    20    1
   20    20    21    1
   21    20    22    1
   22    20    23    1
@<TRIPOS>SUBSTRUCTURE
       1 MOL1            1 RESIDUE      1      MOL     
@<SCITEGIC>MOL_PROPERTY
VConf Rank
SciTegic.value.IntegerValue
38

@<SCITEGIC>MOL_PROPERTY
Conf_Id
SciTegic.value.IntegerValue
83

@<SCITEGIC>MOL_PROPERTY
Delta U+W
SciTegic.value.DoubleValue
1.229

@<SCITEGIC>MOL_PROPERTY
U+W
SciTegic.value.DoubleValue
-7.154

@<SCITEGIC>MOL_PROPERTY
Grad RMS
SciTegic.value.DoubleValue
0.000000

@<SCITEGIC>MOL_PROPERTY
U
SciTegic.value.DoubleValue
48.727

@<SCITEGIC>MOL_PROPERTY
W
SciTegic.value.DoubleValue
-55.880

@<SCITEGIC>MOL_PROPERTY
W(PB)
SciTegic.value.DoubleValue
-57.960

@<SCITEGIC>MOL_PROPERTY
W(SA)
SciTegic.value.DoubleValue
2.080

@<SCITEGIC>MOL_PROPERTY
Valence
SciTegic.value.DoubleValue
2.671

@<SCITEGIC>MOL_PROPERTY
Coulomb
SciTegic.value.DoubleValue
45.371

@<SCITEGIC>MOL_PROPERTY
VdW
SciTegic.value.DoubleValue
0.684

@<SCITEGIC>MOL_PROPERTY
VdW6
SciTegic.value.DoubleValue
-6.511

@<SCITEGIC>MOL_PROPERTY
VdW12
SciTegic.value.DoubleValue
7.195

@<SCITEGIC>MOL_PROPERTY
Bond
SciTegic.value.DoubleValue
0.203

@<SCITEGIC>MOL_PROPERTY
Angle
SciTegic.value.DoubleValue
0.915

@<SCITEGIC>MOL_PROPERTY
Pdih
SciTegic.value.DoubleValue
1.554

@<SCITEGIC>MOL_PROPERTY
Idih
SciTegic.value.DoubleValue
0.000

@<SCITEGIC>MOL_PROPERTY
Tether
SciTegic.value.DoubleValue
0.000

@<TRIPOS>MOLECULE
guest-2_confgen4.mol2 : confsearch ligand conformer 39
          23          22           1
SMALL
USER_CHARGES
 
@<TRIPOS>ATOM
       1    N1      19.022379   19.427026   19.782604 N.4        1 MOL1        -0.5940
       2    H1      18.760412   20.392418   19.559123 H          1 MOL1         0.3649
       3    H2      18.334080   19.073644   20.454145 H          1 MOL1         0.3649
       4    H3      18.911948   18.880094   18.922077 H          1 MOL1         0.3649
       5    C1      20.433673   19.338718   20.329180 C.3        1 MOL1         0.0207
       6    H4      21.114272   19.697459   19.552253 H          1 MOL1         0.0950
       7    H5      20.659598   18.285935   20.516522 H          1 MOL1         0.0950
       8    C2      20.652044   20.157977   21.617747 C.3        1 MOL1        -0.1415
       9    H6      21.707857   20.080817   21.909578 H          1 MOL1         0.0976
      10    H7      20.471813   21.219395   21.401614 H          1 MOL1         0.0976
      11    C3      19.760454   19.720309   22.807353 C.3        1 MOL1        -0.1375
      12    H8      18.701755   19.864821   22.554327 H          1 MOL1         0.0976
      13    H9      19.967013   20.390922   23.651442 H          1 MOL1         0.0976
      14    C4      20.000389   18.251891   23.241645 C.3        1 MOL1        -0.1375
      15    H10     19.817549   17.582126   22.391151 H          1 MOL1         0.0976
      16    H11     21.054257   18.115927   23.521012 H          1 MOL1         0.0976
      17    C5      19.093888   17.799777   24.412240 C.3        1 MOL1        -0.1350
      18    H12     19.243603   16.723609   24.577496 H          1 MOL1         0.0976
      19    H13     18.037842   17.923445   24.134392 H          1 MOL1         0.0976
      20    C6      19.374973   18.548477   25.735033 C.3        1 MOL1        -0.2365
      21    H14     20.432641   18.467749   26.017575 H          1 MOL1         0.0987
      22    H15     18.776588   18.123362   26.551212 H          1 MOL1         0.0987
      23    H16     19.118912   19.612417   25.659489 H          1 MOL1         0.0987
@<TRIPOS>BOND
    1     1     2    1
    2     1     3    1
    3     1     4    1
    4     1     5    1
    5     5     6    1
    6     5     7    1
    7     5     8    1
    8     8     9    1
    9     8    10    1
   10     8    11    1
   11    11    12    1
   12    11    13    1
   13    11    14    1
   14    14    15    1
   15    14    16    1
   16    14    17    1
   17    17    18    1
   18    17    19    1
   19    17    20    1
   20    20    21    1
   21    20    22    1
   22    20    23    1
@<TRIPOS>SUBSTRUCTURE
       1 MOL1            1 RESIDUE      1      MOL     
@<SCITEGIC>MOL_PROPERTY
VConf Rank
SciTegic.value.IntegerValue
39

@<SCITEGIC>MOL_PROPERTY
Conf_Id
SciTegic.value.IntegerValue
50

@<SCITEGIC>MOL_PROPERTY
Delta U+W
SciTegic.value.DoubleValue
1.252

@<SCITEGIC>MOL_PROPERTY
U+W
SciTegic.value.DoubleValue
-7.130

@<SCITEGIC>MOL_PROPERTY
Grad RMS
SciTegic.value.DoubleValue
0.000000

@<SCITEGIC>MOL_PROPERTY
U
SciTegic.value.DoubleValue
48.727

@<SCITEGIC>MOL_PROPERTY
W
SciTegic.value.DoubleValue
-55.857

@<SCITEGIC>MOL_PROPERTY
W(PB)
SciTegic.value.DoubleValue
-57.937

@<SCITEGIC>MOL_PROPERTY
W(SA)
SciTegic.value.DoubleValue
2.080

@<SCITEGIC>MOL_PROPERTY
Valence
SciTegic.value.DoubleValue
2.671

@<SCITEGIC>MOL_PROPERTY
Coulomb
SciTegic.value.DoubleValue
45.371

@<SCITEGIC>MOL_PROPERTY
VdW
SciTegic.value.DoubleValue
0.684

@<SCITEGIC>MOL_PROPERTY
VdW6
SciTegic.value.DoubleValue
-6.511

@<SCITEGIC>MOL_PROPERTY
VdW12
SciTegic.value.DoubleValue
7.196

@<SCITEGIC>MOL_PROPERTY
Bond
SciTegic.value.DoubleValue
0.203

@<SCITEGIC>MOL_PROPERTY
Angle
SciTegic.value.DoubleValue
0.915

@<SCITEGIC>MOL_PROPERTY
Pdih
SciTegic.value.DoubleValue
1.554

@<SCITEGIC>MOL_PROPERTY
Idih
SciTegic.value.DoubleValue
0.000

@<SCITEGIC>MOL_PROPERTY
Tether
SciTegic.value.DoubleValue
0.000

@<TRIPOS>MOLECULE
guest-2_confgen4.mol2 : confsearch ligand conformer 40
          23          22           1
SMALL
USER_CHARGES
 
@<TRIPOS>ATOM
       1    N1      19.410475   16.135128   21.418257 N.4        1 MOL1        -0.5940
       2    H1      18.485131   16.336382   21.809114 H          1 MOL1         0.3649
       3    H2      19.572850   15.129241   21.535534 H          1 MOL1         0.3649
       4    H3      19.359307   16.313907   20.410267 H          1 MOL1         0.3649
       5    C1      20.494188   16.961379   22.083176 C.3        1 MOL1         0.0207
       6    H4      21.451746   16.664716   21.646545 H          1 MOL1         0.0950
       7    H5      20.511234   16.706354   23.146230 H          1 MOL1         0.0950
       8    C2      20.307093   18.482059   21.917992 C.3        1 MOL1        -0.1415
       9    H6      21.189175   18.982816   22.332525 H          1 MOL1         0.0976
      10    H7      20.285431   18.732405   20.849055 H          1 MOL1         0.0976
      11    C3      19.020346   19.003730   22.607061 C.3        1 MOL1        -0.1375
      12    H8      18.988035   18.676030   23.655357 H          1 MOL1         0.0976
      13    H9      18.151606   18.543961   22.117272 H          1 MOL1         0.0976
      14    C4      18.860978   20.544599   22.526869 C.3        1 MOL1        -0.1375
      15    H10     19.343545   20.931568   21.618807 H          1 MOL1         0.0976
      16    H11     17.792062   20.772718   22.413415 H          1 MOL1         0.0976
      17    C5      19.371563   21.314704   23.771638 C.3        1 MOL1        -0.1350
      18    H12     18.810515   20.992263   24.659912 H          1 MOL1         0.0976
      19    H13     19.143451   22.381580   23.639145 H          1 MOL1         0.0976
      20    C6      20.884954   21.161854   24.038688 C.3        1 MOL1        -0.2365
      21    H14     21.472633   21.421103   23.148598 H          1 MOL1         0.0987
      22    H15     21.135494   20.136615   24.337669 H          1 MOL1         0.0987
      23    H16     21.199424   21.826536   24.853669 H          1 MOL1         0.0987
@<TRIPOS>BOND
    1     1     2    1
    2     1     3    1
    3     1     4    1
    4     1     5    1
    5     5     6    1
    6     5     7    1
    7     5     8    1
    8     8     9    1
    9     8    10    1
   10     8    11    1
   11    11    12    1
   12    11    13    1
   13    11    14    1
   14    14    15    1
   15    14    16    1
   16    14    17    1
   17    17    18    1
   18    17    19    1
   19    17    20    1
   20    20    21    1
   21    20    22    1
   22    20    23    1
@<TRIPOS>SUBSTRUCTURE
       1 MOL1            1 RESIDUE      1      MOL     
@<SCITEGIC>MOL_PROPERTY
VConf Rank
SciTegic.value.IntegerValue
40

@<SCITEGIC>MOL_PROPERTY
Conf_Id
SciTegic.value.IntegerValue
55

@<SCITEGIC>MOL_PROPERTY
Delta U+W
SciTegic.value.DoubleValue
3.232

@<SCITEGIC>MOL_PROPERTY
U+W
SciTegic.value.DoubleValue
-5.150

@<SCITEGIC>MOL_PROPERTY
Grad RMS
SciTegic.value.DoubleValue
0.000000

@<SCITEGIC>MOL_PROPERTY
U
SciTegic.value.DoubleValue
50.625

@<SCITEGIC>MOL_PROPERTY
W
SciTegic.value.DoubleValue
-55.776

@<SCITEGIC>MOL_PROPERTY
W(PB)
SciTegic.value.DoubleValue
-57.839

@<SCITEGIC>MOL_PROPERTY
W(SA)
SciTegic.value.DoubleValue
2.064

@<SCITEGIC>MOL_PROPERTY
Valence
SciTegic.value.DoubleValue
4.837

@<SCITEGIC>MOL_PROPERTY
Coulomb
SciTegic.value.DoubleValue
45.097

@<SCITEGIC>MOL_PROPERTY
VdW
SciTegic.value.DoubleValue
0.692

@<SCITEGIC>MOL_PROPERTY
VdW6
SciTegic.value.DoubleValue
-6.655

@<SCITEGIC>MOL_PROPERTY
VdW12
SciTegic.value.DoubleValue
7.347

@<SCITEGIC>MOL_PROPERTY
Bond
SciTegic.value.DoubleValue
0.223

@<SCITEGIC>MOL_PROPERTY
Angle
SciTegic.value.DoubleValue
1.167

@<SCITEGIC>MOL_PROPERTY
Pdih
SciTegic.value.DoubleValue
3.447

@<SCITEGIC>MOL_PROPERTY
Idih
SciTegic.value.DoubleValue
0.000

@<SCITEGIC>MOL_PROPERTY
Tether
SciTegic.value.DoubleValue
0.000

@<TRIPOS>MOLECULE
guest-2_confgen4.mol2 : confsearch ligand conformer 41
          23          22           1
SMALL
USER_CHARGES
 
@<TRIPOS>ATOM
       1    N1      19.114413   17.522542   25.257006 N.4        1 MOL1        -0.5940
       2    H1      18.497709   17.934624   25.964603 H          1 MOL1         0.3649
       3    H2      19.820772   16.975072   25.760327 H          1 MOL1         0.3649
       4    H3      18.551252   16.857867   24.716808 H          1 MOL1         0.3649
       5    C1      19.745285   18.579035   24.372997 C.3        1 MOL1         0.0207
       6    H4      20.412226   18.072883   23.672754 H          1 MOL1         0.0950
       7    H5      20.350228   19.231372   25.008528 H          1 MOL1         0.0950
       8    C2      18.706817   19.423275   23.608387 C.3        1 MOL1        -0.1415
       9    H6      18.060779   18.775967   23.000530 H          1 MOL1         0.0976
      10    H7      18.053529   19.908680   24.345690 H          1 MOL1         0.0976
      11    C3      19.348660   20.519897   22.721301 C.3        1 MOL1        -0.1375
      12    H8      20.225189   20.948049   23.227251 H          1 MOL1         0.0976
      13    H9      18.629446   21.345042   22.624530 H          1 MOL1         0.0976
      14    C4      19.730209   20.062823   21.289177 C.3        1 MOL1        -0.1375
      15    H10     18.826786   19.734287   20.757027 H          1 MOL1         0.0976
      16    H11     20.105334   20.937623   20.740135 H          1 MOL1         0.0976
      17    C5      20.794312   18.942561   21.232625 C.3        1 MOL1        -0.1350
      18    H12     20.378428   18.011042   21.637876 H          1 MOL1         0.0976
      19    H13     21.656729   19.214067   21.857284 H          1 MOL1         0.0976
      20    C6      21.270637   18.682382   19.787599 C.3        1 MOL1        -0.2365
      21    H14     21.731002   19.580322   19.355186 H          1 MOL1         0.0987
      22    H15     20.433001   18.383727   19.143844 H          1 MOL1         0.0987
      23    H16     22.016895   17.877649   19.764484 H          1 MOL1         0.0987
@<TRIPOS>BOND
    1     1     2    1
    2     1     3    1
    3     1     4    1
    4     1     5    1
    5     5     6    1
    6     5     7    1
    7     5     8    1
    8     8     9    1
    9     8    10    1
   10     8    11    1
   11    11    12    1
   12    11    13    1
   13    11    14    1
   14    14    15    1
   15    14    16    1
   16    14    17    1
   17    17    18    1
   18    17    19    1
   19    17    20    1
   20    20    21    1
   21    20    22    1
   22    20    23    1
@<TRIPOS>SUBSTRUCTURE
       1 MOL1            1 RESIDUE      1      MOL     
@<SCITEGIC>MOL_PROPERTY
VConf Rank
SciTegic.value.IntegerValue
41

@<SCITEGIC>MOL_PROPERTY
Conf_Id
SciTegic.value.IntegerValue
93

@<SCITEGIC>MOL_PROPERTY
Delta U+W
SciTegic.value.DoubleValue
2.589

@<SCITEGIC>MOL_PROPERTY
U+W
SciTegic.value.DoubleValue
-5.793

@<SCITEGIC>MOL_PROPERTY
Grad RMS
SciTegic.value.DoubleValue
0.000000

@<SCITEGIC>MOL_PROPERTY
U
SciTegic.value.DoubleValue
50.122

@<SCITEGIC>MOL_PROPERTY
W
SciTegic.value.DoubleValue
-55.915

@<SCITEGIC>MOL_PROPERTY
W(PB)
SciTegic.value.DoubleValue
-58.031

@<SCITEGIC>MOL_PROPERTY
W(SA)
SciTegic.value.DoubleValue
2.115

@<SCITEGIC>MOL_PROPERTY
Valence
SciTegic.value.DoubleValue
4.132

@<SCITEGIC>MOL_PROPERTY
Coulomb
SciTegic.value.DoubleValue
45.536

@<SCITEGIC>MOL_PROPERTY
VdW
SciTegic.value.DoubleValue
0.454

@<SCITEGIC>MOL_PROPERTY
VdW6
SciTegic.value.DoubleValue
-6.262

@<SCITEGIC>MOL_PROPERTY
VdW12
SciTegic.value.DoubleValue
6.715

@<SCITEGIC>MOL_PROPERTY
Bond
SciTegic.value.DoubleValue
0.182

@<SCITEGIC>MOL_PROPERTY
Angle
SciTegic.value.DoubleValue
1.157

@<SCITEGIC>MOL_PROPERTY
Pdih
SciTegic.value.DoubleValue
2.794

@<SCITEGIC>MOL_PROPERTY
Idih
SciTegic.value.DoubleValue
0.000

@<SCITEGIC>MOL_PROPERTY
Tether
SciTegic.value.DoubleValue
0.000

@<TRIPOS>MOLECULE
guest-2_confgen4.mol2 : confsearch ligand conformer 42
          23          22           1
SMALL
USER_CHARGES
 
@<TRIPOS>ATOM
       1    N1      19.555192   15.837788   22.765513 N.4        1 MOL1        -0.5940
       2    H1      20.570355   15.803529   22.903449 H          1 MOL1         0.3649
       3    H2      19.348420   15.278002   21.931315 H          1 MOL1         0.3649
       4    H3      19.126495   15.354786   23.561601 H          1 MOL1         0.3649
       5    C1      19.050437   17.259831   22.628909 C.3        1 MOL1         0.0207
       6    H4      17.971570   17.218269   22.456515 H          1 MOL1         0.0950
       7    H5      19.519372   17.696548   21.745326 H          1 MOL1         0.0950
       8    C2      19.340782   18.124108   23.871693 C.3        1 MOL1        -0.1415
       9    H6      18.859346   17.648781   24.736738 H          1 MOL1         0.0976
      10    H7      20.417909   18.137281   24.084969 H          1 MOL1         0.0976
      11    C3      18.804988   19.572579   23.743948 C.3        1 MOL1        -0.1375
      12    H8      18.590440   19.947603   24.754307 H          1 MOL1         0.0976
      13    H9      17.840856   19.572133   23.216640 H          1 MOL1         0.0976
      14    C4      19.779913   20.574011   23.071543 C.3        1 MOL1        -0.1375
      15    H10     19.320458   21.571664   23.103615 H          1 MOL1         0.0976
      16    H11     20.700756   20.644042   23.666889 H          1 MOL1         0.0976
      17    C5      20.141105   20.236371   21.606605 C.3        1 MOL1        -0.1350
      18    H12     19.224902   20.051535   21.028604 H          1 MOL1         0.0976
      19    H13     20.739919   19.317075   21.571517 H          1 MOL1         0.0976
      20    C6      20.944897   21.374191   20.941800 C.3        1 MOL1        -0.2365
      21    H14     21.202136   21.113595   19.906934 H          1 MOL1         0.0987
      22    H15     21.880400   21.565130   21.483672 H          1 MOL1         0.0987
      23    H16     20.366052   22.306749   20.919701 H          1 MOL1         0.0987
@<TRIPOS>BOND
    1     1     2    1
    2     1     3    1
    3     1     4    1
    4     1     5    1
    5     5     6    1
    6     5     7    1
    7     5     8    1
    8     8     9    1
    9     8    10    1
   10     8    11    1
   11    11    12    1
   12    11    13    1
   13    11    14    1
   14    14    15    1
   15    14    16    1
   16    14    17    1
   17    17    18    1
   18    17    19    1
   19    17    20    1
   20    20    21    1
   21    20    22    1
   22    20    23    1
@<TRIPOS>SUBSTRUCTURE
       1 MOL1            1 RESIDUE      1      MOL     
@<SCITEGIC>MOL_PROPERTY
VConf Rank
SciTegic.value.IntegerValue
42

@<SCITEGIC>MOL_PROPERTY
Conf_Id
SciTegic.value.IntegerValue
70

@<SCITEGIC>MOL_PROPERTY
Delta U+W
SciTegic.value.DoubleValue
2.599

@<SCITEGIC>MOL_PROPERTY
U+W
SciTegic.value.DoubleValue
-5.783

@<SCITEGIC>MOL_PROPERTY
Grad RMS
SciTegic.value.DoubleValue
0.000000

@<SCITEGIC>MOL_PROPERTY
U
SciTegic.value.DoubleValue
50.122

@<SCITEGIC>MOL_PROPERTY
W
SciTegic.value.DoubleValue
-55.906

@<SCITEGIC>MOL_PROPERTY
W(PB)
SciTegic.value.DoubleValue
-58.010

@<SCITEGIC>MOL_PROPERTY
W(SA)
SciTegic.value.DoubleValue
2.105

@<SCITEGIC>MOL_PROPERTY
Valence
SciTegic.value.DoubleValue
4.132

@<SCITEGIC>MOL_PROPERTY
Coulomb
SciTegic.value.DoubleValue
45.536

@<SCITEGIC>MOL_PROPERTY
VdW
SciTegic.value.DoubleValue
0.454

@<SCITEGIC>MOL_PROPERTY
VdW6
SciTegic.value.DoubleValue
-6.262

@<SCITEGIC>MOL_PROPERTY
VdW12
SciTegic.value.DoubleValue
6.715

@<SCITEGIC>MOL_PROPERTY
Bond
SciTegic.value.DoubleValue
0.182

@<SCITEGIC>MOL_PROPERTY
Angle
SciTegic.value.DoubleValue
1.157

@<SCITEGIC>MOL_PROPERTY
Pdih
SciTegic.value.DoubleValue
2.794

@<SCITEGIC>MOL_PROPERTY
Idih
SciTegic.value.DoubleValue
0.000

@<SCITEGIC>MOL_PROPERTY
Tether
SciTegic.value.DoubleValue
0.000

@<TRIPOS>MOLECULE
guest-2_confgen4.mol2 : confsearch ligand conformer 43
          23          22           1
SMALL
USER_CHARGES
 
@<TRIPOS>ATOM
       1    N1      18.105929   17.037675   21.413694 N.4        1 MOL1        -0.5940
       2    H1      17.087241   17.015290   21.524514 H          1 MOL1         0.3649
       3    H2      18.381420   16.141973   20.997056 H          1 MOL1         0.3649
       4    H3      18.319950   17.767708   20.727609 H          1 MOL1         0.3649
       5    C1      18.810150   17.286169   22.732996 C.3        1 MOL1         0.0207
       6    H4      19.887995   17.264588   22.552081 H          1 MOL1         0.0950
       7    H5      18.561813   16.459409   23.404033 H          1 MOL1         0.0950
       8    C2      18.421141   18.621327   23.399186 C.3        1 MOL1        -0.1415
       9    H6      17.343057   18.617756   23.607600 H          1 MOL1         0.0976
      10    H7      18.914179   18.685881   24.377533 H          1 MOL1         0.0976
      11    C3      18.772596   19.873663   22.553527 C.3        1 MOL1        -0.1375
      12    H8      18.497813   20.772954   23.121833 H          1 MOL1         0.0976
      13    H9      18.145173   19.889596   21.652239 H          1 MOL1         0.0976
      14    C4      20.260468   19.978581   22.129227 C.3        1 MOL1        -0.1375
      15    H10     20.528005   19.133900   21.480514 H          1 MOL1         0.0976
      16    H11     20.382451   20.881670   21.515315 H          1 MOL1         0.0976
      17    C5      21.240385   20.047990   23.324149 C.3        1 MOL1        -0.1350
      18    H12     21.186195   19.122525   23.912806 H          1 MOL1         0.0976
      19    H13     20.950782   20.869517   23.994175 H          1 MOL1         0.0976
      20    C6      22.695779   20.258563   22.855247 C.3        1 MOL1        -0.2365
      21    H14     23.377318   20.302868   23.714640 H          1 MOL1         0.0987
      22    H15     22.798702   21.197269   22.295398 H          1 MOL1         0.0987
      23    H16     23.024273   19.435883   22.206792 H          1 MOL1         0.0987
@<TRIPOS>BOND
    1     1     2    1
    2     1     3    1
    3     1     4    1
    4     1     5    1
    5     5     6    1
    6     5     7    1
    7     5     8    1
    8     8     9    1
    9     8    10    1
   10     8    11    1
   11    11    12    1
   12    11    13    1
   13    11    14    1
   14    14    15    1
   15    14    16    1
   16    14    17    1
   17    17    18    1
   18    17    19    1
   19    17    20    1
   20    20    21    1
   21    20    22    1
   22    20    23    1
@<TRIPOS>SUBSTRUCTURE
       1 MOL1            1 RESIDUE      1      MOL     
@<SCITEGIC>MOL_PROPERTY
VConf Rank
SciTegic.value.IntegerValue
43

@<SCITEGIC>MOL_PROPERTY
Conf_Id
SciTegic.value.IntegerValue
72

@<SCITEGIC>MOL_PROPERTY
Delta U+W
SciTegic.value.DoubleValue
1.051

@<SCITEGIC>MOL_PROPERTY
U+W
SciTegic.value.DoubleValue
-7.331

@<SCITEGIC>MOL_PROPERTY
Grad RMS
SciTegic.value.DoubleValue
0.000000

@<SCITEGIC>MOL_PROPERTY
U
SciTegic.value.DoubleValue
48.590

@<SCITEGIC>MOL_PROPERTY
W
SciTegic.value.DoubleValue
-55.922

@<SCITEGIC>MOL_PROPERTY
W(PB)
SciTegic.value.DoubleValue
-58.012

@<SCITEGIC>MOL_PROPERTY
W(SA)
SciTegic.value.DoubleValue
2.090

@<SCITEGIC>MOL_PROPERTY
Valence
SciTegic.value.DoubleValue
2.601

@<SCITEGIC>MOL_PROPERTY
Coulomb
SciTegic.value.DoubleValue
45.520

@<SCITEGIC>MOL_PROPERTY
VdW
SciTegic.value.DoubleValue
0.469

@<SCITEGIC>MOL_PROPERTY
VdW6
SciTegic.value.DoubleValue
-6.867

@<SCITEGIC>MOL_PROPERTY
VdW12
SciTegic.value.DoubleValue
7.336

@<SCITEGIC>MOL_PROPERTY
Bond
SciTegic.value.DoubleValue
0.205

@<SCITEGIC>MOL_PROPERTY
Angle
SciTegic.value.DoubleValue
0.962

@<SCITEGIC>MOL_PROPERTY
Pdih
SciTegic.value.DoubleValue
1.434

@<SCITEGIC>MOL_PROPERTY
Idih
SciTegic.value.DoubleValue
0.000

@<SCITEGIC>MOL_PROPERTY
Tether
SciTegic.value.DoubleValue
0.000

@<TRIPOS>MOLECULE
guest-2_confgen4.mol2 : confsearch ligand conformer 44
          23          22           1
SMALL
USER_CHARGES
 
@<TRIPOS>ATOM
       1    N1      17.160323   20.178921   23.891878 N.4        1 MOL1        -0.5940
       2    H1      16.420452   19.725272   24.438459 H          1 MOL1         0.3649
       3    H2      16.713391   20.922130   23.345366 H          1 MOL1         0.3649
       4    H3      17.789446   20.633536   24.561349 H          1 MOL1         0.3649
       5    C1      17.893416   19.190613   23.007875 C.3        1 MOL1         0.0207
       6    H4      17.161650   18.724818   22.342365 H          1 MOL1         0.0950
       7    H5      18.316930   18.414631   23.650852 H          1 MOL1         0.0950
       8    C2      19.012286   19.841089   22.173112 C.3        1 MOL1        -0.1415
       9    H6      18.582228   20.643468   21.559135 H          1 MOL1         0.0976
      10    H7      19.740664   20.320195   22.839711 H          1 MOL1         0.0976
      11    C3      19.729314   18.830342   21.243960 C.3        1 MOL1        -0.1375
      12    H8      20.496753   19.358820   20.662842 H          1 MOL1         0.0976
      13    H9      19.007612   18.452935   20.506382 H          1 MOL1         0.0976
      14    C4      20.372192   17.618865   21.971827 C.3        1 MOL1        -0.1375
      15    H10     19.581905   16.998248   22.415206 H          1 MOL1         0.0976
      16    H11     20.863011   16.980898   21.223987 H          1 MOL1         0.0976
      17    C5      21.401665   17.981237   23.072322 C.3        1 MOL1        -0.1350
      18    H12     21.776029   17.050788   23.521552 H          1 MOL1         0.0976
      19    H13     20.910137   18.531056   23.886089 H          1 MOL1         0.0976
      20    C6      22.603276   18.796396   22.543017 C.3        1 MOL1        -0.2365
      21    H14     23.103610   18.271420   21.719000 H          1 MOL1         0.0987
      22    H15     23.342352   18.953276   23.339257 H          1 MOL1         0.0987
      23    H16     22.291523   19.784389   22.182130 H          1 MOL1         0.0987
@<TRIPOS>BOND
    1     1     2    1
    2     1     3    1
    3     1     4    1
    4     1     5    1
    5     5     6    1
    6     5     7    1
    7     5     8    1
    8     8     9    1
    9     8    10    1
   10     8    11    1
   11    11    12    1
   12    11    13    1
   13    11    14    1
   14    14    15    1
   15    14    16    1
   16    14    17    1
   17    17    18    1
   18    17    19    1
   19    17    20    1
   20    20    21    1
   21    20    22    1
   22    20    23    1
@<TRIPOS>SUBSTRUCTURE
       1 MOL1            1 RESIDUE      1      MOL     
@<SCITEGIC>MOL_PROPERTY
VConf Rank
SciTegic.value.IntegerValue
44

@<SCITEGIC>MOL_PROPERTY
Conf_Id
SciTegic.value.IntegerValue
26

@<SCITEGIC>MOL_PROPERTY
Delta U+W
SciTegic.value.DoubleValue
1.076

@<SCITEGIC>MOL_PROPERTY
U+W
SciTegic.value.DoubleValue
-7.306

@<SCITEGIC>MOL_PROPERTY
Grad RMS
SciTegic.value.DoubleValue
0.000000

@<SCITEGIC>MOL_PROPERTY
U
SciTegic.value.DoubleValue
48.641

@<SCITEGIC>MOL_PROPERTY
W
SciTegic.value.DoubleValue
-55.947

@<SCITEGIC>MOL_PROPERTY
W(PB)
SciTegic.value.DoubleValue
-58.031

@<SCITEGIC>MOL_PROPERTY
W(SA)
SciTegic.value.DoubleValue
2.084

@<SCITEGIC>MOL_PROPERTY
Valence
SciTegic.value.DoubleValue
2.922

@<SCITEGIC>MOL_PROPERTY
Coulomb
SciTegic.value.DoubleValue
45.269

@<SCITEGIC>MOL_PROPERTY
VdW
SciTegic.value.DoubleValue
0.449

@<SCITEGIC>MOL_PROPERTY
VdW6
SciTegic.value.DoubleValue
-7.045

@<SCITEGIC>MOL_PROPERTY
VdW12
SciTegic.value.DoubleValue
7.494

@<SCITEGIC>MOL_PROPERTY
Bond
SciTegic.value.DoubleValue
0.220

@<SCITEGIC>MOL_PROPERTY
Angle
SciTegic.value.DoubleValue
1.205

@<SCITEGIC>MOL_PROPERTY
Pdih
SciTegic.value.DoubleValue
1.497

@<SCITEGIC>MOL_PROPERTY
Idih
SciTegic.value.DoubleValue
0.000

@<SCITEGIC>MOL_PROPERTY
Tether
SciTegic.value.DoubleValue
0.000

@<TRIPOS>MOLECULE
guest-2_confgen4.mol2 : confsearch ligand conformer 45
          23          22           1
SMALL
USER_CHARGES
 
@<TRIPOS>ATOM
       1    N1      22.539646   20.445975   23.146743 N.4        1 MOL1        -0.5940
       2    H1      22.610063   20.918988   24.053430 H          1 MOL1         0.3649
       3    H2      23.154538   20.950482   22.499179 H          1 MOL1         0.3649
       4    H3      22.935815   19.507953   23.264339 H          1 MOL1         0.3649
       5    C1      21.111104   20.397851   22.644165 C.3        1 MOL1         0.0207
       6    H4      21.115425   19.910216   21.665836 H          1 MOL1         0.0950
       7    H5      20.763440   21.426307   22.514718 H          1 MOL1         0.0950
       8    C2      20.161200   19.645882   23.594978 C.3        1 MOL1        -0.1415
       9    H6      20.516492   18.617135   23.735971 H          1 MOL1         0.0976
      10    H7      20.192902   20.121085   24.584375 H          1 MOL1         0.0976
      11    C3      18.696345   19.636115   23.091821 C.3        1 MOL1        -0.1375
      12    H8      18.320804   20.668559   23.073369 H          1 MOL1         0.0976
      13    H9      18.069551   19.106677   23.821736 H          1 MOL1         0.0976
      14    C4      18.494906   19.011169   21.684831 C.3        1 MOL1        -0.1375
      15    H10     17.424795   19.041904   21.437678 H          1 MOL1         0.0976
      16    H11     18.989145   19.640009   20.932110 H          1 MOL1         0.0976
      17    C5      19.001367   17.554365   21.531722 C.3        1 MOL1        -0.1350
      18    H12     20.090022   17.514075   21.670744 H          1 MOL1         0.0976
      19    H13     18.817982   17.226696   20.498913 H          1 MOL1         0.0976
      20    C6      18.314833   16.562138   22.497473 C.3        1 MOL1        -0.2365
      21    H14     18.559523   16.784358   23.543563 H          1 MOL1         0.0987
      22    H15     18.643735   15.535298   22.291890 H          1 MOL1         0.0987
      23    H16     17.223342   16.594028   22.385354 H          1 MOL1         0.0987
@<TRIPOS>BOND
    1     1     2    1
    2     1     3    1
    3     1     4    1
    4     1     5    1
    5     5     6    1
    6     5     7    1
    7     5     8    1
    8     8     9    1
    9     8    10    1
   10     8    11    1
   11    11    12    1
   12    11    13    1
   13    11    14    1
   14    14    15    1
   15    14    16    1
   16    14    17    1
   17    17    18    1
   18    17    19    1
   19    17    20    1
   20    20    21    1
   21    20    22    1
   22    20    23    1
@<TRIPOS>SUBSTRUCTURE
       1 MOL1            1 RESIDUE      1      MOL     
@<SCITEGIC>MOL_PROPERTY
VConf Rank
SciTegic.value.IntegerValue
45

@<SCITEGIC>MOL_PROPERTY
Conf_Id
SciTegic.value.IntegerValue
90

@<SCITEGIC>MOL_PROPERTY
Delta U+W
SciTegic.value.DoubleValue
1.131

@<SCITEGIC>MOL_PROPERTY
U+W
SciTegic.value.DoubleValue
-7.251

@<SCITEGIC>MOL_PROPERTY
Grad RMS
SciTegic.value.DoubleValue
0.000000

@<SCITEGIC>MOL_PROPERTY
U
SciTegic.value.DoubleValue
48.641

@<SCITEGIC>MOL_PROPERTY
W
SciTegic.value.DoubleValue
-55.892

@<SCITEGIC>MOL_PROPERTY
W(PB)
SciTegic.value.DoubleValue
-57.962

@<SCITEGIC>MOL_PROPERTY
W(SA)
SciTegic.value.DoubleValue
2.070

@<SCITEGIC>MOL_PROPERTY
Valence
SciTegic.value.DoubleValue
2.922

@<SCITEGIC>MOL_PROPERTY
Coulomb
SciTegic.value.DoubleValue
45.269

@<SCITEGIC>MOL_PROPERTY
VdW
SciTegic.value.DoubleValue
0.450

@<SCITEGIC>MOL_PROPERTY
VdW6
SciTegic.value.DoubleValue
-7.045

@<SCITEGIC>MOL_PROPERTY
VdW12
SciTegic.value.DoubleValue
7.495

@<SCITEGIC>MOL_PROPERTY
Bond
SciTegic.value.DoubleValue
0.220

@<SCITEGIC>MOL_PROPERTY
Angle
SciTegic.value.DoubleValue
1.205

@<SCITEGIC>MOL_PROPERTY
Pdih
SciTegic.value.DoubleValue
1.497

@<SCITEGIC>MOL_PROPERTY
Idih
SciTegic.value.DoubleValue
0.000

@<SCITEGIC>MOL_PROPERTY
Tether
SciTegic.value.DoubleValue
0.000

@<TRIPOS>MOLECULE
guest-2_confgen4.mol2 : confsearch ligand conformer 46
          23          22           1
SMALL
USER_CHARGES
 
@<TRIPOS>ATOM
       1    N1      22.444459   18.985161   22.400026 N.4        1 MOL1        -0.5940
       2    H1      23.139982   19.443829   21.801926 H          1 MOL1         0.3649
       3    H2      21.795728   18.488805   21.781639 H          1 MOL1         0.3649
       4    H3      22.942414   18.277291   22.949145 H          1 MOL1         0.3649
       5    C1      21.720970   19.979267   23.286995 C.3        1 MOL1         0.0207
       6    H4      21.239586   20.720031   22.643368 H          1 MOL1         0.0950
       7    H5      22.472208   20.493619   23.892472 H          1 MOL1         0.0950
       8    C2      20.671301   19.333184   24.214173 C.3        1 MOL1        -0.1415
       9    H6      21.173111   18.625989   24.887859 H          1 MOL1         0.0976
      10    H7      20.240582   20.113339   24.855799 H          1 MOL1         0.0976
      11    C3      19.530687   18.602926   23.461641 C.3        1 MOL1        -0.1375
      12    H8      18.846706   18.165800   24.202048 H          1 MOL1         0.0976
      13    H9      19.946812   17.760470   22.894885 H          1 MOL1         0.0976
      14    C4      18.729832   19.537226   22.519734 C.3        1 MOL1        -0.1375
      15    H10     18.394597   20.416273   23.087326 H          1 MOL1         0.0976
      16    H11     19.379161   19.915103   21.718790 H          1 MOL1         0.0976
      17    C5      17.490600   18.857171   21.889478 C.3        1 MOL1        -0.1350
      18    H12     16.922951   19.610938   21.326056 H          1 MOL1         0.0976
      19    H13     16.820061   18.497229   22.682321 H          1 MOL1         0.0976
      20    C6      17.847473   17.690384   20.940591 C.3        1 MOL1        -0.2365
      21    H14     18.538617   18.018509   20.153451 H          1 MOL1         0.0987
      22    H15     16.943924   17.302305   20.452811 H          1 MOL1         0.0987
      23    H16     18.312485   16.857555   21.482413 H          1 MOL1         0.0987
@<TRIPOS>BOND
    1     1     2    1
    2     1     3    1
    3     1     4    1
    4     1     5    1
    5     5     6    1
    6     5     7    1
    7     5     8    1
    8     8     9    1
    9     8    10    1
   10     8    11    1
   11    11    12    1
   12    11    13    1
   13    11    14    1
   14    14    15    1
   15    14    16    1
   16    14    17    1
   17    17    18    1
   18    17    19    1
   19    17    20    1
   20    20    21    1
   21    20    22    1
   22    20    23    1
@<TRIPOS>SUBSTRUCTURE
       1 MOL1            1 RESIDUE      1      MOL     
@<SCITEGIC>MOL_PROPERTY
VConf Rank
SciTegic.value.IntegerValue
46

@<SCITEGIC>MOL_PROPERTY
Conf_Id
SciTegic.value.IntegerValue
85

@<SCITEGIC>MOL_PROPERTY
Delta U+W
SciTegic.value.DoubleValue
1.193

@<SCITEGIC>MOL_PROPERTY
U+W
SciTegic.value.DoubleValue
-7.189

@<SCITEGIC>MOL_PROPERTY
Grad RMS
SciTegic.value.DoubleValue
0.000000

@<SCITEGIC>MOL_PROPERTY
U
SciTegic.value.DoubleValue
48.775

@<SCITEGIC>MOL_PROPERTY
W
SciTegic.value.DoubleValue
-55.965

@<SCITEGIC>MOL_PROPERTY
W(PB)
SciTegic.value.DoubleValue
-58.038

@<SCITEGIC>MOL_PROPERTY
W(SA)
SciTegic.value.DoubleValue
2.073

@<SCITEGIC>MOL_PROPERTY
Valence
SciTegic.value.DoubleValue
2.602

@<SCITEGIC>MOL_PROPERTY
Coulomb
SciTegic.value.DoubleValue
45.581

@<SCITEGIC>MOL_PROPERTY
VdW
SciTegic.value.DoubleValue
0.592

@<SCITEGIC>MOL_PROPERTY
VdW6
SciTegic.value.DoubleValue
-6.616

@<SCITEGIC>MOL_PROPERTY
VdW12
SciTegic.value.DoubleValue
7.208

@<SCITEGIC>MOL_PROPERTY
Bond
SciTegic.value.DoubleValue
0.196

@<SCITEGIC>MOL_PROPERTY
Angle
SciTegic.value.DoubleValue
0.832

@<SCITEGIC>MOL_PROPERTY
Pdih
SciTegic.value.DoubleValue
1.574

@<SCITEGIC>MOL_PROPERTY
Idih
SciTegic.value.DoubleValue
0.000

@<SCITEGIC>MOL_PROPERTY
Tether
SciTegic.value.DoubleValue
0.000

@<TRIPOS>MOLECULE
guest-2_confgen4.mol2 : confsearch ligand conformer 47
          23          22           1
SMALL
USER_CHARGES
 
@<TRIPOS>ATOM
       1    N1      20.394173   20.716938   23.357539 N.4        1 MOL1        -0.5940
       2    H1      20.742035   19.753377   23.322707 H          1 MOL1         0.3649
       3    H2      20.493749   21.045045   24.324355 H          1 MOL1         0.3649
       4    H3      21.020342   21.289346   22.781973 H          1 MOL1         0.3649
       5    C1      18.957736   20.802735   22.879053 C.3        1 MOL1         0.0207
       6    H4      18.661813   21.853323   22.943892 H          1 MOL1         0.0950
       7    H5      18.325891   20.229639   23.562764 H          1 MOL1         0.0950
       8    C2      18.747740   20.309026   21.433068 C.3        1 MOL1        -0.1415
       9    H6      17.822851   20.765160   21.055762 H          1 MOL1         0.0976
      10    H7      19.552238   20.690388   20.790247 H          1 MOL1         0.0976
      11    C3      18.617589   18.770576   21.270760 C.3        1 MOL1        -0.1375
      12    H8      18.417557   18.568203   20.209375 H          1 MOL1         0.0976
      13    H9      17.730659   18.410264   21.810204 H          1 MOL1         0.0976
      14    C4      19.865938   17.951721   21.688324 C.3        1 MOL1        -0.1375
      15    H10     19.967418   17.097340   21.004604 H          1 MOL1         0.0976
      16    H11     20.775923   18.550398   21.549627 H          1 MOL1         0.0976
      17    C5      19.776545   17.397285   23.131138 C.3        1 MOL1        -0.1350
      18    H12     18.953291   16.671365   23.189679 H          1 MOL1         0.0976
      19    H13     19.529633   18.191707   23.845425 H          1 MOL1         0.0976
      20    C6      21.089821   16.709817   23.560695 C.3        1 MOL1        -0.2365
      21    H14     21.333548   15.873891   22.891969 H          1 MOL1         0.0987
      22    H15     21.002709   16.310234   24.579481 H          1 MOL1         0.0987
      23    H16     21.931605   17.414058   23.546249 H          1 MOL1         0.0987
@<TRIPOS>BOND
    1     1     2    1
    2     1     3    1
    3     1     4    1
    4     1     5    1
    5     5     6    1
    6     5     7    1
    7     5     8    1
    8     8     9    1
    9     8    10    1
   10     8    11    1
   11    11    12    1
   12    11    13    1
   13    11    14    1
   14    14    15    1
   15    14    16    1
   16    14    17    1
   17    17    18    1
   18    17    19    1
   19    17    20    1
   20    20    21    1
   21    20    22    1
   22    20    23    1
@<TRIPOS>SUBSTRUCTURE
       1 MOL1            1 RESIDUE      1      MOL     
@<SCITEGIC>MOL_PROPERTY
VConf Rank
SciTegic.value.IntegerValue
47

@<SCITEGIC>MOL_PROPERTY
Conf_Id
SciTegic.value.IntegerValue
82

@<SCITEGIC>MOL_PROPERTY
Delta U+W
SciTegic.value.DoubleValue
5.994

@<SCITEGIC>MOL_PROPERTY
U+W
SciTegic.value.DoubleValue
-2.388

@<SCITEGIC>MOL_PROPERTY
Grad RMS
SciTegic.value.DoubleValue
0.000000

@<SCITEGIC>MOL_PROPERTY
U
SciTegic.value.DoubleValue
52.836

@<SCITEGIC>MOL_PROPERTY
W
SciTegic.value.DoubleValue
-55.224

@<SCITEGIC>MOL_PROPERTY
W(PB)
SciTegic.value.DoubleValue
-57.261

@<SCITEGIC>MOL_PROPERTY
W(SA)
SciTegic.value.DoubleValue
2.037

@<SCITEGIC>MOL_PROPERTY
Valence
SciTegic.value.DoubleValue
5.785

@<SCITEGIC>MOL_PROPERTY
Coulomb
SciTegic.value.DoubleValue
46.744

@<SCITEGIC>MOL_PROPERTY
VdW
SciTegic.value.DoubleValue
0.307

@<SCITEGIC>MOL_PROPERTY
VdW6
SciTegic.value.DoubleValue
-7.672

@<SCITEGIC>MOL_PROPERTY
VdW12
SciTegic.value.DoubleValue
7.979

@<SCITEGIC>MOL_PROPERTY
Bond
SciTegic.value.DoubleValue
0.217

@<SCITEGIC>MOL_PROPERTY
Angle
SciTegic.value.DoubleValue
1.470

@<SCITEGIC>MOL_PROPERTY
Pdih
SciTegic.value.DoubleValue
4.098

@<SCITEGIC>MOL_PROPERTY
Idih
SciTegic.value.DoubleValue
0.000

@<SCITEGIC>MOL_PROPERTY
Tether
SciTegic.value.DoubleValue
0.000

@<TRIPOS>MOLECULE
guest-2_confgen4.mol2 : confsearch ligand conformer 48
          23          22           1
SMALL
USER_CHARGES
 
@<TRIPOS>ATOM
       1    N1      20.943669   20.601553   23.272046 N.4        1 MOL1        -0.5940
       2    H1      21.908152   20.707560   22.941061 H          1 MOL1         0.3649
       3    H2      20.657785   21.509199   23.655124 H          1 MOL1         0.3649
       4    H3      20.357438   20.415751   22.451994 H          1 MOL1         0.3649
       5    C1      20.822102   19.493196   24.299870 C.3        1 MOL1         0.0207
       6    H4      19.792309   19.466161   24.665825 H          1 MOL1         0.0950
       7    H5      21.472566   19.761191   25.136880 H          1 MOL1         0.0950
       8    C2      21.227734   18.101692   23.772713 C.3        1 MOL1        -0.1415
       9    H6      22.146511   18.183961   23.176933 H          1 MOL1         0.0976
      10    H7      21.488773   17.479699   24.639213 H          1 MOL1         0.0976
      11    C3      20.132399   17.353976   22.965695 C.3        1 MOL1        -0.1375
      12    H8      19.262890   17.156091   23.607773 H          1 MOL1         0.0976
      13    H9      20.534714   16.365459   22.704005 H          1 MOL1         0.0976
      14    C4      19.681807   18.050585   21.656128 C.3        1 MOL1        -0.1375
      15    H10     20.503270   18.651738   21.244378 H          1 MOL1         0.0976
      16    H11     19.475290   17.277412   20.902941 H          1 MOL1         0.0976
      17    C5      18.399230   18.900606   21.828071 C.3        1 MOL1        -0.1350
      18    H12     18.496146   19.596850   22.669579 H          1 MOL1         0.0976
      19    H13     17.557509   18.239417   22.078011 H          1 MOL1         0.0976
      20    C6      18.060786   19.688863   20.545132 C.3        1 MOL1        -0.2365
      21    H14     18.866601   20.385886   20.281336 H          1 MOL1         0.0987
      22    H15     17.141287   20.273112   20.680605 H          1 MOL1         0.0987
      23    H16     17.905474   19.010630   19.695870 H          1 MOL1         0.0987
@<TRIPOS>BOND
    1     1     2    1
    2     1     3    1
    3     1     4    1
    4     1     5    1
    5     5     6    1
    6     5     7    1
    7     5     8    1
    8     8     9    1
    9     8    10    1
   10     8    11    1
   11    11    12    1
   12    11    13    1
   13    11    14    1
   14    14    15    1
   15    14    16    1
   16    14    17    1
   17    17    18    1
   18    17    19    1
   19    17    20    1
   20    20    21    1
   21    20    22    1
   22    20    23    1
@<TRIPOS>SUBSTRUCTURE
       1 MOL1            1 RESIDUE      1      MOL     
@<SCITEGIC>MOL_PROPERTY
VConf Rank
SciTegic.value.IntegerValue
48

@<SCITEGIC>MOL_PROPERTY
Conf_Id
SciTegic.value.IntegerValue
5

@<SCITEGIC>MOL_PROPERTY
Delta U+W
SciTegic.value.DoubleValue
6.087

@<SCITEGIC>MOL_PROPERTY
U+W
SciTegic.value.DoubleValue
-2.295

@<SCITEGIC>MOL_PROPERTY
Grad RMS
SciTegic.value.DoubleValue
0.000000

@<SCITEGIC>MOL_PROPERTY
U
SciTegic.value.DoubleValue
52.836

@<SCITEGIC>MOL_PROPERTY
W
SciTegic.value.DoubleValue
-55.131

@<SCITEGIC>MOL_PROPERTY
W(PB)
SciTegic.value.DoubleValue
-57.202

@<SCITEGIC>MOL_PROPERTY
W(SA)
SciTegic.value.DoubleValue
2.071

@<SCITEGIC>MOL_PROPERTY
Valence
SciTegic.value.DoubleValue
5.785

@<SCITEGIC>MOL_PROPERTY
Coulomb
SciTegic.value.DoubleValue
46.744

@<SCITEGIC>MOL_PROPERTY
VdW
SciTegic.value.DoubleValue
0.307

@<SCITEGIC>MOL_PROPERTY
VdW6
SciTegic.value.DoubleValue
-7.672

@<SCITEGIC>MOL_PROPERTY
VdW12
SciTegic.value.DoubleValue
7.980

@<SCITEGIC>MOL_PROPERTY
Bond
SciTegic.value.DoubleValue
0.217

@<SCITEGIC>MOL_PROPERTY
Angle
SciTegic.value.DoubleValue
1.470

@<SCITEGIC>MOL_PROPERTY
Pdih
SciTegic.value.DoubleValue
4.098

@<SCITEGIC>MOL_PROPERTY
Idih
SciTegic.value.DoubleValue
0.000

@<SCITEGIC>MOL_PROPERTY
Tether
SciTegic.value.DoubleValue
0.000

@<TRIPOS>MOLECULE
guest-2_confgen4.mol2 : confsearch ligand conformer 49
          23          22           1
SMALL
USER_CHARGES
 
@<TRIPOS>ATOM
       1    N1      22.880526   17.161469   23.895892 N.4        1 MOL1        -0.5940
       2    H1      23.569340   17.829022   23.534239 H          1 MOL1         0.3649
       3    H2      23.315135   16.233293   23.854703 H          1 MOL1         0.3649
       4    H3      22.739921   17.380606   24.887403 H          1 MOL1         0.3649
       5    C1      21.582214   17.210085   23.116201 C.3        1 MOL1         0.0207
       6    H4      20.909070   16.456695   23.534265 H          1 MOL1         0.0950
       7    H5      21.800589   16.938632   22.079802 H          1 MOL1         0.0950
       8    C2      20.904127   18.591032   23.158140 C.3        1 MOL1        -0.1415
       9    H6      20.701484   18.866598   24.201739 H          1 MOL1         0.0976
      10    H7      21.589910   19.346849   22.752504 H          1 MOL1         0.0976
      11    C3      19.586082   18.598515   22.352605 C.3        1 MOL1        -0.1375
      12    H8      18.904813   17.837436   22.758110 H          1 MOL1         0.0976
      13    H9      19.792312   18.317225   21.310421 H          1 MOL1         0.0976
      14    C4      18.896257   19.981227   22.387966 C.3        1 MOL1        -0.1375
      15    H10     18.689852   20.262565   23.429963 H          1 MOL1         0.0976
      16    H11     19.577316   20.742335   21.982521 H          1 MOL1         0.0976
      17    C5      17.578151   19.988385   21.582171 C.3        1 MOL1        -0.1350
      18    H12     16.892349   19.230146   21.985558 H          1 MOL1         0.0976
      19    H13     17.779738   19.709888   20.538248 H          1 MOL1         0.0976
      20    C6      16.892241   21.370637   21.619795 C.3        1 MOL1        -0.2365
      21    H14     15.958646   21.355970   21.042534 H          1 MOL1         0.0987
      22    H15     17.541277   22.145247   21.190890 H          1 MOL1         0.0987
      23    H16     16.646980   21.661771   22.649512 H          1 MOL1         0.0987
@<TRIPOS>BOND
    1     1     2    1
    2     1     3    1
    3     1     4    1
    4     1     5    1
    5     5     6    1
    6     5     7    1
    7     5     8    1
    8     8     9    1
    9     8    10    1
   10     8    11    1
   11    11    12    1
   12    11    13    1
   13    11    14    1
   14    14    15    1
   15    14    16    1
   16    14    17    1
   17    17    18    1
   18    17    19    1
   19    17    20    1
   20    20    21    1
   21    20    22    1
   22    20    23    1
@<TRIPOS>SUBSTRUCTURE
       1 MOL1            1 RESIDUE      1      MOL     
@<SCITEGIC>MOL_PROPERTY
VConf Rank
SciTegic.value.IntegerValue
49

@<SCITEGIC>MOL_PROPERTY
Conf_Id
SciTegic.value.IntegerValue
40

@<SCITEGIC>MOL_PROPERTY
Delta U+W
SciTegic.value.DoubleValue
0.000

@<SCITEGIC>MOL_PROPERTY
U+W
SciTegic.value.DoubleValue
-8.382

@<SCITEGIC>MOL_PROPERTY
Grad RMS
SciTegic.value.DoubleValue
0.000000

@<SCITEGIC>MOL_PROPERTY
U
SciTegic.value.DoubleValue
46.604

@<SCITEGIC>MOL_PROPERTY
W
SciTegic.value.DoubleValue
-54.986

@<SCITEGIC>MOL_PROPERTY
W(PB)
SciTegic.value.DoubleValue
-57.162

@<SCITEGIC>MOL_PROPERTY
W(SA)
SciTegic.value.DoubleValue
2.176

@<SCITEGIC>MOL_PROPERTY
Valence
SciTegic.value.DoubleValue
1.727

@<SCITEGIC>MOL_PROPERTY
Coulomb
SciTegic.value.DoubleValue
44.434

@<SCITEGIC>MOL_PROPERTY
VdW
SciTegic.value.DoubleValue
0.443

@<SCITEGIC>MOL_PROPERTY
VdW6
SciTegic.value.DoubleValue
-4.623

@<SCITEGIC>MOL_PROPERTY
VdW12
SciTegic.value.DoubleValue
5.066

@<SCITEGIC>MOL_PROPERTY
Bond
SciTegic.value.DoubleValue
0.112

@<SCITEGIC>MOL_PROPERTY
Angle
SciTegic.value.DoubleValue
0.386

@<SCITEGIC>MOL_PROPERTY
Pdih
SciTegic.value.DoubleValue
1.228

@<SCITEGIC>MOL_PROPERTY
Idih
SciTegic.value.DoubleValue
0.000

@<SCITEGIC>MOL_PROPERTY
Tether
SciTegic.value.DoubleValue
0.000

@<TRIPOS>MOLECULE
guest-2_confgen4.mol2 : confsearch ligand conformer 50
          23          22           1
SMALL
USER_CHARGES
 
@<TRIPOS>ATOM
       1    N1      19.062761   16.533958   25.081599 N.4        1 MOL1        -0.5940
       2    H1      18.075677   16.572422   25.355509 H          1 MOL1         0.3649
       3    H2      19.603478   16.957767   25.842417 H          1 MOL1         0.3649
       4    H3      19.323729   15.542642   25.046717 H          1 MOL1         0.3649
       5    C1      19.309597   17.228088   23.757576 C.3        1 MOL1         0.0207
       6    H4      18.727461   16.709550   22.990995 H          1 MOL1         0.0950
       7    H5      20.370067   17.120673   23.515947 H          1 MOL1         0.0950
       8    C2      18.926649   18.720088   23.777975 C.3        1 MOL1        -0.1415
       9    H6      17.871810   18.814288   24.068470 H          1 MOL1         0.0976
      10    H7      19.511947   19.241680   24.546970 H          1 MOL1         0.0976
      11    C3      19.132712   19.411622   22.409421 C.3        1 MOL1        -0.1375
      12    H8      18.732697   20.431639   22.476617 H          1 MOL1         0.0976
      13    H9      18.538420   18.893558   21.644046 H          1 MOL1         0.0976
      14    C4      20.618813   19.463784   21.971979 C.3        1 MOL1        -0.1375
      15    H10     21.208947   20.000133   22.727819 H          1 MOL1         0.0976
      16    H11     21.025126   18.444685   21.928926 H          1 MOL1         0.0976
      17    C5      20.830645   20.124539   20.588123 C.3        1 MOL1        -0.1350
      18    H12     20.250698   19.585524   19.825940 H          1 MOL1         0.0976
      19    H13     21.886727   20.015294   20.304169 H          1 MOL1         0.0976
      20    C6      20.461577   21.625296   20.557997 C.3        1 MOL1        -0.2365
      21    H14     19.386570   21.780242   20.711643 H          1 MOL1         0.0987
      22    H15     20.721643   22.064978   19.586404 H          1 MOL1         0.0987
      23    H16     21.004244   22.181223   21.333541 H          1 MOL1         0.0987
@<TRIPOS>BOND
    1     1     2    1
    2     1     3    1
    3     1     4    1
    4     1     5    1
    5     5     6    1
    6     5     7    1
    7     5     8    1
    8     8     9    1
    9     8    10    1
   10     8    11    1
   11    11    12    1
   12    11    13    1
   13    11    14    1
   14    14    15    1
   15    14    16    1
   16    14    17    1
   17    17    18    1
   18    17    19    1
   19    17    20    1
   20    20    21    1
   21    20    22    1
   22    20    23    1
@<TRIPOS>SUBSTRUCTURE
       1 MOL1            1 RESIDUE      1      MOL     
@<SCITEGIC>MOL_PROPERTY
VConf Rank
SciTegic.value.IntegerValue
50

@<SCITEGIC>MOL_PROPERTY
Conf_Id
SciTegic.value.IntegerValue
65

@<SCITEGIC>MOL_PROPERTY
Delta U+W
SciTegic.value.DoubleValue
1.004

@<SCITEGIC>MOL_PROPERTY
U+W
SciTegic.value.DoubleValue
-7.378

@<SCITEGIC>MOL_PROPERTY
Grad RMS
SciTegic.value.DoubleValue
0.000000

@<SCITEGIC>MOL_PROPERTY
U
SciTegic.value.DoubleValue
48.047

@<SCITEGIC>MOL_PROPERTY
W
SciTegic.value.DoubleValue
-55.425

@<SCITEGIC>MOL_PROPERTY
W(PB)
SciTegic.value.DoubleValue
-57.542

@<SCITEGIC>MOL_PROPERTY
W(SA)
SciTegic.value.DoubleValue
2.116

@<SCITEGIC>MOL_PROPERTY
Valence
SciTegic.value.DoubleValue
2.583

@<SCITEGIC>MOL_PROPERTY
Coulomb
SciTegic.value.DoubleValue
44.791

@<SCITEGIC>MOL_PROPERTY
VdW
SciTegic.value.DoubleValue
0.673

@<SCITEGIC>MOL_PROPERTY
VdW6
SciTegic.value.DoubleValue
-5.788

@<SCITEGIC>MOL_PROPERTY
VdW12
SciTegic.value.DoubleValue
6.462

@<SCITEGIC>MOL_PROPERTY
Bond
SciTegic.value.DoubleValue
0.177

@<SCITEGIC>MOL_PROPERTY
Angle
SciTegic.value.DoubleValue
0.787

@<SCITEGIC>MOL_PROPERTY
Pdih
SciTegic.value.DoubleValue
1.619

@<SCITEGIC>MOL_PROPERTY
Idih
SciTegic.value.DoubleValue
0.000

@<SCITEGIC>MOL_PROPERTY
Tether
SciTegic.value.DoubleValue
0.000

@<TRIPOS>MOLECULE
guest-2_confgen4.mol2 : confsearch ligand conformer 51
          23          22           1
SMALL
USER_CHARGES
 
@<TRIPOS>ATOM
       1    N1      19.838742   15.526150   21.864667 N.4        1 MOL1        -0.5940
       2    H1      19.976468   15.379136   20.859551 H          1 MOL1         0.3649
       3    H2      19.168388   14.816898   22.180285 H          1 MOL1         0.3649
       4    H3      20.730934   15.318453   22.324762 H          1 MOL1         0.3649
       5    C1      19.358378   16.930331   22.170121 C.3        1 MOL1         0.0207
       6    H4      19.204382   17.003961   23.249651 H          1 MOL1         0.0950
       7    H5      18.394400   17.072600   21.674224 H          1 MOL1         0.0950
       8    C2      20.344718   18.019410   21.707332 C.3        1 MOL1        -0.1415
       9    H6      21.312815   17.877710   22.206025 H          1 MOL1         0.0976
      10    H7      20.526117   17.902963   20.630540 H          1 MOL1         0.0976
      11    C3      19.826316   19.452202   21.975624 C.3        1 MOL1        -0.1375
      12    H8      18.862518   19.594200   21.467391 H          1 MOL1         0.0976
      13    H9      20.527301   20.162145   21.517843 H          1 MOL1         0.0976
      14    C4      19.674525   19.771410   23.484810 C.3        1 MOL1        -0.1375
      15    H10     18.992405   19.045765   23.947041 H          1 MOL1         0.0976
      16    H11     20.643282   19.649347   23.988625 H          1 MOL1         0.0976
      17    C5      19.124691   21.191824   23.761624 C.3        1 MOL1        -0.1350
      18    H12     18.937917   21.292695   24.839961 H          1 MOL1         0.0976
      19    H13     18.150393   21.316104   23.268574 H          1 MOL1         0.0976
      20    C6      20.081259   22.321362   23.316080 C.3        1 MOL1        -0.2365
      21    H14     20.201570   22.342496   22.225972 H          1 MOL1         0.0987
      22    H15     21.073420   22.200840   23.770064 H          1 MOL1         0.0987
      23    H16     19.688951   23.299651   23.622660 H          1 MOL1         0.0987
@<TRIPOS>BOND
    1     1     2    1
    2     1     3    1
    3     1     4    1
    4     1     5    1
    5     5     6    1
    6     5     7    1
    7     5     8    1
    8     8     9    1
    9     8    10    1
   10     8    11    1
   11    11    12    1
   12    11    13    1
   13    11    14    1
   14    14    15    1
   15    14    16    1
   16    14    17    1
   17    17    18    1
   18    17    19    1
   19    17    20    1
   20    20    21    1
   21    20    22    1
   22    20    23    1
@<TRIPOS>SUBSTRUCTURE
       1 MOL1            1 RESIDUE      1      MOL     
@<SCITEGIC>MOL_PROPERTY
VConf Rank
SciTegic.value.IntegerValue
51

@<SCITEGIC>MOL_PROPERTY
Conf_Id
SciTegic.value.IntegerValue
92

@<SCITEGIC>MOL_PROPERTY
Delta U+W
SciTegic.value.DoubleValue
0.973

@<SCITEGIC>MOL_PROPERTY
U+W
SciTegic.value.DoubleValue
-7.409

@<SCITEGIC>MOL_PROPERTY
Grad RMS
SciTegic.value.DoubleValue
0.000000

@<SCITEGIC>MOL_PROPERTY
U
SciTegic.value.DoubleValue
48.047

@<SCITEGIC>MOL_PROPERTY
W
SciTegic.value.DoubleValue
-55.456

@<SCITEGIC>MOL_PROPERTY
W(PB)
SciTegic.value.DoubleValue
-57.595

@<SCITEGIC>MOL_PROPERTY
W(SA)
SciTegic.value.DoubleValue
2.138

@<SCITEGIC>MOL_PROPERTY
Valence
SciTegic.value.DoubleValue
2.583

@<SCITEGIC>MOL_PROPERTY
Coulomb
SciTegic.value.DoubleValue
44.791

@<SCITEGIC>MOL_PROPERTY
VdW
SciTegic.value.DoubleValue
0.674

@<SCITEGIC>MOL_PROPERTY
VdW6
SciTegic.value.DoubleValue
-5.789

@<SCITEGIC>MOL_PROPERTY
VdW12
SciTegic.value.DoubleValue
6.462

@<SCITEGIC>MOL_PROPERTY
Bond
SciTegic.value.DoubleValue
0.177

@<SCITEGIC>MOL_PROPERTY
Angle
SciTegic.value.DoubleValue
0.787

@<SCITEGIC>MOL_PROPERTY
Pdih
SciTegic.value.DoubleValue
1.619

@<SCITEGIC>MOL_PROPERTY
Idih
SciTegic.value.DoubleValue
0.000

@<SCITEGIC>MOL_PROPERTY
Tether
SciTegic.value.DoubleValue
0.000

@<TRIPOS>MOLECULE
guest-2_confgen4.mol2 : confsearch ligand conformer 52
          23          22           1
SMALL
USER_CHARGES
 
@<TRIPOS>ATOM
       1    N1      18.546524   16.695409   25.024999 N.4        1 MOL1        -0.5940
       2    H1      19.088900   15.866189   25.290060 H          1 MOL1         0.3649
       3    H2      17.572179   16.393610   24.922909 H          1 MOL1         0.3649
       4    H3      18.580454   17.340507   25.820949 H          1 MOL1         0.3649
       5    C1      19.076661   17.333322   23.757010 C.3        1 MOL1         0.0207
       6    H4      19.038253   16.584796   22.960986 H          1 MOL1         0.0950
       7    H5      20.122627   17.600398   23.928242 H          1 MOL1         0.0950
       8    C2      18.281926   18.582624   23.332160 C.3        1 MOL1        -0.1415
       9    H6      17.225521   18.310154   23.206800 H          1 MOL1         0.0976
      10    H7      18.319856   19.334072   24.132087 H          1 MOL1         0.0976
      11    C3      18.800618   19.201286   22.012596 C.3        1 MOL1        -0.1375
      12    H8      18.133700   20.025575   21.724117 H          1 MOL1         0.0976
      13    H9      18.737454   18.454995   21.208414 H          1 MOL1         0.0976
      14    C4      20.250168   19.733234   22.118893 C.3        1 MOL1        -0.1375
      15    H10     20.317046   20.454462   22.945195 H          1 MOL1         0.0976
      16    H11     20.935859   18.909676   22.358974 H          1 MOL1         0.0976
      17    C5      20.710676   20.409391   20.808353 C.3        1 MOL1        -0.1350
      18    H12     20.035894   21.241362   20.562477 H          1 MOL1         0.0976
      19    H13     20.645120   19.692302   19.978013 H          1 MOL1         0.0976
      20    C6      22.156861   20.938290   20.915014 C.3        1 MOL1        -0.2365
      21    H14     22.246603   21.683447   21.716210 H          1 MOL1         0.0987
      22    H15     22.465499   21.415043   19.975602 H          1 MOL1         0.0987
      23    H16     22.860997   20.122885   21.126035 H          1 MOL1         0.0987
@<TRIPOS>BOND
    1     1     2    1
    2     1     3    1
    3     1     4    1
    4     1     5    1
    5     5     6    1
    6     5     7    1
    7     5     8    1
    8     8     9    1
    9     8    10    1
   10     8    11    1
   11    11    12    1
   12    11    13    1
   13    11    14    1
   14    14    15    1
   15    14    16    1
   16    14    17    1
   17    17    18    1
   18    17    19    1
   19    17    20    1
   20    20    21    1
   21    20    22    1
   22    20    23    1
@<TRIPOS>SUBSTRUCTURE
       1 MOL1            1 RESIDUE      1      MOL     
@<SCITEGIC>MOL_PROPERTY
VConf Rank
SciTegic.value.IntegerValue
52

@<SCITEGIC>MOL_PROPERTY
Conf_Id
SciTegic.value.IntegerValue
42

@<SCITEGIC>MOL_PROPERTY
Delta U+W
SciTegic.value.DoubleValue
0.365

@<SCITEGIC>MOL_PROPERTY
U+W
SciTegic.value.DoubleValue
-8.017

@<SCITEGIC>MOL_PROPERTY
Grad RMS
SciTegic.value.DoubleValue
0.000000

@<SCITEGIC>MOL_PROPERTY
U
SciTegic.value.DoubleValue
47.375

@<SCITEGIC>MOL_PROPERTY
W
SciTegic.value.DoubleValue
-55.392

@<SCITEGIC>MOL_PROPERTY
W(PB)
SciTegic.value.DoubleValue
-57.543

@<SCITEGIC>MOL_PROPERTY
W(SA)
SciTegic.value.DoubleValue
2.152

@<SCITEGIC>MOL_PROPERTY
Valence
SciTegic.value.DoubleValue
2.032

@<SCITEGIC>MOL_PROPERTY
Coulomb
SciTegic.value.DoubleValue
44.843

@<SCITEGIC>MOL_PROPERTY
VdW
SciTegic.value.DoubleValue
0.499

@<SCITEGIC>MOL_PROPERTY
VdW6
SciTegic.value.DoubleValue
-5.218

@<SCITEGIC>MOL_PROPERTY
VdW12
SciTegic.value.DoubleValue
5.717

@<SCITEGIC>MOL_PROPERTY
Bond
SciTegic.value.DoubleValue
0.135

@<SCITEGIC>MOL_PROPERTY
Angle
SciTegic.value.DoubleValue
0.514

@<SCITEGIC>MOL_PROPERTY
Pdih
SciTegic.value.DoubleValue
1.383

@<SCITEGIC>MOL_PROPERTY
Idih
SciTegic.value.DoubleValue
0.000

@<SCITEGIC>MOL_PROPERTY
Tether
SciTegic.value.DoubleValue
0.000

@<TRIPOS>MOLECULE
guest-2_confgen4.mol2 : confsearch ligand conformer 53
          23          22           1
SMALL
USER_CHARGES
 
@<TRIPOS>ATOM
       1    N1      19.030207   19.760107   19.625677 N.4        1 MOL1        -0.5940
       2    H1      19.897414   19.362807   19.250526 H          1 MOL1         0.3649
       3    H2      18.642964   20.371730   18.899104 H          1 MOL1         0.3649
       4    H3      18.370406   18.986041   19.747685 H          1 MOL1         0.3649
       5    C1      19.267842   20.508411   20.923041 C.3        1 MOL1         0.0207
       6    H4      18.313183   20.925162   21.255259 H          1 MOL1         0.0950
       7    H5      19.944502   21.339289   20.705454 H          1 MOL1         0.0950
       8    C2      19.872488   19.639016   22.042767 C.3        1 MOL1        -0.1415
       9    H6      20.817369   19.199429   21.696917 H          1 MOL1         0.0976
      10    H7      20.115269   20.298603   22.884861 H          1 MOL1         0.0976
      11    C3      18.909468   18.525680   22.522227 C.3        1 MOL1        -0.1375
      12    H8      18.583941   17.928229   21.660592 H          1 MOL1         0.0976
      13    H9      18.000962   18.984193   22.936702 H          1 MOL1         0.0976
      14    C4      19.520999   17.558321   23.568795 C.3        1 MOL1        -0.1375
      15    H10     18.763651   16.794764   23.794385 H          1 MOL1         0.0976
      16    H11     20.367663   17.012975   23.129496 H          1 MOL1         0.0976
      17    C5      19.946024   18.224039   24.903191 C.3        1 MOL1        -0.1350
      18    H12     19.742437   17.522790   25.724638 H          1 MOL1         0.0976
      19    H13     19.327196   19.109925   25.102830 H          1 MOL1         0.0976
      20    C6      21.447127   18.593322   24.953986 C.3        1 MOL1        -0.2365
      21    H14     22.074154   17.700728   24.830812 H          1 MOL1         0.0987
      22    H15     21.698747   19.045206   25.922182 H          1 MOL1         0.0987
      23    H16     21.723241   19.309056   24.171935 H          1 MOL1         0.0987
@<TRIPOS>BOND
    1     1     2    1
    2     1     3    1
    3     1     4    1
    4     1     5    1
    5     5     6    1
    6     5     7    1
    7     5     8    1
    8     8     9    1
    9     8    10    1
   10     8    11    1
   11    11    12    1
   12    11    13    1
   13    11    14    1
   14    14    15    1
   15    14    16    1
   16    14    17    1
   17    17    18    1
   18    17    19    1
   19    17    20    1
   20    20    21    1
   21    20    22    1
   22    20    23    1
@<TRIPOS>SUBSTRUCTURE
       1 MOL1            1 RESIDUE      1      MOL     
@<SCITEGIC>MOL_PROPERTY
VConf Rank
SciTegic.value.IntegerValue
53

@<SCITEGIC>MOL_PROPERTY
Conf_Id
SciTegic.value.IntegerValue
3

@<SCITEGIC>MOL_PROPERTY
Delta U+W
SciTegic.value.DoubleValue
3.283

@<SCITEGIC>MOL_PROPERTY
U+W
SciTegic.value.DoubleValue
-5.099

@<SCITEGIC>MOL_PROPERTY
Grad RMS
SciTegic.value.DoubleValue
0.000000

@<SCITEGIC>MOL_PROPERTY
U
SciTegic.value.DoubleValue
50.701

@<SCITEGIC>MOL_PROPERTY
W
SciTegic.value.DoubleValue
-55.800

@<SCITEGIC>MOL_PROPERTY
W(PB)
SciTegic.value.DoubleValue
-57.867

@<SCITEGIC>MOL_PROPERTY
W(SA)
SciTegic.value.DoubleValue
2.067

@<SCITEGIC>MOL_PROPERTY
Valence
SciTegic.value.DoubleValue
4.880

@<SCITEGIC>MOL_PROPERTY
Coulomb
SciTegic.value.DoubleValue
45.095

@<SCITEGIC>MOL_PROPERTY
VdW
SciTegic.value.DoubleValue
0.726

@<SCITEGIC>MOL_PROPERTY
VdW6
SciTegic.value.DoubleValue
-6.620

@<SCITEGIC>MOL_PROPERTY
VdW12
SciTegic.value.DoubleValue
7.346

@<SCITEGIC>MOL_PROPERTY
Bond
SciTegic.value.DoubleValue
0.222

@<SCITEGIC>MOL_PROPERTY
Angle
SciTegic.value.DoubleValue
1.260

@<SCITEGIC>MOL_PROPERTY
Pdih
SciTegic.value.DoubleValue
3.398

@<SCITEGIC>MOL_PROPERTY
Idih
SciTegic.value.DoubleValue
0.000

@<SCITEGIC>MOL_PROPERTY
Tether
SciTegic.value.DoubleValue
0.000

@<TRIPOS>MOLECULE
guest-2_confgen4.mol2 : confsearch ligand conformer 54
          23          22           1
SMALL
USER_CHARGES
 
@<TRIPOS>ATOM
       1    N1      19.353372   16.407052   21.486981 N.4        1 MOL1        -0.5940
       2    H1      19.480295   16.356535   20.471160 H          1 MOL1         0.3649
       3    H2      19.141944   15.456832   21.809805 H          1 MOL1         0.3649
       4    H3      20.256891   16.668688   21.892935 H          1 MOL1         0.3649
       5    C1      18.262843   17.388015   21.870064 C.3        1 MOL1         0.0207
       6    H4      18.157975   17.370854   22.957813 H          1 MOL1         0.0950
       7    H5      17.325868   17.030484   21.434432 H          1 MOL1         0.0950
       8    C2      18.530505   18.830242   21.392974 C.3        1 MOL1        -0.1415
       9    H6      18.582066   18.840388   20.296141 H          1 MOL1         0.0976
      10    H7      17.670041   19.456356   21.663980 H          1 MOL1         0.0976
      11    C3      19.822724   19.460868   21.971010 C.3        1 MOL1        -0.1375
      12    H8      19.935447   20.462686   21.536811 H          1 MOL1         0.0976
      13    H9      20.698696   18.885522   21.643292 H          1 MOL1         0.0976
      14    C4      19.811845   19.564776   23.517462 C.3        1 MOL1        -0.1375
      15    H10     18.950124   20.164071   23.842193 H          1 MOL1         0.0976
      16    H11     19.674817   18.566054   23.952357 H          1 MOL1         0.0976
      17    C5      21.110910   20.169395   24.103390 C.3        1 MOL1        -0.1350
      18    H12     21.975589   19.567482   23.790728 H          1 MOL1         0.0976
      19    H13     21.068330   20.099009   25.199336 H          1 MOL1         0.0976
      20    C6      21.335965   21.647133   23.709709 C.3        1 MOL1        -0.2365
      21    H14     20.470241   22.264711   23.981968 H          1 MOL1         0.0987
      22    H15     21.511613   21.756105   22.632435 H          1 MOL1         0.0987
      23    H16     22.213857   22.053107   24.228770 H          1 MOL1         0.0987
@<TRIPOS>BOND
    1     1     2    1
    2     1     3    1
    3     1     4    1
    4     1     5    1
    5     5     6    1
    6     5     7    1
    7     5     8    1
    8     8     9    1
    9     8    10    1
   10     8    11    1
   11    11    12    1
   12    11    13    1
   13    11    14    1
   14    14    15    1
   15    14    16    1
   16    14    17    1
   17    17    18    1
   18    17    19    1
   19    17    20    1
   20    20    21    1
   21    20    22    1
   22    20    23    1
@<TRIPOS>SUBSTRUCTURE
       1 MOL1            1 RESIDUE      1      MOL     
@<SCITEGIC>MOL_PROPERTY
VConf Rank
SciTegic.value.IntegerValue
54

@<SCITEGIC>MOL_PROPERTY
Conf_Id
SciTegic.value.IntegerValue
83

@<SCITEGIC>MOL_PROPERTY
Delta U+W
SciTegic.value.DoubleValue
1.229

@<SCITEGIC>MOL_PROPERTY
U+W
SciTegic.value.DoubleValue
-7.154

@<SCITEGIC>MOL_PROPERTY
Grad RMS
SciTegic.value.DoubleValue
0.000000

@<SCITEGIC>MOL_PROPERTY
U
SciTegic.value.DoubleValue
48.727

@<SCITEGIC>MOL_PROPERTY
W
SciTegic.value.DoubleValue
-55.880

@<SCITEGIC>MOL_PROPERTY
W(PB)
SciTegic.value.DoubleValue
-57.960

@<SCITEGIC>MOL_PROPERTY
W(SA)
SciTegic.value.DoubleValue
2.080

@<SCITEGIC>MOL_PROPERTY
Valence
SciTegic.value.DoubleValue
2.671

@<SCITEGIC>MOL_PROPERTY
Coulomb
SciTegic.value.DoubleValue
45.371

@<SCITEGIC>MOL_PROPERTY
VdW
SciTegic.value.DoubleValue
0.684

@<SCITEGIC>MOL_PROPERTY
VdW6
SciTegic.value.DoubleValue
-6.511

@<SCITEGIC>MOL_PROPERTY
VdW12
SciTegic.value.DoubleValue
7.195

@<SCITEGIC>MOL_PROPERTY
Bond
SciTegic.value.DoubleValue
0.203

@<SCITEGIC>MOL_PROPERTY
Angle
SciTegic.value.DoubleValue
0.915

@<SCITEGIC>MOL_PROPERTY
Pdih
SciTegic.value.DoubleValue
1.554

@<SCITEGIC>MOL_PROPERTY
Idih
SciTegic.value.DoubleValue
0.000

@<SCITEGIC>MOL_PROPERTY
Tether
SciTegic.value.DoubleValue
0.000

@<TRIPOS>MOLECULE
guest-2_confgen4.mol2 : confsearch ligand conformer 55
          23          22           1
SMALL
USER_CHARGES
 
@<TRIPOS>ATOM
       1    N1      18.344596   19.750139   25.039069 N.4        1 MOL1        -0.5940
       2    H1      17.888716   20.667316   25.000165 H          1 MOL1         0.3649
       3    H2      19.350911   19.906598   24.927481 H          1 MOL1         0.3649
       4    H3      18.199886   19.383917   25.986051 H          1 MOL1         0.3649
       5    C1      17.804361   18.807540   23.981738 C.3        1 MOL1         0.0207
       6    H4      16.739567   18.659259   24.181120 H          1 MOL1         0.0950
       7    H5      18.307177   17.844066   24.097425 H          1 MOL1         0.0950
       8    C2      17.987105   19.323179   22.539518 C.3        1 MOL1        -0.1415
       9    H6      17.521260   18.608418   21.848169 H          1 MOL1         0.0976
      10    H7      17.434161   20.264779   22.423559 H          1 MOL1         0.0976
      11    C3      19.464338   19.544030   22.126412 C.3        1 MOL1        -0.1375
      12    H8      19.919866   20.313626   22.763566 H          1 MOL1         0.0976
      13    H9      19.474955   19.947201   21.105523 H          1 MOL1         0.0976
      14    C4      20.313155   18.248261   22.180478 C.3        1 MOL1        -0.1375
      15    H10     20.283291   17.830956   23.195523 H          1 MOL1         0.0976
      16    H11     19.871487   17.488566   21.520960 H          1 MOL1         0.0976
      17    C5      21.796353   18.466928   21.794795 C.3        1 MOL1        -0.1350
      18    H12     22.347033   17.532363   21.971439 H          1 MOL1         0.0976
      19    H13     22.246580   19.218360   22.458400 H          1 MOL1         0.0976
      20    C6      21.994931   18.888575   20.320983 C.3        1 MOL1        -0.2365
      21    H14     21.524384   18.169795   19.637646 H          1 MOL1         0.0987
      22    H15     23.063871   18.934056   20.075558 H          1 MOL1         0.0987
      23    H16     21.569953   19.880385   20.123628 H          1 MOL1         0.0987
@<TRIPOS>BOND
    1     1     2    1
    2     1     3    1
    3     1     4    1
    4     1     5    1
    5     5     6    1
    6     5     7    1
    7     5     8    1
    8     8     9    1
    9     8    10    1
   10     8    11    1
   11    11    12    1
   12    11    13    1
   13    11    14    1
   14    14    15    1
   15    14    16    1
   16    14    17    1
   17    17    18    1
   18    17    19    1
   19    17    20    1
   20    20    21    1
   21    20    22    1
   22    20    23    1
@<TRIPOS>SUBSTRUCTURE
       1 MOL1            1 RESIDUE      1      MOL     
@<SCITEGIC>MOL_PROPERTY
VConf Rank
SciTegic.value.IntegerValue
55

@<SCITEGIC>MOL_PROPERTY
Conf_Id
SciTegic.value.IntegerValue
50

@<SCITEGIC>MOL_PROPERTY
Delta U+W
SciTegic.value.DoubleValue
1.252

@<SCITEGIC>MOL_PROPERTY
U+W
SciTegic.value.DoubleValue
-7.130

@<SCITEGIC>MOL_PROPERTY
Grad RMS
SciTegic.value.DoubleValue
0.000000

@<SCITEGIC>MOL_PROPERTY
U
SciTegic.value.DoubleValue
48.727

@<SCITEGIC>MOL_PROPERTY
W
SciTegic.value.DoubleValue
-55.857

@<SCITEGIC>MOL_PROPERTY
W(PB)
SciTegic.value.DoubleValue
-57.937

@<SCITEGIC>MOL_PROPERTY
W(SA)
SciTegic.value.DoubleValue
2.080

@<SCITEGIC>MOL_PROPERTY
Valence
SciTegic.value.DoubleValue
2.671

@<SCITEGIC>MOL_PROPERTY
Coulomb
SciTegic.value.DoubleValue
45.371

@<SCITEGIC>MOL_PROPERTY
VdW
SciTegic.value.DoubleValue
0.684

@<SCITEGIC>MOL_PROPERTY
VdW6
SciTegic.value.DoubleValue
-6.511

@<SCITEGIC>MOL_PROPERTY
VdW12
SciTegic.value.DoubleValue
7.196

@<SCITEGIC>MOL_PROPERTY
Bond
SciTegic.value.DoubleValue
0.203

@<SCITEGIC>MOL_PROPERTY
Angle
SciTegic.value.DoubleValue
0.915

@<SCITEGIC>MOL_PROPERTY
Pdih
SciTegic.value.DoubleValue
1.554

@<SCITEGIC>MOL_PROPERTY
Idih
SciTegic.value.DoubleValue
0.000

@<SCITEGIC>MOL_PROPERTY
Tether
SciTegic.value.DoubleValue
0.000

@<TRIPOS>MOLECULE
guest-2_confgen4.mol2 : confsearch ligand conformer 56
          23          22           1
SMALL
USER_CHARGES
 
@<TRIPOS>ATOM
       1    N1      19.381001   19.609180   19.528146 N.4        1 MOL1        -0.5940
       2    H1      19.386126   18.585617   19.570868 H          1 MOL1         0.3649
       3    H2      19.818299   19.874047   18.639020 H          1 MOL1         0.3649
       4    H3      18.401063   19.905725   19.479080 H          1 MOL1         0.3649
       5    C1      20.097988   20.225605   20.713553 C.3        1 MOL1         0.0207
       6    H4      20.088077   21.310674   20.579015 H          1 MOL1         0.0950
       7    H5      21.138223   19.889583   20.693224 H          1 MOL1         0.0950
       8    C2      19.466384   19.874188   22.074560 C.3        1 MOL1        -0.1415
       9    H6      19.982826   20.449859   22.850803 H          1 MOL1         0.0976
      10    H7      18.420652   20.208894   22.088119 H          1 MOL1         0.0976
      11    C3      19.538319   18.358859   22.392807 C.3        1 MOL1        -0.1375
      12    H8      20.569713   17.994590   22.288456 H          1 MOL1         0.0976
      13    H9      18.946478   17.816667   21.643314 H          1 MOL1         0.0976
      14    C4      18.986968   17.998293   23.797125 C.3        1 MOL1        -0.1375
      15    H10     18.209028   18.713845   24.097104 H          1 MOL1         0.0976
      16    H11     18.481800   17.024961   23.726966 H          1 MOL1         0.0976
      17    C5      20.063646   17.884841   24.906674 C.3        1 MOL1        -0.1350
      18    H12     20.780831   17.094480   24.644472 H          1 MOL1         0.0976
      19    H13     19.574764   17.555711   25.834296 H          1 MOL1         0.0976
      20    C6      20.828106   19.196696   25.188928 C.3        1 MOL1        -0.2365
      21    H14     20.135276   20.022131   25.397443 H          1 MOL1         0.0987
      22    H15     21.463504   19.478369   24.340279 H          1 MOL1         0.0987
      23    H16     21.482164   19.078831   26.062544 H          1 MOL1         0.0987
@<TRIPOS>BOND
    1     1     2    1
    2     1     3    1
    3     1     4    1
    4     1     5    1
    5     5     6    1
    6     5     7    1
    7     5     8    1
    8     8     9    1
    9     8    10    1
   10     8    11    1
   11    11    12    1
   12    11    13    1
   13    11    14    1
   14    14    15    1
   15    14    16    1
   16    14    17    1
   17    17    18    1
   18    17    19    1
   19    17    20    1
   20    20    21    1
   21    20    22    1
   22    20    23    1
@<TRIPOS>SUBSTRUCTURE
       1 MOL1            1 RESIDUE      1      MOL     
@<SCITEGIC>MOL_PROPERTY
VConf Rank
SciTegic.value.IntegerValue
56

@<SCITEGIC>MOL_PROPERTY
Conf_Id
SciTegic.value.IntegerValue
55

@<SCITEGIC>MOL_PROPERTY
Delta U+W
SciTegic.value.DoubleValue
3.232

@<SCITEGIC>MOL_PROPERTY
U+W
SciTegic.value.DoubleValue
-5.150

@<SCITEGIC>MOL_PROPERTY
Grad RMS
SciTegic.value.DoubleValue
0.000000

@<SCITEGIC>MOL_PROPERTY
U
SciTegic.value.DoubleValue
50.625

@<SCITEGIC>MOL_PROPERTY
W
SciTegic.value.DoubleValue
-55.776

@<SCITEGIC>MOL_PROPERTY
W(PB)
SciTegic.value.DoubleValue
-57.839

@<SCITEGIC>MOL_PROPERTY
W(SA)
SciTegic.value.DoubleValue
2.064

@<SCITEGIC>MOL_PROPERTY
Valence
SciTegic.value.DoubleValue
4.837

@<SCITEGIC>MOL_PROPERTY
Coulomb
SciTegic.value.DoubleValue
45.097

@<SCITEGIC>MOL_PROPERTY
VdW
SciTegic.value.DoubleValue
0.692

@<SCITEGIC>MOL_PROPERTY
VdW6
SciTegic.value.DoubleValue
-6.655

@<SCITEGIC>MOL_PROPERTY
VdW12
SciTegic.value.DoubleValue
7.347

@<SCITEGIC>MOL_PROPERTY
Bond
SciTegic.value.DoubleValue
0.223

@<SCITEGIC>MOL_PROPERTY
Angle
SciTegic.value.DoubleValue
1.167

@<SCITEGIC>MOL_PROPERTY
Pdih
SciTegic.value.DoubleValue
3.447

@<SCITEGIC>MOL_PROPERTY
Idih
SciTegic.value.DoubleValue
0.000

@<SCITEGIC>MOL_PROPERTY
Tether
SciTegic.value.DoubleValue
0.000

@<TRIPOS>MOLECULE
guest-2_confgen4.mol2 : confsearch ligand conformer 57
          23          22           1
SMALL
USER_CHARGES
 
@<TRIPOS>ATOM
       1    N1      19.399058   20.173294   25.484857 N.4        1 MOL1        -0.5940
       2    H1      19.015855   21.110467   25.645139 H          1 MOL1         0.3649
       3    H2      20.083196   20.000214   26.229167 H          1 MOL1         0.3649
       4    H3      18.632738   19.506718   25.623376 H          1 MOL1         0.3649
       5    C1      20.019338   20.044257   24.108539 C.3        1 MOL1         0.0207
       6    H4      20.435910   19.038976   24.023588 H          1 MOL1         0.0950
       7    H5      20.842549   20.760754   24.042530 H          1 MOL1         0.0950
       8    C2      19.015609   20.306097   22.968472 C.3        1 MOL1        -0.1415
       9    H6      18.159089   19.623641   23.049029 H          1 MOL1         0.0976
      10    H7      18.615851   21.321267   23.093546 H          1 MOL1         0.0976
      11    C3      19.652919   20.197610   21.560093 C.3        1 MOL1        -0.1375
      12    H8      20.673194   20.605510   21.576200 H          1 MOL1         0.0976
      13    H9      19.085177   20.845219   20.877621 H          1 MOL1         0.0976
      14    C4      19.658836   18.770560   20.952667 C.3        1 MOL1        -0.1375
      15    H10     18.624974   18.414548   20.844602 H          1 MOL1         0.0976
      16    H11     20.066401   18.834653   19.934225 H          1 MOL1         0.0976
      17    C5      20.477210   17.732506   21.754670 C.3        1 MOL1        -0.1350
      18    H12     19.992068   17.539067   22.720140 H          1 MOL1         0.0976
      19    H13     21.479697   18.129657   21.966729 H          1 MOL1         0.0976
      20    C6      20.606614   16.397062   20.991436 C.3        1 MOL1        -0.2365
      21    H14     21.123413   16.537678   20.033125 H          1 MOL1         0.0987
      22    H15     19.619500   15.962222   20.787055 H          1 MOL1         0.0987
      23    H16     21.180441   15.668810   21.579144 H          1 MOL1         0.0987
@<TRIPOS>BOND
    1     1     2    1
    2     1     3    1
    3     1     4    1
    4     1     5    1
    5     5     6    1
    6     5     7    1
    7     5     8    1
    8     8     9    1
    9     8    10    1
   10     8    11    1
   11    11    12    1
   12    11    13    1
   13    11    14    1
   14    14    15    1
   15    14    16    1
   16    14    17    1
   17    17    18    1
   18    17    19    1
   19    17    20    1
   20    20    21    1
   21    20    22    1
   22    20    23    1
@<TRIPOS>SUBSTRUCTURE
       1 MOL1            1 RESIDUE      1      MOL     
@<SCITEGIC>MOL_PROPERTY
VConf Rank
SciTegic.value.IntegerValue
57

@<SCITEGIC>MOL_PROPERTY
Conf_Id
SciTegic.value.IntegerValue
93

@<SCITEGIC>MOL_PROPERTY
Delta U+W
SciTegic.value.DoubleValue
2.589

@<SCITEGIC>MOL_PROPERTY
U+W
SciTegic.value.DoubleValue
-5.793

@<SCITEGIC>MOL_PROPERTY
Grad RMS
SciTegic.value.DoubleValue
0.000000

@<SCITEGIC>MOL_PROPERTY
U
SciTegic.value.DoubleValue
50.122

@<SCITEGIC>MOL_PROPERTY
W
SciTegic.value.DoubleValue
-55.915

@<SCITEGIC>MOL_PROPERTY
W(PB)
SciTegic.value.DoubleValue
-58.031

@<SCITEGIC>MOL_PROPERTY
W(SA)
SciTegic.value.DoubleValue
2.115

@<SCITEGIC>MOL_PROPERTY
Valence
SciTegic.value.DoubleValue
4.132

@<SCITEGIC>MOL_PROPERTY
Coulomb
SciTegic.value.DoubleValue
45.536

@<SCITEGIC>MOL_PROPERTY
VdW
SciTegic.value.DoubleValue
0.454

@<SCITEGIC>MOL_PROPERTY
VdW6
SciTegic.value.DoubleValue
-6.262

@<SCITEGIC>MOL_PROPERTY
VdW12
SciTegic.value.DoubleValue
6.715

@<SCITEGIC>MOL_PROPERTY
Bond
SciTegic.value.DoubleValue
0.182

@<SCITEGIC>MOL_PROPERTY
Angle
SciTegic.value.DoubleValue
1.157

@<SCITEGIC>MOL_PROPERTY
Pdih
SciTegic.value.DoubleValue
2.794

@<SCITEGIC>MOL_PROPERTY
Idih
SciTegic.value.DoubleValue
0.000

@<SCITEGIC>MOL_PROPERTY
Tether
SciTegic.value.DoubleValue
0.000

@<TRIPOS>MOLECULE
guest-2_confgen4.mol2 : confsearch ligand conformer 58
          23          22           1
SMALL
USER_CHARGES
 
@<TRIPOS>ATOM
       1    N1      22.265205   17.622011   21.373700 N.4        1 MOL1        -0.5940
       2    H1      21.856735   17.714421   20.438089 H          1 MOL1         0.3649
       3    H2      22.452750   16.624320   21.520121 H          1 MOL1         0.3649
       4    H3      23.174069   18.095718   21.353790 H          1 MOL1         0.3649
       5    C1      21.356589   18.187653   22.446134 C.3        1 MOL1         0.0207
       6    H4      21.840175   18.029526   23.413883 H          1 MOL1         0.0950
       7    H5      20.427808   17.614488   22.432460 H          1 MOL1         0.0950
       8    C2      21.062384   19.688708   22.256227 C.3        1 MOL1        -0.1415
       9    H6      22.019347   20.227295   22.269065 H          1 MOL1         0.0976
      10    H7      20.618413   19.869202   21.268211 H          1 MOL1         0.0976
      11    C3      20.152081   20.275138   23.364790 C.3        1 MOL1        -0.1375
      12    H8      20.383883   21.344421   23.466768 H          1 MOL1         0.0976
      13    H9      20.401851   19.823509   24.334971 H          1 MOL1         0.0976
      14    C4      18.629788   20.151123   23.095126 C.3        1 MOL1        -0.1375
      15    H10     18.096176   20.661593   23.908833 H          1 MOL1         0.0976
      16    H11     18.375410   20.696292   22.175684 H          1 MOL1         0.0976
      17    C5      18.110444   18.698623   22.990109 C.3        1 MOL1        -0.1350
      18    H12     18.458280   18.113778   23.853036 H          1 MOL1         0.0976
      19    H13     18.514861   18.221245   22.088182 H          1 MOL1         0.0976
      20    C6      16.569010   18.648540   22.925661 C.3        1 MOL1        -0.2365
      21    H14     16.218153   17.611885   22.840366 H          1 MOL1         0.0987
      22    H15     16.192202   19.204331   22.057121 H          1 MOL1         0.0987
      23    H16     16.121083   19.081779   23.829475 H          1 MOL1         0.0987
@<TRIPOS>BOND
    1     1     2    1
    2     1     3    1
    3     1     4    1
    4     1     5    1
    5     5     6    1
    6     5     7    1
    7     5     8    1
    8     8     9    1
    9     8    10    1
   10     8    11    1
   11    11    12    1
   12    11    13    1
   13    11    14    1
   14    14    15    1
   15    14    16    1
   16    14    17    1
   17    17    18    1
   18    17    19    1
   19    17    20    1
   20    20    21    1
   21    20    22    1
   22    20    23    1
@<TRIPOS>SUBSTRUCTURE
       1 MOL1            1 RESIDUE      1      MOL     
@<SCITEGIC>MOL_PROPERTY
VConf Rank
SciTegic.value.IntegerValue
58

@<SCITEGIC>MOL_PROPERTY
Conf_Id
SciTegic.value.IntegerValue
70

@<SCITEGIC>MOL_PROPERTY
Delta U+W
SciTegic.value.DoubleValue
2.599

@<SCITEGIC>MOL_PROPERTY
U+W
SciTegic.value.DoubleValue
-5.783

@<SCITEGIC>MOL_PROPERTY
Grad RMS
SciTegic.value.DoubleValue
0.000000

@<SCITEGIC>MOL_PROPERTY
U
SciTegic.value.DoubleValue
50.122

@<SCITEGIC>MOL_PROPERTY
W
SciTegic.value.DoubleValue
-55.906

@<SCITEGIC>MOL_PROPERTY
W(PB)
SciTegic.value.DoubleValue
-58.010

@<SCITEGIC>MOL_PROPERTY
W(SA)
SciTegic.value.DoubleValue
2.105

@<SCITEGIC>MOL_PROPERTY
Valence
SciTegic.value.DoubleValue
4.132

@<SCITEGIC>MOL_PROPERTY
Coulomb
SciTegic.value.DoubleValue
45.536

@<SCITEGIC>MOL_PROPERTY
VdW
SciTegic.value.DoubleValue
0.454

@<SCITEGIC>MOL_PROPERTY
VdW6
SciTegic.value.DoubleValue
-6.262

@<SCITEGIC>MOL_PROPERTY
VdW12
SciTegic.value.DoubleValue
6.715

@<SCITEGIC>MOL_PROPERTY
Bond
SciTegic.value.DoubleValue
0.182

@<SCITEGIC>MOL_PROPERTY
Angle
SciTegic.value.DoubleValue
1.157

@<SCITEGIC>MOL_PROPERTY
Pdih
SciTegic.value.DoubleValue
2.794

@<SCITEGIC>MOL_PROPERTY
Idih
SciTegic.value.DoubleValue
0.000

@<SCITEGIC>MOL_PROPERTY
Tether
SciTegic.value.DoubleValue
0.000

@<TRIPOS>MOLECULE
guest-2_confgen4.mol2 : confsearch ligand conformer 59
          23          22           1
SMALL
USER_CHARGES
 
@<TRIPOS>ATOM
       1    N1      17.054793   18.496564   23.073633 N.4        1 MOL1        -0.5940
       2    H1      16.362675   19.224513   23.277520 H          1 MOL1         0.3649
       3    H2      16.612379   17.595588   23.284051 H          1 MOL1         0.3649
       4    H3      17.228911   18.518403   22.064340 H          1 MOL1         0.3649
       5    C1      18.331690   18.696405   23.865992 C.3        1 MOL1         0.0207
       6    H4      19.010691   17.873045   23.629386 H          1 MOL1         0.0950
       7    H5      18.078224   18.633146   24.927711 H          1 MOL1         0.0950
       8    C2      19.028935   20.042765   23.585018 C.3        1 MOL1        -0.1415
       9    H6      18.350982   20.862043   23.858653 H          1 MOL1         0.0976
      10    H7      19.896357   20.138091   24.250532 H          1 MOL1         0.0976
      11    C3      19.478811   20.224173   22.111346 C.3        1 MOL1        -0.1375
      12    H8      19.997887   21.187836   22.015863 H          1 MOL1         0.0976
      13    H9      18.591420   20.300750   21.468769 H          1 MOL1         0.0976
      14    C4      20.396198   19.099361   21.565454 C.3        1 MOL1        -0.1375
      15    H10     19.859088   18.141549   21.565332 H          1 MOL1         0.0976
      16    H11     20.623686   19.318483   20.513042 H          1 MOL1         0.0976
      17    C5      21.723787   18.951595   22.345561 C.3        1 MOL1        -0.1350
      18    H12     21.521946   18.662319   23.385521 H          1 MOL1         0.0976
      19    H13     22.244125   19.918987   22.378911 H          1 MOL1         0.0976
      20    C6      22.647386   17.895350   21.702370 C.3        1 MOL1        -0.2365
      21    H14     23.582688   17.801549   22.269315 H          1 MOL1         0.0987
      22    H15     22.905008   18.170922   20.671407 H          1 MOL1         0.0987
      23    H16     22.165150   16.909320   21.682439 H          1 MOL1         0.0987
@<TRIPOS>BOND
    1     1     2    1
    2     1     3    1
    3     1     4    1
    4     1     5    1
    5     5     6    1
    6     5     7    1
    7     5     8    1
    8     8     9    1
    9     8    10    1
   10     8    11    1
   11    11    12    1
   12    11    13    1
   13    11    14    1
   14    14    15    1
   15    14    16    1
   16    14    17    1
   17    17    18    1
   18    17    19    1
   19    17    20    1
   20    20    21    1
   21    20    22    1
   22    20    23    1
@<TRIPOS>SUBSTRUCTURE
       1 MOL1            1 RESIDUE      1      MOL     
@<SCITEGIC>MOL_PROPERTY
VConf Rank
SciTegic.value.IntegerValue
59

@<SCITEGIC>MOL_PROPERTY
Conf_Id
SciTegic.value.IntegerValue
72

@<SCITEGIC>MOL_PROPERTY
Delta U+W
SciTegic.value.DoubleValue
1.051

@<SCITEGIC>MOL_PROPERTY
U+W
SciTegic.value.DoubleValue
-7.331

@<SCITEGIC>MOL_PROPERTY
Grad RMS
SciTegic.value.DoubleValue
0.000000

@<SCITEGIC>MOL_PROPERTY
U
SciTegic.value.DoubleValue
48.590

@<SCITEGIC>MOL_PROPERTY
W
SciTegic.value.DoubleValue
-55.922

@<SCITEGIC>MOL_PROPERTY
W(PB)
SciTegic.value.DoubleValue
-58.012

@<SCITEGIC>MOL_PROPERTY
W(SA)
SciTegic.value.DoubleValue
2.090

@<SCITEGIC>MOL_PROPERTY
Valence
SciTegic.value.DoubleValue
2.601

@<SCITEGIC>MOL_PROPERTY
Coulomb
SciTegic.value.DoubleValue
45.520

@<SCITEGIC>MOL_PROPERTY
VdW
SciTegic.value.DoubleValue
0.469

@<SCITEGIC>MOL_PROPERTY
VdW6
SciTegic.value.DoubleValue
-6.867

@<SCITEGIC>MOL_PROPERTY
VdW12
SciTegic.value.DoubleValue
7.336

@<SCITEGIC>MOL_PROPERTY
Bond
SciTegic.value.DoubleValue
0.205

@<SCITEGIC>MOL_PROPERTY
Angle
SciTegic.value.DoubleValue
0.962

@<SCITEGIC>MOL_PROPERTY
Pdih
SciTegic.value.DoubleValue
1.434

@<SCITEGIC>MOL_PROPERTY
Idih
SciTegic.value.DoubleValue
0.000

@<SCITEGIC>MOL_PROPERTY
Tether
SciTegic.value.DoubleValue
0.000

@<TRIPOS>MOLECULE
guest-2_confgen4.mol2 : confsearch ligand conformer 60
          23          22           1
SMALL
USER_CHARGES
 
@<TRIPOS>ATOM
       1    N1      18.909929   17.213180   25.070996 N.4        1 MOL1        -0.5940
       2    H1      18.744761   17.482635   26.046738 H          1 MOL1         0.3649
       3    H2      19.306156   16.267901   25.086325 H          1 MOL1         0.3649
       4    H3      17.991688   17.148048   24.620160 H          1 MOL1         0.3649
       5    C1      19.819824   18.195643   24.362127 C.3        1 MOL1         0.0207
       6    H4      20.765335   18.236323   24.909580 H          1 MOL1         0.0950
       7    H5      19.351469   19.182184   24.410225 H          1 MOL1         0.0950
       8    C2      20.087804   17.819112   22.893036 C.3        1 MOL1        -0.1415
       9    H6      20.523429   16.811918   22.854035 H          1 MOL1         0.0976
      10    H7      19.138198   17.765277   22.345514 H          1 MOL1         0.0976
      11    C3      21.050080   18.807550   22.188707 C.3        1 MOL1        -0.1375
      12    H8      21.216930   18.472116   21.156431 H          1 MOL1         0.0976
      13    H9      22.032231   18.756253   22.678666 H          1 MOL1         0.0976
      14    C4      20.576322   20.286160   22.183694 C.3        1 MOL1        -0.1375
      15    H10     20.569386   20.670572   23.212519 H          1 MOL1         0.0976
      16    H11     21.321113   20.890956   21.648271 H          1 MOL1         0.0976
      17    C5      19.184044   20.530338   21.547959 C.3        1 MOL1        -0.1350
      18    H12     18.952677   21.602684   21.613031 H          1 MOL1         0.0976
      19    H13     18.405652   20.019303   22.130253 H          1 MOL1         0.0976
      20    C6      19.100724   20.092621   20.068102 C.3        1 MOL1        -0.2365
      21    H14     19.878656   20.581876   19.467776 H          1 MOL1         0.0987
      22    H15     18.126626   20.363827   19.640994 H          1 MOL1         0.0987
      23    H16     19.217132   19.006866   19.962531 H          1 MOL1         0.0987
@<TRIPOS>BOND
    1     1     2    1
    2     1     3    1
    3     1     4    1
    4     1     5    1
    5     5     6    1
    6     5     7    1
    7     5     8    1
    8     8     9    1
    9     8    10    1
   10     8    11    1
   11    11    12    1
   12    11    13    1
   13    11    14    1
   14    14    15    1
   15    14    16    1
   16    14    17    1
   17    17    18    1
   18    17    19    1
   19    17    20    1
   20    20    21    1
   21    20    22    1
   22    20    23    1
@<TRIPOS>SUBSTRUCTURE
       1 MOL1            1 RESIDUE      1      MOL     
@<SCITEGIC>MOL_PROPERTY
VConf Rank
SciTegic.value.IntegerValue
60

@<SCITEGIC>MOL_PROPERTY
Conf_Id
SciTegic.value.IntegerValue
26

@<SCITEGIC>MOL_PROPERTY
Delta U+W
SciTegic.value.DoubleValue
1.076

@<SCITEGIC>MOL_PROPERTY
U+W
SciTegic.value.DoubleValue
-7.306

@<SCITEGIC>MOL_PROPERTY
Grad RMS
SciTegic.value.DoubleValue
0.000000

@<SCITEGIC>MOL_PROPERTY
U
SciTegic.value.DoubleValue
48.641

@<SCITEGIC>MOL_PROPERTY
W
SciTegic.value.DoubleValue
-55.947

@<SCITEGIC>MOL_PROPERTY
W(PB)
SciTegic.value.DoubleValue
-58.031

@<SCITEGIC>MOL_PROPERTY
W(SA)
SciTegic.value.DoubleValue
2.084

@<SCITEGIC>MOL_PROPERTY
Valence
SciTegic.value.DoubleValue
2.922

@<SCITEGIC>MOL_PROPERTY
Coulomb
SciTegic.value.DoubleValue
45.269

@<SCITEGIC>MOL_PROPERTY
VdW
SciTegic.value.DoubleValue
0.449

@<SCITEGIC>MOL_PROPERTY
VdW6
SciTegic.value.DoubleValue
-7.045

@<SCITEGIC>MOL_PROPERTY
VdW12
SciTegic.value.DoubleValue
7.494

@<SCITEGIC>MOL_PROPERTY
Bond
SciTegic.value.DoubleValue
0.220

@<SCITEGIC>MOL_PROPERTY
Angle
SciTegic.value.DoubleValue
1.205

@<SCITEGIC>MOL_PROPERTY
Pdih
SciTegic.value.DoubleValue
1.497

@<SCITEGIC>MOL_PROPERTY
Idih
SciTegic.value.DoubleValue
0.000

@<SCITEGIC>MOL_PROPERTY
Tether
SciTegic.value.DoubleValue
0.000

@<TRIPOS>MOLECULE
guest-2_confgen4.mol2 : confsearch ligand conformer 61
          23          22           1
SMALL
USER_CHARGES
 
@<TRIPOS>ATOM
       1    N1      21.464094   17.641312   24.912648 N.4        1 MOL1        -0.5940
       2    H1      21.936538   18.291844   25.548562 H          1 MOL1         0.3649
       3    H2      22.015934   16.776789   24.907123 H          1 MOL1         0.3649
       4    H3      20.557409   17.413580   25.333033 H          1 MOL1         0.3649
       5    C1      21.312820   18.221327   23.521126 C.3        1 MOL1         0.0207
       6    H4      20.831682   17.466907   22.893202 H          1 MOL1         0.0950
       7    H5      22.313341   18.412656   23.124011 H          1 MOL1         0.0950
       8    C2      20.487900   19.521574   23.495000 C.3        1 MOL1        -0.1415
       9    H6      19.487597   19.333691   23.905520 H          1 MOL1         0.0976
      10    H7      20.959253   20.259450   24.157642 H          1 MOL1         0.0976
      11    C3      20.372191   20.127488   22.074246 C.3        1 MOL1        -0.1375
      12    H8      21.374076   20.419985   21.730757 H          1 MOL1         0.0976
      13    H9      19.794201   21.059713   22.127495 H          1 MOL1         0.0976
      14    C4      19.741003   19.185446   21.013625 C.3        1 MOL1        -0.1375
      15    H10     19.693646   19.719399   20.054553 H          1 MOL1         0.0976
      16    H11     20.408421   18.330250   20.841880 H          1 MOL1         0.0976
      17    C5      18.326469   18.655543   21.360782 C.3        1 MOL1        -0.1350
      18    H12     18.366204   18.028489   22.261528 H          1 MOL1         0.0976
      19    H13     17.991227   17.994773   20.549186 H          1 MOL1         0.0976
      20    C6      17.281378   19.777937   21.551920 C.3        1 MOL1        -0.2365
      21    H14     17.515934   20.401939   22.423220 H          1 MOL1         0.0987
      22    H15     16.282735   19.350783   21.710326 H          1 MOL1         0.0987
      23    H16     17.232922   20.426391   20.667555 H          1 MOL1         0.0987
@<TRIPOS>BOND
    1     1     2    1
    2     1     3    1
    3     1     4    1
    4     1     5    1
    5     5     6    1
    6     5     7    1
    7     5     8    1
    8     8     9    1
    9     8    10    1
   10     8    11    1
   11    11    12    1
   12    11    13    1
   13    11    14    1
   14    14    15    1
   15    14    16    1
   16    14    17    1
   17    17    18    1
   18    17    19    1
   19    17    20    1
   20    20    21    1
   21    20    22    1
   22    20    23    1
@<TRIPOS>SUBSTRUCTURE
       1 MOL1            1 RESIDUE      1      MOL     
@<SCITEGIC>MOL_PROPERTY
VConf Rank
SciTegic.value.IntegerValue
61

@<SCITEGIC>MOL_PROPERTY
Conf_Id
SciTegic.value.IntegerValue
90

@<SCITEGIC>MOL_PROPERTY
Delta U+W
SciTegic.value.DoubleValue
1.131

@<SCITEGIC>MOL_PROPERTY
U+W
SciTegic.value.DoubleValue
-7.251

@<SCITEGIC>MOL_PROPERTY
Grad RMS
SciTegic.value.DoubleValue
0.000000

@<SCITEGIC>MOL_PROPERTY
U
SciTegic.value.DoubleValue
48.641

@<SCITEGIC>MOL_PROPERTY
W
SciTegic.value.DoubleValue
-55.892

@<SCITEGIC>MOL_PROPERTY
W(PB)
SciTegic.value.DoubleValue
-57.962

@<SCITEGIC>MOL_PROPERTY
W(SA)
SciTegic.value.DoubleValue
2.070

@<SCITEGIC>MOL_PROPERTY
Valence
SciTegic.value.DoubleValue
2.922

@<SCITEGIC>MOL_PROPERTY
Coulomb
SciTegic.value.DoubleValue
45.269

@<SCITEGIC>MOL_PROPERTY
VdW
SciTegic.value.DoubleValue
0.450

@<SCITEGIC>MOL_PROPERTY
VdW6
SciTegic.value.DoubleValue
-7.045

@<SCITEGIC>MOL_PROPERTY
VdW12
SciTegic.value.DoubleValue
7.495

@<SCITEGIC>MOL_PROPERTY
Bond
SciTegic.value.DoubleValue
0.220

@<SCITEGIC>MOL_PROPERTY
Angle
SciTegic.value.DoubleValue
1.205

@<SCITEGIC>MOL_PROPERTY
Pdih
SciTegic.value.DoubleValue
1.497

@<SCITEGIC>MOL_PROPERTY
Idih
SciTegic.value.DoubleValue
0.000

@<SCITEGIC>MOL_PROPERTY
Tether
SciTegic.value.DoubleValue
0.000

@<TRIPOS>MOLECULE
guest-2_confgen4.mol2 : confsearch ligand conformer 62
          23          22           1
SMALL
USER_CHARGES
 
@<TRIPOS>ATOM
       1    N1      19.717261   21.112572   21.077141 N.4        1 MOL1        -0.5940
       2    H1      19.986537   22.097459   21.173788 H          1 MOL1         0.3649
       3    H2      19.099991   20.890364   21.864049 H          1 MOL1         0.3649
       4    H3      19.157699   21.038041   20.221624 H          1 MOL1         0.3649
       5    C1      20.926543   20.198975   21.040127 C.3        1 MOL1         0.0207
       6    H4      21.493290   20.349389   21.962565 H          1 MOL1         0.0950
       7    H5      21.554740   20.511863   20.201683 H          1 MOL1         0.0950
       8    C2      20.570994   18.706295   20.883984 C.3        1 MOL1        -0.1415
       9    H6      20.043722   18.559795   19.931980 H          1 MOL1         0.0976
      10    H7      21.501891   18.128562   20.809834 H          1 MOL1         0.0976
      11    C3      19.708699   18.140027   22.039999 C.3        1 MOL1        -0.1375
      12    H8      19.496162   17.082283   21.832351 H          1 MOL1         0.0976
      13    H9      18.737129   18.649844   22.055558 H          1 MOL1         0.0976
      14    C4      20.396341   18.257778   23.423746 C.3        1 MOL1        -0.1375
      15    H10     21.400985   17.816991   23.363198 H          1 MOL1         0.0976
      16    H11     20.537256   19.314214   23.688354 H          1 MOL1         0.0976
      17    C5      19.616792   17.550464   24.558383 C.3        1 MOL1        -0.1350
      18    H12     20.219223   17.587945   25.476810 H          1 MOL1         0.0976
      19    H13     19.491802   16.485742   24.316466 H          1 MOL1         0.0976
      20    C6      18.236185   18.184982   24.842018 C.3        1 MOL1        -0.2365
      21    H14     18.331241   19.256416   25.060951 H          1 MOL1         0.0987
      22    H15     17.764747   17.706108   25.709982 H          1 MOL1         0.0987
      23    H16     17.555015   18.066295   23.990355 H          1 MOL1         0.0987
@<TRIPOS>BOND
    1     1     2    1
    2     1     3    1
    3     1     4    1
    4     1     5    1
    5     5     6    1
    6     5     7    1
    7     5     8    1
    8     8     9    1
    9     8    10    1
   10     8    11    1
   11    11    12    1
   12    11    13    1
   13    11    14    1
   14    14    15    1
   15    14    16    1
   16    14    17    1
   17    17    18    1
   18    17    19    1
   19    17    20    1
   20    20    21    1
   21    20    22    1
   22    20    23    1
@<TRIPOS>SUBSTRUCTURE
       1 MOL1            1 RESIDUE      1      MOL     
@<SCITEGIC>MOL_PROPERTY
VConf Rank
SciTegic.value.IntegerValue
62

@<SCITEGIC>MOL_PROPERTY
Conf_Id
SciTegic.value.IntegerValue
85

@<SCITEGIC>MOL_PROPERTY
Delta U+W
SciTegic.value.DoubleValue
1.193

@<SCITEGIC>MOL_PROPERTY
U+W
SciTegic.value.DoubleValue
-7.189

@<SCITEGIC>MOL_PROPERTY
Grad RMS
SciTegic.value.DoubleValue
0.000000

@<SCITEGIC>MOL_PROPERTY
U
SciTegic.value.DoubleValue
48.775

@<SCITEGIC>MOL_PROPERTY
W
SciTegic.value.DoubleValue
-55.965

@<SCITEGIC>MOL_PROPERTY
W(PB)
SciTegic.value.DoubleValue
-58.038

@<SCITEGIC>MOL_PROPERTY
W(SA)
SciTegic.value.DoubleValue
2.073

@<SCITEGIC>MOL_PROPERTY
Valence
SciTegic.value.DoubleValue
2.602

@<SCITEGIC>MOL_PROPERTY
Coulomb
SciTegic.value.DoubleValue
45.581

@<SCITEGIC>MOL_PROPERTY
VdW
SciTegic.value.DoubleValue
0.592

@<SCITEGIC>MOL_PROPERTY
VdW6
SciTegic.value.DoubleValue
-6.616

@<SCITEGIC>MOL_PROPERTY
VdW12
SciTegic.value.DoubleValue
7.208

@<SCITEGIC>MOL_PROPERTY
Bond
SciTegic.value.DoubleValue
0.196

@<SCITEGIC>MOL_PROPERTY
Angle
SciTegic.value.DoubleValue
0.832

@<SCITEGIC>MOL_PROPERTY
Pdih
SciTegic.value.DoubleValue
1.574

@<SCITEGIC>MOL_PROPERTY
Idih
SciTegic.value.DoubleValue
0.000

@<SCITEGIC>MOL_PROPERTY
Tether
SciTegic.value.DoubleValue
0.000

@<TRIPOS>MOLECULE
guest-2_confgen4.mol2 : confsearch ligand conformer 63
          23          22           1
SMALL
USER_CHARGES
 
@<TRIPOS>ATOM
       1    N1      19.547861   18.500234   24.571429 N.4        1 MOL1        -0.5940
       2    H1      19.320854   19.297396   23.968378 H          1 MOL1         0.3649
       3    H2      20.026017   18.868512   25.400913 H          1 MOL1         0.3649
       4    H3      18.661559   18.096948   24.892120 H          1 MOL1         0.3649
       5    C1      20.396591   17.478634   23.839546 C.3        1 MOL1         0.0207
       6    H4      20.593938   16.664902   24.542685 H          1 MOL1         0.0950
       7    H5      21.352498   17.940110   23.577993 H          1 MOL1         0.0950
       8    C2      19.730258   16.900239   22.574565 C.3        1 MOL1        -0.1415
       9    H6      20.205695   15.934137   22.359055 H          1 MOL1         0.0976
      10    H7      18.675651   16.674270   22.780997 H          1 MOL1         0.0976
      11    C3      19.849055   17.781019   21.301684 C.3        1 MOL1        -0.1375
      12    H8      19.384721   17.226602   20.474327 H          1 MOL1         0.0976
      13    H9      20.905527   17.895063   21.021808 H          1 MOL1         0.0976
      14    C4      19.167104   19.170370   21.390599 C.3        1 MOL1        -0.1375
      15    H10     18.737858   19.411799   20.408154 H          1 MOL1         0.0976
      16    H11     18.315813   19.131305   22.083061 H          1 MOL1         0.0976
      17    C5      20.146610   20.306759   21.773075 C.3        1 MOL1        -0.1350
      18    H12     20.890029   20.428617   20.972692 H          1 MOL1         0.0976
      19    H13     20.714338   20.052250   22.675952 H          1 MOL1         0.0976
      20    C6      19.410578   21.645931   21.989188 C.3        1 MOL1        -0.2365
      21    H14     18.875828   21.952288   21.080587 H          1 MOL1         0.0987
      22    H15     20.121897   22.442159   22.244582 H          1 MOL1         0.0987
      23    H16     18.680526   21.572295   22.805502 H          1 MOL1         0.0987
@<TRIPOS>BOND
    1     1     2    1
    2     1     3    1
    3     1     4    1
    4     1     5    1
    5     5     6    1
    6     5     7    1
    7     5     8    1
    8     8     9    1
    9     8    10    1
   10     8    11    1
   11    11    12    1
   12    11    13    1
   13    11    14    1
   14    14    15    1
   15    14    16    1
   16    14    17    1
   17    17    18    1
   18    17    19    1
   19    17    20    1
   20    20    21    1
   21    20    22    1
   22    20    23    1
@<TRIPOS>SUBSTRUCTURE
       1 MOL1            1 RESIDUE      1      MOL     
@<SCITEGIC>MOL_PROPERTY
VConf Rank
SciTegic.value.IntegerValue
63

@<SCITEGIC>MOL_PROPERTY
Conf_Id
SciTegic.value.IntegerValue
82

@<SCITEGIC>MOL_PROPERTY
Delta U+W
SciTegic.value.DoubleValue
5.994

@<SCITEGIC>MOL_PROPERTY
U+W
SciTegic.value.DoubleValue
-2.388

@<SCITEGIC>MOL_PROPERTY
Grad RMS
SciTegic.value.DoubleValue
0.000000

@<SCITEGIC>MOL_PROPERTY
U
SciTegic.value.DoubleValue
52.836

@<SCITEGIC>MOL_PROPERTY
W
SciTegic.value.DoubleValue
-55.224

@<SCITEGIC>MOL_PROPERTY
W(PB)
SciTegic.value.DoubleValue
-57.261

@<SCITEGIC>MOL_PROPERTY
W(SA)
SciTegic.value.DoubleValue
2.037

@<SCITEGIC>MOL_PROPERTY
Valence
SciTegic.value.DoubleValue
5.785

@<SCITEGIC>MOL_PROPERTY
Coulomb
SciTegic.value.DoubleValue
46.744

@<SCITEGIC>MOL_PROPERTY
VdW
SciTegic.value.DoubleValue
0.307

@<SCITEGIC>MOL_PROPERTY
VdW6
SciTegic.value.DoubleValue
-7.672

@<SCITEGIC>MOL_PROPERTY
VdW12
SciTegic.value.DoubleValue
7.979

@<SCITEGIC>MOL_PROPERTY
Bond
SciTegic.value.DoubleValue
0.217

@<SCITEGIC>MOL_PROPERTY
Angle
SciTegic.value.DoubleValue
1.470

@<SCITEGIC>MOL_PROPERTY
Pdih
SciTegic.value.DoubleValue
4.098

@<SCITEGIC>MOL_PROPERTY
Idih
SciTegic.value.DoubleValue
0.000

@<SCITEGIC>MOL_PROPERTY
Tether
SciTegic.value.DoubleValue
0.000

@<TRIPOS>MOLECULE
guest-2_confgen4.mol2 : confsearch ligand conformer 64
          23          22           1
SMALL
USER_CHARGES
 
@<TRIPOS>ATOM
       1    N1      18.541837   20.478685   23.120822 N.4        1 MOL1        -0.5940
       2    H1      18.904084   21.436569   23.168256 H          1 MOL1         0.3649
       3    H2      17.519169   20.547694   23.079728 H          1 MOL1         0.3649
       4    H3      18.858495   20.075411   22.233257 H          1 MOL1         0.3649
       5    C1      19.002900   19.645658   24.301137 C.3        1 MOL1         0.0207
       6    H4      18.537930   18.658387   24.236110 H          1 MOL1         0.0950
       7    H5      18.630247   20.137266   25.203889 H          1 MOL1         0.0950
       8    C2      20.534639   19.497865   24.404332 C.3        1 MOL1        -0.1415
       9    H6      21.014800   20.466010   24.209361 H          1 MOL1         0.0976
      10    H7      20.776435   19.249422   25.446277 H          1 MOL1         0.0976
      11    C3      21.156693   18.400670   23.499166 C.3        1 MOL1        -0.1375
      12    H8      20.770514   17.413170   23.787576 H          1 MOL1         0.0976
      13    H9      22.233702   18.368801   23.714899 H          1 MOL1         0.0976
      14    C4      20.979024   18.619249   21.974725 C.3        1 MOL1        -0.1375
      15    H10     20.910747   19.692080   21.750900 H          1 MOL1         0.0976
      16    H11     21.886475   18.268121   21.463863 H          1 MOL1         0.0976
      17    C5      19.773299   17.847683   21.384797 C.3        1 MOL1        -0.1350
      18    H12     18.857993   18.049515   21.953798 H          1 MOL1         0.0976
      19    H13     19.954610   16.767503   21.476838 H          1 MOL1         0.0976
      20    C6      19.542989   18.198093   19.899538 C.3        1 MOL1        -0.2365
      21    H14     19.325682   19.266290   19.771083 H          1 MOL1         0.0987
      22    H15     18.694660   17.630970   19.494706 H          1 MOL1         0.0987
      23    H16     20.427521   17.955477   19.296124 H          1 MOL1         0.0987
@<TRIPOS>BOND
    1     1     2    1
    2     1     3    1
    3     1     4    1
    4     1     5    1
    5     5     6    1
    6     5     7    1
    7     5     8    1
    8     8     9    1
    9     8    10    1
   10     8    11    1
   11    11    12    1
   12    11    13    1
   13    11    14    1
   14    14    15    1
   15    14    16    1
   16    14    17    1
   17    17    18    1
   18    17    19    1
   19    17    20    1
   20    20    21    1
   21    20    22    1
   22    20    23    1
@<TRIPOS>SUBSTRUCTURE
       1 MOL1            1 RESIDUE      1      MOL     
@<SCITEGIC>MOL_PROPERTY
VConf Rank
SciTegic.value.IntegerValue
64

@<SCITEGIC>MOL_PROPERTY
Conf_Id
SciTegic.value.IntegerValue
5

@<SCITEGIC>MOL_PROPERTY
Delta U+W
SciTegic.value.DoubleValue
6.087

@<SCITEGIC>MOL_PROPERTY
U+W
SciTegic.value.DoubleValue
-2.295

@<SCITEGIC>MOL_PROPERTY
Grad RMS
SciTegic.value.DoubleValue
0.000000

@<SCITEGIC>MOL_PROPERTY
U
SciTegic.value.DoubleValue
52.836

@<SCITEGIC>MOL_PROPERTY
W
SciTegic.value.DoubleValue
-55.131

@<SCITEGIC>MOL_PROPERTY
W(PB)
SciTegic.value.DoubleValue
-57.202

@<SCITEGIC>MOL_PROPERTY
W(SA)
SciTegic.value.DoubleValue
2.071

@<SCITEGIC>MOL_PROPERTY
Valence
SciTegic.value.DoubleValue
5.785

@<SCITEGIC>MOL_PROPERTY
Coulomb
SciTegic.value.DoubleValue
46.744

@<SCITEGIC>MOL_PROPERTY
VdW
SciTegic.value.DoubleValue
0.307

@<SCITEGIC>MOL_PROPERTY
VdW6
SciTegic.value.DoubleValue
-7.672

@<SCITEGIC>MOL_PROPERTY
VdW12
SciTegic.value.DoubleValue
7.980

@<SCITEGIC>MOL_PROPERTY
Bond
SciTegic.value.DoubleValue
0.217

@<SCITEGIC>MOL_PROPERTY
Angle
SciTegic.value.DoubleValue
1.470

@<SCITEGIC>MOL_PROPERTY
Pdih
SciTegic.value.DoubleValue
4.098

@<SCITEGIC>MOL_PROPERTY
Idih
SciTegic.value.DoubleValue
0.000

@<SCITEGIC>MOL_PROPERTY
Tether
SciTegic.value.DoubleValue
0.000

@<TRIPOS>MOLECULE
guest-2_confgen4.mol2 : confsearch ligand conformer 65
          23          22           1
SMALL
USER_CHARGES
 
@<TRIPOS>ATOM
       1    N1      18.882613   17.996276   19.004163 N.4        1 MOL1        -0.5940
       2    H1      19.409481   18.743878   18.541144 H          1 MOL1         0.3649
       3    H2      18.058627   17.808531   18.422877 H          1 MOL1         0.3649
       4    H3      19.465772   17.153688   18.974954 H          1 MOL1         0.3649
       5    C1      18.498280   18.369346   20.421556 C.3        1 MOL1         0.0207
       6    H4      17.917042   17.544150   20.841926 H          1 MOL1         0.0950
       7    H5      17.856494   19.253369   20.375623 H          1 MOL1         0.0950
       8    C2      19.713645   18.657683   21.320627 C.3        1 MOL1        -0.1415
       9    H6      20.363481   17.772863   21.350723 H          1 MOL1         0.0976
      10    H7      20.303202   19.475984   20.885997 H          1 MOL1         0.0976
      11    C3      19.279682   19.033640   22.754683 C.3        1 MOL1        -0.1375
      12    H8      18.685678   18.214723   23.184028 H          1 MOL1         0.0976
      13    H9      18.625512   19.916050   22.719787 H          1 MOL1         0.0976
      14    C4      20.492968   19.325414   23.666718 C.3        1 MOL1        -0.1375
      15    H10     21.147092   18.443143   23.701830 H          1 MOL1         0.0976
      16    H11     21.087003   20.144234   23.237568 H          1 MOL1         0.0976
      17    C5      20.058600   19.701470   25.100826 C.3        1 MOL1        -0.1350
      18    H12     19.465933   18.884289   25.535490 H          1 MOL1         0.0976
      19    H13     19.405864   20.585232   25.071268 H          1 MOL1         0.0976
      20    C6      21.272724   19.992082   26.008546 C.3        1 MOL1        -0.2365
      21    H14     20.944453   20.257065   27.021990 H          1 MOL1         0.0987
      22    H15     21.866815   20.828371   25.617515 H          1 MOL1         0.0987
      23    H16     21.927369   19.114146   26.085342 H          1 MOL1         0.0987
@<TRIPOS>BOND
    1     1     2    1
    2     1     3    1
    3     1     4    1
    4     1     5    1
    5     5     6    1
    6     5     7    1
    7     5     8    1
    8     8     9    1
    9     8    10    1
   10     8    11    1
   11    11    12    1
   12    11    13    1
   13    11    14    1
   14    14    15    1
   15    14    16    1
   16    14    17    1
   17    17    18    1
   18    17    19    1
   19    17    20    1
   20    20    21    1
   21    20    22    1
   22    20    23    1
@<TRIPOS>SUBSTRUCTURE
       1 MOL1            1 RESIDUE      1      MOL     
@<SCITEGIC>MOL_PROPERTY
VConf Rank
SciTegic.value.IntegerValue
65

@<SCITEGIC>MOL_PROPERTY
Conf_Id
SciTegic.value.IntegerValue
40

@<SCITEGIC>MOL_PROPERTY
Delta U+W
SciTegic.value.DoubleValue
0.000

@<SCITEGIC>MOL_PROPERTY
U+W
SciTegic.value.DoubleValue
-8.382

@<SCITEGIC>MOL_PROPERTY
Grad RMS
SciTegic.value.DoubleValue
0.000000

@<SCITEGIC>MOL_PROPERTY
U
SciTegic.value.DoubleValue
46.604

@<SCITEGIC>MOL_PROPERTY
W
SciTegic.value.DoubleValue
-54.986

@<SCITEGIC>MOL_PROPERTY
W(PB)
SciTegic.value.DoubleValue
-57.162

@<SCITEGIC>MOL_PROPERTY
W(SA)
SciTegic.value.DoubleValue
2.176

@<SCITEGIC>MOL_PROPERTY
Valence
SciTegic.value.DoubleValue
1.727

@<SCITEGIC>MOL_PROPERTY
Coulomb
SciTegic.value.DoubleValue
44.434

@<SCITEGIC>MOL_PROPERTY
VdW
SciTegic.value.DoubleValue
0.443

@<SCITEGIC>MOL_PROPERTY
VdW6
SciTegic.value.DoubleValue
-4.623

@<SCITEGIC>MOL_PROPERTY
VdW12
SciTegic.value.DoubleValue
5.066

@<SCITEGIC>MOL_PROPERTY
Bond
SciTegic.value.DoubleValue
0.112

@<SCITEGIC>MOL_PROPERTY
Angle
SciTegic.value.DoubleValue
0.386

@<SCITEGIC>MOL_PROPERTY
Pdih
SciTegic.value.DoubleValue
1.228

@<SCITEGIC>MOL_PROPERTY
Idih
SciTegic.value.DoubleValue
0.000

@<SCITEGIC>MOL_PROPERTY
Tether
SciTegic.value.DoubleValue
0.000

@<TRIPOS>MOLECULE
guest-2_confgen4.mol2 : confsearch ligand conformer 66
          23          22           1
SMALL
USER_CHARGES
 
@<TRIPOS>ATOM
       1    N1      18.126326   15.908673   23.253657 N.4        1 MOL1        -0.5940
       2    H1      18.671590   15.349383   23.917527 H          1 MOL1         0.3649
       3    H2      18.268967   15.498229   22.325206 H          1 MOL1         0.3649
       4    H3      17.137817   15.772584   23.491056 H          1 MOL1         0.3649
       5    C1      18.518170   17.371826   23.291401 C.3        1 MOL1         0.0207
       6    H4      18.314180   17.750004   24.296777 H          1 MOL1         0.0950
       7    H5      17.878651   17.907899   22.585596 H          1 MOL1         0.0950
       8    C2      19.998997   17.609084   22.939274 C.3        1 MOL1        -0.1415
       9    H6      20.627369   17.026937   23.626444 H          1 MOL1         0.0976
      10    H7      20.204190   17.230507   21.929047 H          1 MOL1         0.0976
      11    C3      20.406234   19.098960   23.028991 C.3        1 MOL1        -0.1375
      12    H8      21.491249   19.167905   22.877500 H          1 MOL1         0.0976
      13    H9      20.208821   19.472225   24.043424 H          1 MOL1         0.0976
      14    C4      19.678725   19.991852   21.991663 C.3        1 MOL1        -0.1375
      15    H10     19.893401   19.630584   20.976468 H          1 MOL1         0.0976
      16    H11     18.592866   19.903177   22.127877 H          1 MOL1         0.0976
      17    C5      20.055543   21.489705   22.096409 C.3        1 MOL1        -0.1350
      18    H12     19.833061   21.859371   23.107175 H          1 MOL1         0.0976
      19    H13     19.413976   22.062463   21.412148 H          1 MOL1         0.0976
      20    C6      21.533784   21.779728   21.749882 C.3        1 MOL1        -0.2365
      21    H14     22.216064   21.331227   22.482410 H          1 MOL1         0.0987
      22    H15     21.721624   22.861225   21.744649 H          1 MOL1         0.0987
      23    H16     21.790391   21.390125   20.756215 H          1 MOL1         0.0987
@<TRIPOS>BOND
    1     1     2    1
    2     1     3    1
    3     1     4    1
    4     1     5    1
    5     5     6    1
    6     5     7    1
    7     5     8    1
    8     8     9    1
    9     8    10    1
   10     8    11    1
   11    11    12    1
   12    11    13    1
   13    11    14    1
   14    14    15    1
   15    14    16    1
   16    14    17    1
   17    17    18    1
   18    17    19    1
   19    17    20    1
   20    20    21    1
   21    20    22    1
   22    20    23    1
@<TRIPOS>SUBSTRUCTURE
       1 MOL1            1 RESIDUE      1      MOL     
@<SCITEGIC>MOL_PROPERTY
VConf Rank
SciTegic.value.IntegerValue
66

@<SCITEGIC>MOL_PROPERTY
Conf_Id
SciTegic.value.IntegerValue
65

@<SCITEGIC>MOL_PROPERTY
Delta U+W
SciTegic.value.DoubleValue
1.004

@<SCITEGIC>MOL_PROPERTY
U+W
SciTegic.value.DoubleValue
-7.378

@<SCITEGIC>MOL_PROPERTY
Grad RMS
SciTegic.value.DoubleValue
0.000000

@<SCITEGIC>MOL_PROPERTY
U
SciTegic.value.DoubleValue
48.047

@<SCITEGIC>MOL_PROPERTY
W
SciTegic.value.DoubleValue
-55.425

@<SCITEGIC>MOL_PROPERTY
W(PB)
SciTegic.value.DoubleValue
-57.542

@<SCITEGIC>MOL_PROPERTY
W(SA)
SciTegic.value.DoubleValue
2.116

@<SCITEGIC>MOL_PROPERTY
Valence
SciTegic.value.DoubleValue
2.583

@<SCITEGIC>MOL_PROPERTY
Coulomb
SciTegic.value.DoubleValue
44.791

@<SCITEGIC>MOL_PROPERTY
VdW
SciTegic.value.DoubleValue
0.673

@<SCITEGIC>MOL_PROPERTY
VdW6
SciTegic.value.DoubleValue
-5.788

@<SCITEGIC>MOL_PROPERTY
VdW12
SciTegic.value.DoubleValue
6.462

@<SCITEGIC>MOL_PROPERTY
Bond
SciTegic.value.DoubleValue
0.177

@<SCITEGIC>MOL_PROPERTY
Angle
SciTegic.value.DoubleValue
0.787

@<SCITEGIC>MOL_PROPERTY
Pdih
SciTegic.value.DoubleValue
1.619

@<SCITEGIC>MOL_PROPERTY
Idih
SciTegic.value.DoubleValue
0.000

@<SCITEGIC>MOL_PROPERTY
Tether
SciTegic.value.DoubleValue
0.000

@<TRIPOS>MOLECULE
guest-2_confgen4.mol2 : confsearch ligand conformer 67
          23          22           1
SMALL
USER_CHARGES
 
@<TRIPOS>ATOM
       1    N1      16.383726   20.092994   23.038371 N.4        1 MOL1        -0.5940
       2    H1      15.878298   19.442737   23.648737 H          1 MOL1         0.3649
       3    H2      15.731192   20.376010   22.299366 H          1 MOL1         0.3649
       4    H3      16.587183   20.930729   23.593023 H          1 MOL1         0.3649
       5    C1      17.643223   19.471626   22.469738 C.3        1 MOL1         0.0207
       6    H4      18.110009   20.206421   21.808900 H          1 MOL1         0.0950
       7    H5      17.351085   18.605462   21.869883 H          1 MOL1         0.0950
       8    C2      18.644324   19.035373   23.556299 C.3        1 MOL1        -0.1415
       9    H6      18.939026   19.905216   24.158387 H          1 MOL1         0.0976
      10    H7      18.146885   18.334363   24.239737 H          1 MOL1         0.0976
      11    C3      19.905564   18.355560   22.972569 C.3        1 MOL1        -0.1375
      12    H8      19.608241   17.480054   22.378887 H          1 MOL1         0.0976
      13    H9      20.508172   17.975442   23.807636 H          1 MOL1         0.0976
      14    C4      20.764169   19.310099   22.104105 C.3        1 MOL1        -0.1375
      15    H10     20.153705   19.709083   21.283343 H          1 MOL1         0.0976
      16    H11     21.078496   20.175098   22.704267 H          1 MOL1         0.0976
      17    C5      22.010782   18.629032   21.488780 C.3        1 MOL1        -0.1350
      18    H12     22.493824   19.336128   20.799899 H          1 MOL1         0.0976
      19    H13     21.701519   17.768944   20.878531 H          1 MOL1         0.0976
      20    C6      23.047986   18.174527   22.540931 C.3        1 MOL1        -0.2365
      21    H14     22.653306   17.373111   23.177497 H          1 MOL1         0.0987
      22    H15     23.348826   19.010362   23.185823 H          1 MOL1         0.0987
      23    H16     23.950350   17.789283   22.048719 H          1 MOL1         0.0987
@<TRIPOS>BOND
    1     1     2    1
    2     1     3    1
    3     1     4    1
    4     1     5    1
    5     5     6    1
    6     5     7    1
    7     5     8    1
    8     8     9    1
    9     8    10    1
   10     8    11    1
   11    11    12    1
   12    11    13    1
   13    11    14    1
   14    14    15    1
   15    14    16    1
   16    14    17    1
   17    17    18    1
   18    17    19    1
   19    17    20    1
   20    20    21    1
   21    20    22    1
   22    20    23    1
@<TRIPOS>SUBSTRUCTURE
       1 MOL1            1 RESIDUE      1      MOL     
@<SCITEGIC>MOL_PROPERTY
VConf Rank
SciTegic.value.IntegerValue
67

@<SCITEGIC>MOL_PROPERTY
Conf_Id
SciTegic.value.IntegerValue
92

@<SCITEGIC>MOL_PROPERTY
Delta U+W
SciTegic.value.DoubleValue
0.973

@<SCITEGIC>MOL_PROPERTY
U+W
SciTegic.value.DoubleValue
-7.409

@<SCITEGIC>MOL_PROPERTY
Grad RMS
SciTegic.value.DoubleValue
0.000000

@<SCITEGIC>MOL_PROPERTY
U
SciTegic.value.DoubleValue
48.047

@<SCITEGIC>MOL_PROPERTY
W
SciTegic.value.DoubleValue
-55.456

@<SCITEGIC>MOL_PROPERTY
W(PB)
SciTegic.value.DoubleValue
-57.595

@<SCITEGIC>MOL_PROPERTY
W(SA)
SciTegic.value.DoubleValue
2.138

@<SCITEGIC>MOL_PROPERTY
Valence
SciTegic.value.DoubleValue
2.583

@<SCITEGIC>MOL_PROPERTY
Coulomb
SciTegic.value.DoubleValue
44.791

@<SCITEGIC>MOL_PROPERTY
VdW
SciTegic.value.DoubleValue
0.674

@<SCITEGIC>MOL_PROPERTY
VdW6
SciTegic.value.DoubleValue
-5.789

@<SCITEGIC>MOL_PROPERTY
VdW12
SciTegic.value.DoubleValue
6.462

@<SCITEGIC>MOL_PROPERTY
Bond
SciTegic.value.DoubleValue
0.177

@<SCITEGIC>MOL_PROPERTY
Angle
SciTegic.value.DoubleValue
0.787

@<SCITEGIC>MOL_PROPERTY
Pdih
SciTegic.value.DoubleValue
1.619

@<SCITEGIC>MOL_PROPERTY
Idih
SciTegic.value.DoubleValue
0.000

@<SCITEGIC>MOL_PROPERTY
Tether
SciTegic.value.DoubleValue
0.000

@<TRIPOS>MOLECULE
guest-2_confgen4.mol2 : confsearch ligand conformer 68
          23          22           1
SMALL
USER_CHARGES
 
@<TRIPOS>ATOM
       1    N1      22.784399   19.518297   20.882078 N.4        1 MOL1        -0.5940
       2    H1      22.891513   20.301028   20.227944 H          1 MOL1         0.3649
       3    H2      23.209562   18.698393   20.437276 H          1 MOL1         0.3649
       4    H3      23.349910   19.740523   21.707700 H          1 MOL1         0.3649
       5    C1      21.331733   19.278000   21.239562 C.3        1 MOL1         0.0207
       6    H4      20.785287   19.076323   20.314283 H          1 MOL1         0.0950
       7    H5      20.937924   20.198383   21.678314 H          1 MOL1         0.0950
       8    C2      21.137651   18.107147   22.221547 C.3        1 MOL1        -0.1415
       9    H6      21.576948   17.198870   21.787960 H          1 MOL1         0.0976
      10    H7      21.687218   18.309411   23.150558 H          1 MOL1         0.0976
      11    C3      19.649038   17.839077   22.545896 C.3        1 MOL1        -0.1375
      12    H8      19.581782   16.939083   23.172744 H          1 MOL1         0.0976
      13    H9      19.106959   17.611810   21.617376 H          1 MOL1         0.0976
      14    C4      18.963501   19.019451   23.275428 C.3        1 MOL1        -0.1375
      15    H10     19.527042   19.265476   24.186093 H          1 MOL1         0.0976
      16    H11     18.979887   19.914591   22.639414 H          1 MOL1         0.0976
      17    C5      17.500930   18.691111   23.649394 C.3        1 MOL1        -0.1350
      18    H12     17.472962   17.800950   24.293437 H          1 MOL1         0.0976
      19    H13     16.932591   18.443504   22.741836 H          1 MOL1         0.0976
      20    C6      16.817809   19.869440   24.375651 C.3        1 MOL1        -0.2365
      21    H14     17.344844   20.118783   25.305860 H          1 MOL1         0.0987
      22    H15     15.780937   19.617301   24.633269 H          1 MOL1         0.0987
      23    H16     16.798969   20.766075   23.742475 H          1 MOL1         0.0987
@<TRIPOS>BOND
    1     1     2    1
    2     1     3    1
    3     1     4    1
    4     1     5    1
    5     5     6    1
    6     5     7    1
    7     5     8    1
    8     8     9    1
    9     8    10    1
   10     8    11    1
   11    11    12    1
   12    11    13    1
   13    11    14    1
   14    14    15    1
   15    14    16    1
   16    14    17    1
   17    17    18    1
   18    17    19    1
   19    17    20    1
   20    20    21    1
   21    20    22    1
   22    20    23    1
@<TRIPOS>SUBSTRUCTURE
       1 MOL1            1 RESIDUE      1      MOL     
@<SCITEGIC>MOL_PROPERTY
VConf Rank
SciTegic.value.IntegerValue
68

@<SCITEGIC>MOL_PROPERTY
Conf_Id
SciTegic.value.IntegerValue
42

@<SCITEGIC>MOL_PROPERTY
Delta U+W
SciTegic.value.DoubleValue
0.365

@<SCITEGIC>MOL_PROPERTY
U+W
SciTegic.value.DoubleValue
-8.017

@<SCITEGIC>MOL_PROPERTY
Grad RMS
SciTegic.value.DoubleValue
0.000000

@<SCITEGIC>MOL_PROPERTY
U
SciTegic.value.DoubleValue
47.375

@<SCITEGIC>MOL_PROPERTY
W
SciTegic.value.DoubleValue
-55.392

@<SCITEGIC>MOL_PROPERTY
W(PB)
SciTegic.value.DoubleValue
-57.543

@<SCITEGIC>MOL_PROPERTY
W(SA)
SciTegic.value.DoubleValue
2.152

@<SCITEGIC>MOL_PROPERTY
Valence
SciTegic.value.DoubleValue
2.032

@<SCITEGIC>MOL_PROPERTY
Coulomb
SciTegic.value.DoubleValue
44.843

@<SCITEGIC>MOL_PROPERTY
VdW
SciTegic.value.DoubleValue
0.499

@<SCITEGIC>MOL_PROPERTY
VdW6
SciTegic.value.DoubleValue
-5.218

@<SCITEGIC>MOL_PROPERTY
VdW12
SciTegic.value.DoubleValue
5.717

@<SCITEGIC>MOL_PROPERTY
Bond
SciTegic.value.DoubleValue
0.135

@<SCITEGIC>MOL_PROPERTY
Angle
SciTegic.value.DoubleValue
0.514

@<SCITEGIC>MOL_PROPERTY
Pdih
SciTegic.value.DoubleValue
1.383

@<SCITEGIC>MOL_PROPERTY
Idih
SciTegic.value.DoubleValue
0.000

@<SCITEGIC>MOL_PROPERTY
Tether
SciTegic.value.DoubleValue
0.000

@<TRIPOS>MOLECULE
guest-2_confgen4.mol2 : confsearch ligand conformer 69
          23          22           1
SMALL
USER_CHARGES
 
@<TRIPOS>ATOM
       1    N1      18.700759   18.951381   19.623998 N.4        1 MOL1        -0.5940
       2    H1      17.777030   18.596338   19.891023 H          1 MOL1         0.3649
       3    H2      18.797615   18.802243   18.613887 H          1 MOL1         0.3649
       4    H3      18.691767   19.964238   19.777103 H          1 MOL1         0.3649
       5    C1      19.811911   18.273256   20.401861 C.3        1 MOL1         0.0207
       6    H4      20.766413   18.677677   20.054312 H          1 MOL1         0.0950
       7    H5      19.784037   17.208142   20.156250 H          1 MOL1         0.0950
       8    C2      19.699862   18.446822   21.929131 C.3        1 MOL1        -0.1415
       9    H6      18.729098   18.065139   22.272038 H          1 MOL1         0.0976
      10    H7      20.472197   17.822492   22.394779 H          1 MOL1         0.0976
      11    C3      19.885286   19.916297   22.379760 C.3        1 MOL1        -0.1375
      12    H8      19.180056   20.557292   21.834684 H          1 MOL1         0.0976
      13    H9      20.890415   20.259192   22.097722 H          1 MOL1         0.0976
      14    C4      19.668179   20.152000   23.897115 C.3        1 MOL1        -0.1375
      15    H10     19.782288   21.228938   24.083310 H          1 MOL1         0.0976
      16    H11     18.631358   19.913608   24.171697 H          1 MOL1         0.0976
      17    C5      20.655724   19.395889   24.823124 C.3        1 MOL1        -0.1350
      18    H12     20.883369   20.034659   25.688065 H          1 MOL1         0.0976
      19    H13     21.613083   19.232236   24.309041 H          1 MOL1         0.0976
      20    C6      20.094640   18.056475   25.355490 C.3        1 MOL1        -0.2365
      21    H14     19.177115   18.219482   25.935693 H          1 MOL1         0.0987
      22    H15     20.823874   17.570405   26.016450 H          1 MOL1         0.0987
      23    H16     19.861180   17.355621   24.546529 H          1 MOL1         0.0987
@<TRIPOS>BOND
    1     1     2    1
    2     1     3    1
    3     1     4    1
    4     1     5    1
    5     5     6    1
    6     5     7    1
    7     5     8    1
    8     8     9    1
    9     8    10    1
   10     8    11    1
   11    11    12    1
   12    11    13    1
   13    11    14    1
   14    14    15    1
   15    14    16    1
   16    14    17    1
   17    17    18    1
   18    17    19    1
   19    17    20    1
   20    20    21    1
   21    20    22    1
   22    20    23    1
@<TRIPOS>SUBSTRUCTURE
       1 MOL1            1 RESIDUE      1      MOL     
@<SCITEGIC>MOL_PROPERTY
VConf Rank
SciTegic.value.IntegerValue
69

@<SCITEGIC>MOL_PROPERTY
Conf_Id
SciTegic.value.IntegerValue
3

@<SCITEGIC>MOL_PROPERTY
Delta U+W
SciTegic.value.DoubleValue
3.283

@<SCITEGIC>MOL_PROPERTY
U+W
SciTegic.value.DoubleValue
-5.099

@<SCITEGIC>MOL_PROPERTY
Grad RMS
SciTegic.value.DoubleValue
0.000000

@<SCITEGIC>MOL_PROPERTY
U
SciTegic.value.DoubleValue
50.701

@<SCITEGIC>MOL_PROPERTY
W
SciTegic.value.DoubleValue
-55.800

@<SCITEGIC>MOL_PROPERTY
W(PB)
SciTegic.value.DoubleValue
-57.867

@<SCITEGIC>MOL_PROPERTY
W(SA)
SciTegic.value.DoubleValue
2.067

@<SCITEGIC>MOL_PROPERTY
Valence
SciTegic.value.DoubleValue
4.880

@<SCITEGIC>MOL_PROPERTY
Coulomb
SciTegic.value.DoubleValue
45.095

@<SCITEGIC>MOL_PROPERTY
VdW
SciTegic.value.DoubleValue
0.726

@<SCITEGIC>MOL_PROPERTY
VdW6
SciTegic.value.DoubleValue
-6.620

@<SCITEGIC>MOL_PROPERTY
VdW12
SciTegic.value.DoubleValue
7.346

@<SCITEGIC>MOL_PROPERTY
Bond
SciTegic.value.DoubleValue
0.222

@<SCITEGIC>MOL_PROPERTY
Angle
SciTegic.value.DoubleValue
1.260

@<SCITEGIC>MOL_PROPERTY
Pdih
SciTegic.value.DoubleValue
3.398

@<SCITEGIC>MOL_PROPERTY
Idih
SciTegic.value.DoubleValue
0.000

@<SCITEGIC>MOL_PROPERTY
Tether
SciTegic.value.DoubleValue
0.000

@<TRIPOS>MOLECULE
guest-2_confgen4.mol2 : confsearch ligand conformer 70
          23          22           1
SMALL
USER_CHARGES
 
@<TRIPOS>ATOM
       1    N1      18.970974   16.475383   23.617154 N.4        1 MOL1        -0.5940
       2    H1      19.741547   15.928111   24.013718 H          1 MOL1         0.3649
       3    H2      18.113913   15.929336   23.755408 H          1 MOL1         0.3649
       4    H3      18.880562   17.325400   24.181862 H          1 MOL1         0.3649
       5    C1      19.203866   16.797768   22.154238 C.3        1 MOL1         0.0207
       6    H4      18.336680   17.352322   21.786885 H          1 MOL1         0.0950
       7    H5      19.255524   15.851284   21.609237 H          1 MOL1         0.0950
       8    C2      20.490867   17.607502   21.894937 C.3        1 MOL1        -0.1415
       9    H6      21.357011   17.016778   22.221499 H          1 MOL1         0.0976
      10    H7      20.607183   17.746891   20.811932 H          1 MOL1         0.0976
      11    C3      20.522804   18.990328   22.593806 C.3        1 MOL1        -0.1375
      12    H8      21.491855   19.458161   22.377131 H          1 MOL1         0.0976
      13    H9      20.483383   18.859785   23.683372 H          1 MOL1         0.0976
      14    C4      19.379394   19.931534   22.136449 C.3        1 MOL1        -0.1375
      15    H10     19.437029   20.083182   21.049780 H          1 MOL1         0.0976
      16    H11     18.410002   19.454095   22.330577 H          1 MOL1         0.0976
      17    C5      19.389506   21.305135   22.850286 C.3        1 MOL1        -0.1350
      18    H12     19.321034   21.160086   23.937484 H          1 MOL1         0.0976
      19    H13     18.487281   21.860201   22.557444 H          1 MOL1         0.0976
      20    C6      20.630432   22.164485   22.517170 C.3        1 MOL1        -0.2365
      21    H14     20.740096   22.296369   21.432925 H          1 MOL1         0.0987
      22    H15     21.551470   21.711291   22.903888 H          1 MOL1         0.0987
      23    H16     20.539547   23.160937   22.968564 H          1 MOL1         0.0987
@<TRIPOS>BOND
    1     1     2    1
    2     1     3    1
    3     1     4    1
    4     1     5    1
    5     5     6    1
    6     5     7    1
    7     5     8    1
    8     8     9    1
    9     8    10    1
   10     8    11    1
   11    11    12    1
   12    11    13    1
   13    11    14    1
   14    14    15    1
   15    14    16    1
   16    14    17    1
   17    17    18    1
   18    17    19    1
   19    17    20    1
   20    20    21    1
   21    20    22    1
   22    20    23    1
@<TRIPOS>SUBSTRUCTURE
       1 MOL1            1 RESIDUE      1      MOL     
@<SCITEGIC>MOL_PROPERTY
VConf Rank
SciTegic.value.IntegerValue
70

@<SCITEGIC>MOL_PROPERTY
Conf_Id
SciTegic.value.IntegerValue
83

@<SCITEGIC>MOL_PROPERTY
Delta U+W
SciTegic.value.DoubleValue
1.229

@<SCITEGIC>MOL_PROPERTY
U+W
SciTegic.value.DoubleValue
-7.154

@<SCITEGIC>MOL_PROPERTY
Grad RMS
SciTegic.value.DoubleValue
0.000000

@<SCITEGIC>MOL_PROPERTY
U
SciTegic.value.DoubleValue
48.727

@<SCITEGIC>MOL_PROPERTY
W
SciTegic.value.DoubleValue
-55.880

@<SCITEGIC>MOL_PROPERTY
W(PB)
SciTegic.value.DoubleValue
-57.960

@<SCITEGIC>MOL_PROPERTY
W(SA)
SciTegic.value.DoubleValue
2.080

@<SCITEGIC>MOL_PROPERTY
Valence
SciTegic.value.DoubleValue
2.671

@<SCITEGIC>MOL_PROPERTY
Coulomb
SciTegic.value.DoubleValue
45.371

@<SCITEGIC>MOL_PROPERTY
VdW
SciTegic.value.DoubleValue
0.684

@<SCITEGIC>MOL_PROPERTY
VdW6
SciTegic.value.DoubleValue
-6.511

@<SCITEGIC>MOL_PROPERTY
VdW12
SciTegic.value.DoubleValue
7.195

@<SCITEGIC>MOL_PROPERTY
Bond
SciTegic.value.DoubleValue
0.203

@<SCITEGIC>MOL_PROPERTY
Angle
SciTegic.value.DoubleValue
0.915

@<SCITEGIC>MOL_PROPERTY
Pdih
SciTegic.value.DoubleValue
1.554

@<SCITEGIC>MOL_PROPERTY
Idih
SciTegic.value.DoubleValue
0.000

@<SCITEGIC>MOL_PROPERTY
Tether
SciTegic.value.DoubleValue
0.000

@<TRIPOS>MOLECULE
guest-2_confgen4.mol2 : confsearch ligand conformer 71
          23          22           1
SMALL
USER_CHARGES
 
@<TRIPOS>ATOM
       1    N1      21.257919   21.156474   23.822887 N.4        1 MOL1        -0.5940
       2    H1      21.894825   20.825756   24.554686 H          1 MOL1         0.3649
       3    H2      20.304548   20.943004   24.131294 H          1 MOL1         0.3649
       4    H3      21.342729   22.178072   23.791571 H          1 MOL1         0.3649
       5    C1      21.566304   20.524031   22.480051 C.3        1 MOL1         0.0207
       6    H4      22.580413   20.820002   22.198076 H          1 MOL1         0.0950
       7    H5      20.875442   20.940175   21.742470 H          1 MOL1         0.0950
       8    C2      21.465124   18.984863   22.481611 C.3        1 MOL1        -0.1415
       9    H6      21.756237   18.611682   21.490728 H          1 MOL1         0.0976
      10    H7      22.200404   18.578794   23.188912 H          1 MOL1         0.0976
      11    C3      20.058489   18.441229   22.838669 C.3        1 MOL1        -0.1375
      12    H8      19.787799   18.745170   23.858519 H          1 MOL1         0.0976
      13    H9      20.110942   17.344879   22.850509 H          1 MOL1         0.0976
      14    C4      18.958490   18.896511   21.846122 C.3        1 MOL1        -0.1375
      15    H10     18.921769   19.993352   21.815396 H          1 MOL1         0.0976
      16    H11     19.217231   18.567441   20.830279 H          1 MOL1         0.0976
      17    C5      17.546147   18.378980   22.212034 C.3        1 MOL1        -0.1350
      18    H12     16.815836   18.839525   21.532028 H          1 MOL1         0.0976
      19    H13     17.277394   18.714285   23.223503 H          1 MOL1         0.0976
      20    C6      17.409137   16.842078   22.119816 C.3        1 MOL1        -0.2365
      21    H14     17.704175   16.478049   21.127121 H          1 MOL1         0.0987
      22    H15     16.368474   16.538546   22.292507 H          1 MOL1         0.0987
      23    H16     18.028111   16.335415   22.870421 H          1 MOL1         0.0987
@<TRIPOS>BOND
    1     1     2    1
    2     1     3    1
    3     1     4    1
    4     1     5    1
    5     5     6    1
    6     5     7    1
    7     5     8    1
    8     8     9    1
    9     8    10    1
   10     8    11    1
   11    11    12    1
   12    11    13    1
   13    11    14    1
   14    14    15    1
   15    14    16    1
   16    14    17    1
   17    17    18    1
   18    17    19    1
   19    17    20    1
   20    20    21    1
   21    20    22    1
   22    20    23    1
@<TRIPOS>SUBSTRUCTURE
       1 MOL1            1 RESIDUE      1      MOL     
@<SCITEGIC>MOL_PROPERTY
VConf Rank
SciTegic.value.IntegerValue
71

@<SCITEGIC>MOL_PROPERTY
Conf_Id
SciTegic.value.IntegerValue
50

@<SCITEGIC>MOL_PROPERTY
Delta U+W
SciTegic.value.DoubleValue
1.252

@<SCITEGIC>MOL_PROPERTY
U+W
SciTegic.value.DoubleValue
-7.130

@<SCITEGIC>MOL_PROPERTY
Grad RMS
SciTegic.value.DoubleValue
0.000000

@<SCITEGIC>MOL_PROPERTY
U
SciTegic.value.DoubleValue
48.727

@<SCITEGIC>MOL_PROPERTY
W
SciTegic.value.DoubleValue
-55.857

@<SCITEGIC>MOL_PROPERTY
W(PB)
SciTegic.value.DoubleValue
-57.937

@<SCITEGIC>MOL_PROPERTY
W(SA)
SciTegic.value.DoubleValue
2.080

@<SCITEGIC>MOL_PROPERTY
Valence
SciTegic.value.DoubleValue
2.671

@<SCITEGIC>MOL_PROPERTY
Coulomb
SciTegic.value.DoubleValue
45.371

@<SCITEGIC>MOL_PROPERTY
VdW
SciTegic.value.DoubleValue
0.684

@<SCITEGIC>MOL_PROPERTY
VdW6
SciTegic.value.DoubleValue
-6.511

@<SCITEGIC>MOL_PROPERTY
VdW12
SciTegic.value.DoubleValue
7.196

@<SCITEGIC>MOL_PROPERTY
Bond
SciTegic.value.DoubleValue
0.203

@<SCITEGIC>MOL_PROPERTY
Angle
SciTegic.value.DoubleValue
0.915

@<SCITEGIC>MOL_PROPERTY
Pdih
SciTegic.value.DoubleValue
1.554

@<SCITEGIC>MOL_PROPERTY
Idih
SciTegic.value.DoubleValue
0.000

@<SCITEGIC>MOL_PROPERTY
Tether
SciTegic.value.DoubleValue
0.000

@<TRIPOS>MOLECULE
guest-2_confgen4.mol2 : confsearch ligand conformer 72
          23          22           1
SMALL
USER_CHARGES
 
@<TRIPOS>ATOM
       1    N1      16.664917   18.536403   22.372839 N.4        1 MOL1        -0.5940
       2    H1      16.797633   18.592751   23.387109 H          1 MOL1         0.3649
       3    H2      15.919111   17.852422   22.205890 H          1 MOL1         0.3649
       4    H3      16.310392   19.446651   22.062379 H          1 MOL1         0.3649
       5    C1      17.946980   18.156856   21.657648 C.3        1 MOL1         0.0207
       6    H4      17.719881   18.076066   20.591125 H          1 MOL1         0.0950
       7    H5      18.256132   17.171054   22.015463 H          1 MOL1         0.0950
       8    C2      19.094681   19.165073   21.860234 C.3        1 MOL1        -0.1415
       9    H6      19.932493   18.863331   21.221730 H          1 MOL1         0.0976
      10    H7      18.777610   20.154280   21.504281 H          1 MOL1         0.0976
      11    C3      19.552854   19.259289   23.338028 C.3        1 MOL1        -0.1375
      12    H8      19.781827   18.259447   23.732037 H          1 MOL1         0.0976
      13    H9      18.715935   19.639225   23.939031 H          1 MOL1         0.0976
      14    C4      20.765726   20.203392   23.547111 C.3        1 MOL1        -0.1375
      15    H10     20.765088   20.999217   22.789579 H          1 MOL1         0.0976
      16    H11     20.639747   20.713941   24.511974 H          1 MOL1         0.0976
      17    C5      22.143301   19.492881   23.572996 C.3        1 MOL1        -0.1350
      18    H12     22.169130   18.769555   24.399982 H          1 MOL1         0.0976
      19    H13     22.916686   20.240277   23.799025 H          1 MOL1         0.0976
      20    C6      22.516125   18.778012   22.255804 C.3        1 MOL1        -0.2365
      21    H14     22.442986   19.461086   21.399710 H          1 MOL1         0.0987
      22    H15     21.864347   17.915015   22.072243 H          1 MOL1         0.0987
      23    H16     23.547659   18.405423   22.300576 H          1 MOL1         0.0987
@<TRIPOS>BOND
    1     1     2    1
    2     1     3    1
    3     1     4    1
    4     1     5    1
    5     5     6    1
    6     5     7    1
    7     5     8    1
    8     8     9    1
    9     8    10    1
   10     8    11    1
   11    11    12    1
   12    11    13    1
   13    11    14    1
   14    14    15    1
   15    14    16    1
   16    14    17    1
   17    17    18    1
   18    17    19    1
   19    17    20    1
   20    20    21    1
   21    20    22    1
   22    20    23    1
@<TRIPOS>SUBSTRUCTURE
       1 MOL1            1 RESIDUE      1      MOL     
@<SCITEGIC>MOL_PROPERTY
VConf Rank
SciTegic.value.IntegerValue
72

@<SCITEGIC>MOL_PROPERTY
Conf_Id
SciTegic.value.IntegerValue
55

@<SCITEGIC>MOL_PROPERTY
Delta U+W
SciTegic.value.DoubleValue
3.232

@<SCITEGIC>MOL_PROPERTY
U+W
SciTegic.value.DoubleValue
-5.150

@<SCITEGIC>MOL_PROPERTY
Grad RMS
SciTegic.value.DoubleValue
0.000000

@<SCITEGIC>MOL_PROPERTY
U
SciTegic.value.DoubleValue
50.625

@<SCITEGIC>MOL_PROPERTY
W
SciTegic.value.DoubleValue
-55.776

@<SCITEGIC>MOL_PROPERTY
W(PB)
SciTegic.value.DoubleValue
-57.839

@<SCITEGIC>MOL_PROPERTY
W(SA)
SciTegic.value.DoubleValue
2.064

@<SCITEGIC>MOL_PROPERTY
Valence
SciTegic.value.DoubleValue
4.837

@<SCITEGIC>MOL_PROPERTY
Coulomb
SciTegic.value.DoubleValue
45.097

@<SCITEGIC>MOL_PROPERTY
VdW
SciTegic.value.DoubleValue
0.692

@<SCITEGIC>MOL_PROPERTY
VdW6
SciTegic.value.DoubleValue
-6.655

@<SCITEGIC>MOL_PROPERTY
VdW12
SciTegic.value.DoubleValue
7.347

@<SCITEGIC>MOL_PROPERTY
Bond
SciTegic.value.DoubleValue
0.223

@<SCITEGIC>MOL_PROPERTY
Angle
SciTegic.value.DoubleValue
1.167

@<SCITEGIC>MOL_PROPERTY
Pdih
SciTegic.value.DoubleValue
3.447

@<SCITEGIC>MOL_PROPERTY
Idih
SciTegic.value.DoubleValue
0.000

@<SCITEGIC>MOL_PROPERTY
Tether
SciTegic.value.DoubleValue
0.000

@<TRIPOS>MOLECULE
guest-2_confgen4.mol2 : confsearch ligand conformer 73
          23          22           1
SMALL
USER_CHARGES
 
@<TRIPOS>ATOM
       1    N1      21.251617   21.558578   21.406937 N.4        1 MOL1        -0.5940
       2    H1      20.724784   22.388285   21.115629 H          1 MOL1         0.3649
       3    H2      22.039184   21.462743   20.756897 H          1 MOL1         0.3649
       4    H3      21.649484   21.762819   22.329295 H          1 MOL1         0.3649
       5    C1      20.383884   20.316698   21.427449 C.3        1 MOL1         0.0207
       6    H4      21.016240   19.472842   21.709182 H          1 MOL1         0.0950
       7    H5      20.019351   20.144744   20.411109 H          1 MOL1         0.0950
       8    C2      19.186809   20.434099   22.391304 C.3        1 MOL1        -0.1415
       9    H6      19.535699   20.653305   23.409188 H          1 MOL1         0.0976
      10    H7      18.581606   21.295569   22.078868 H          1 MOL1         0.0976
      11    C3      18.284540   19.174200   22.396888 C.3        1 MOL1        -0.1375
      12    H8      18.207924   18.761597   21.381265 H          1 MOL1         0.0976
      13    H9      17.266111   19.484798   22.668603 H          1 MOL1         0.0976
      14    C4      18.715432   18.065143   23.391774 C.3        1 MOL1        -0.1375
      15    H10     18.687223   18.461402   24.416213 H          1 MOL1         0.0976
      16    H11     17.965064   17.263241   23.355136 H          1 MOL1         0.0976
      17    C5      20.110279   17.458172   23.115204 C.3        1 MOL1        -0.1350
      18    H12     20.888553   18.209640   23.300946 H          1 MOL1         0.0976
      19    H13     20.186934   17.162744   22.059493 H          1 MOL1         0.0976
      20    C6      20.385147   16.231666   24.011200 C.3        1 MOL1        -0.2365
      21    H14     19.650559   15.436371   23.829266 H          1 MOL1         0.0987
      22    H15     20.340445   16.501806   25.074345 H          1 MOL1         0.0987
      23    H16     21.382770   15.820326   23.809760 H          1 MOL1         0.0987
@<TRIPOS>BOND
    1     1     2    1
    2     1     3    1
    3     1     4    1
    4     1     5    1
    5     5     6    1
    6     5     7    1
    7     5     8    1
    8     8     9    1
    9     8    10    1
   10     8    11    1
   11    11    12    1
   12    11    13    1
   13    11    14    1
   14    14    15    1
   15    14    16    1
   16    14    17    1
   17    17    18    1
   18    17    19    1
   19    17    20    1
   20    20    21    1
   21    20    22    1
   22    20    23    1
@<TRIPOS>SUBSTRUCTURE
       1 MOL1            1 RESIDUE      1      MOL     
@<SCITEGIC>MOL_PROPERTY
VConf Rank
SciTegic.value.IntegerValue
73

@<SCITEGIC>MOL_PROPERTY
Conf_Id
SciTegic.value.IntegerValue
93

@<SCITEGIC>MOL_PROPERTY
Delta U+W
SciTegic.value.DoubleValue
2.589

@<SCITEGIC>MOL_PROPERTY
U+W
SciTegic.value.DoubleValue
-5.793

@<SCITEGIC>MOL_PROPERTY
Grad RMS
SciTegic.value.DoubleValue
0.000000

@<SCITEGIC>MOL_PROPERTY
U
SciTegic.value.DoubleValue
50.122

@<SCITEGIC>MOL_PROPERTY
W
SciTegic.value.DoubleValue
-55.915

@<SCITEGIC>MOL_PROPERTY
W(PB)
SciTegic.value.DoubleValue
-58.031

@<SCITEGIC>MOL_PROPERTY
W(SA)
SciTegic.value.DoubleValue
2.115

@<SCITEGIC>MOL_PROPERTY
Valence
SciTegic.value.DoubleValue
4.132

@<SCITEGIC>MOL_PROPERTY
Coulomb
SciTegic.value.DoubleValue
45.536

@<SCITEGIC>MOL_PROPERTY
VdW
SciTegic.value.DoubleValue
0.454

@<SCITEGIC>MOL_PROPERTY
VdW6
SciTegic.value.DoubleValue
-6.262

@<SCITEGIC>MOL_PROPERTY
VdW12
SciTegic.value.DoubleValue
6.715

@<SCITEGIC>MOL_PROPERTY
Bond
SciTegic.value.DoubleValue
0.182

@<SCITEGIC>MOL_PROPERTY
Angle
SciTegic.value.DoubleValue
1.157

@<SCITEGIC>MOL_PROPERTY
Pdih
SciTegic.value.DoubleValue
2.794

@<SCITEGIC>MOL_PROPERTY
Idih
SciTegic.value.DoubleValue
0.000

@<SCITEGIC>MOL_PROPERTY
Tether
SciTegic.value.DoubleValue
0.000

@<TRIPOS>MOLECULE
guest-2_confgen4.mol2 : confsearch ligand conformer 74
          23          22           1
SMALL
USER_CHARGES
 
@<TRIPOS>ATOM
       1    N1      16.667374   19.461540   22.012784 N.4        1 MOL1        -0.5940
       2    H1      16.807370   19.138046   21.050231 H          1 MOL1         0.3649
       3    H2      16.294325   20.415257   21.955695 H          1 MOL1         0.3649
       4    H3      15.930846   18.878097   22.422600 H          1 MOL1         0.3649
       5    C1      17.947983   19.405054   22.820555 C.3        1 MOL1         0.0207
       6    H4      17.731373   19.789301   23.820972 H          1 MOL1         0.0950
       7    H5      18.669728   20.073950   22.348323 H          1 MOL1         0.0950
       8    C2      18.528940   17.981566   22.929908 C.3        1 MOL1        -0.1415
       9    H6      17.772459   17.340669   23.402144 H          1 MOL1         0.0976
      10    H7      18.708430   17.564124   21.930214 H          1 MOL1         0.0976
      11    C3      19.826225   17.917313   23.775122 C.3        1 MOL1        -0.1375
      12    H8      19.896224   16.913821   24.217391 H          1 MOL1         0.0976
      13    H9      19.757104   18.611614   24.624105 H          1 MOL1         0.0976
      14    C4      21.135892   18.171217   22.984060 C.3        1 MOL1        -0.1375
      15    H10     21.982272   18.029345   23.670320 H          1 MOL1         0.0976
      16    H11     21.245972   17.406048   22.203233 H          1 MOL1         0.0976
      17    C5      21.240232   19.574965   22.344444 C.3        1 MOL1        -0.1350
      18    H12     21.017934   20.345672   23.095623 H          1 MOL1         0.0976
      19    H13     20.497196   19.676792   21.542919 H          1 MOL1         0.0976
      20    C6      22.642893   19.827512   21.751616 C.3        1 MOL1        -0.2365
      21    H14     22.696062   20.823186   21.292449 H          1 MOL1         0.0987
      22    H15     22.883568   19.086493   20.978171 H          1 MOL1         0.0987
      23    H16     23.416295   19.774019   22.528921 H          1 MOL1         0.0987
@<TRIPOS>BOND
    1     1     2    1
    2     1     3    1
    3     1     4    1
    4     1     5    1
    5     5     6    1
    6     5     7    1
    7     5     8    1
    8     8     9    1
    9     8    10    1
   10     8    11    1
   11    11    12    1
   12    11    13    1
   13    11    14    1
   14    14    15    1
   15    14    16    1
   16    14    17    1
   17    17    18    1
   18    17    19    1
   19    17    20    1
   20    20    21    1
   21    20    22    1
   22    20    23    1
@<TRIPOS>SUBSTRUCTURE
       1 MOL1            1 RESIDUE      1      MOL     
@<SCITEGIC>MOL_PROPERTY
VConf Rank
SciTegic.value.IntegerValue
74

@<SCITEGIC>MOL_PROPERTY
Conf_Id
SciTegic.value.IntegerValue
70

@<SCITEGIC>MOL_PROPERTY
Delta U+W
SciTegic.value.DoubleValue
2.599

@<SCITEGIC>MOL_PROPERTY
U+W
SciTegic.value.DoubleValue
-5.783

@<SCITEGIC>MOL_PROPERTY
Grad RMS
SciTegic.value.DoubleValue
0.000000

@<SCITEGIC>MOL_PROPERTY
U
SciTegic.value.DoubleValue
50.122

@<SCITEGIC>MOL_PROPERTY
W
SciTegic.value.DoubleValue
-55.906

@<SCITEGIC>MOL_PROPERTY
W(PB)
SciTegic.value.DoubleValue
-58.010

@<SCITEGIC>MOL_PROPERTY
W(SA)
SciTegic.value.DoubleValue
2.105

@<SCITEGIC>MOL_PROPERTY
Valence
SciTegic.value.DoubleValue
4.132

@<SCITEGIC>MOL_PROPERTY
Coulomb
SciTegic.value.DoubleValue
45.536

@<SCITEGIC>MOL_PROPERTY
VdW
SciTegic.value.DoubleValue
0.454

@<SCITEGIC>MOL_PROPERTY
VdW6
SciTegic.value.DoubleValue
-6.262

@<SCITEGIC>MOL_PROPERTY
VdW12
SciTegic.value.DoubleValue
6.715

@<SCITEGIC>MOL_PROPERTY
Bond
SciTegic.value.DoubleValue
0.182

@<SCITEGIC>MOL_PROPERTY
Angle
SciTegic.value.DoubleValue
1.157

@<SCITEGIC>MOL_PROPERTY
Pdih
SciTegic.value.DoubleValue
2.794

@<SCITEGIC>MOL_PROPERTY
Idih
SciTegic.value.DoubleValue
0.000

@<SCITEGIC>MOL_PROPERTY
Tether
SciTegic.value.DoubleValue
0.000

@<TRIPOS>MOLECULE
guest-2_confgen4.mol2 : confsearch ligand conformer 75
          23          22           1
SMALL
USER_CHARGES
 
@<TRIPOS>ATOM
       1    N1      19.787842   19.648188   19.822141 N.4        1 MOL1        -0.5940
       2    H1      19.116596   19.278061   19.141743 H          1 MOL1         0.3649
       3    H2      20.532851   20.107907   19.287929 H          1 MOL1         0.3649
       4    H3      19.306289   20.377441   20.356709 H          1 MOL1         0.3649
       5    C1      20.331635   18.559136   20.725740 C.3        1 MOL1         0.0207
       6    H4      21.062451   19.011555   21.401143 H          1 MOL1         0.0950
       7    H5      20.854437   17.834076   20.096088 H          1 MOL1         0.0950
       8    C2      19.243957   17.835843   21.545245 C.3        1 MOL1        -0.1415
       9    H6      18.535349   17.356407   20.856964 H          1 MOL1         0.0976
      10    H7      19.710718   17.018865   22.110133 H          1 MOL1         0.0976
      11    C3      18.464610   18.762757   22.515014 C.3        1 MOL1        -0.1375
      12    H8      17.743955   18.156756   23.081250 H          1 MOL1         0.0976
      13    H9      17.861797   19.471875   21.931918 H          1 MOL1         0.0976
      14    C4      19.348864   19.557997   23.510247 C.3        1 MOL1        -0.1375
      15    H10     20.012318   20.240649   22.962791 H          1 MOL1         0.0976
      16    H11     18.695018   20.196462   24.120317 H          1 MOL1         0.0976
      17    C5      20.187404   18.657442   24.447660 C.3        1 MOL1        -0.1350
      18    H12     20.899505   18.060513   23.862401 H          1 MOL1         0.0976
      19    H13     19.528555   17.948153   24.967795 H          1 MOL1         0.0976
      20    C6      20.967489   19.489024   25.488006 C.3        1 MOL1        -0.2365
      21    H14     21.558400   18.835266   26.142558 H          1 MOL1         0.0987
      22    H15     20.284919   20.070896   26.121029 H          1 MOL1         0.0987
      23    H16     21.657855   20.187487   24.997344 H          1 MOL1         0.0987
@<TRIPOS>BOND
    1     1     2    1
    2     1     3    1
    3     1     4    1
    4     1     5    1
    5     5     6    1
    6     5     7    1
    7     5     8    1
    8     8     9    1
    9     8    10    1
   10     8    11    1
   11    11    12    1
   12    11    13    1
   13    11    14    1
   14    14    15    1
   15    14    16    1
   16    14    17    1
   17    17    18    1
   18    17    19    1
   19    17    20    1
   20    20    21    1
   21    20    22    1
   22    20    23    1
@<TRIPOS>SUBSTRUCTURE
       1 MOL1            1 RESIDUE      1      MOL     
@<SCITEGIC>MOL_PROPERTY
VConf Rank
SciTegic.value.IntegerValue
75

@<SCITEGIC>MOL_PROPERTY
Conf_Id
SciTegic.value.IntegerValue
72

@<SCITEGIC>MOL_PROPERTY
Delta U+W
SciTegic.value.DoubleValue
1.051

@<SCITEGIC>MOL_PROPERTY
U+W
SciTegic.value.DoubleValue
-7.331

@<SCITEGIC>MOL_PROPERTY
Grad RMS
SciTegic.value.DoubleValue
0.000000

@<SCITEGIC>MOL_PROPERTY
U
SciTegic.value.DoubleValue
48.590

@<SCITEGIC>MOL_PROPERTY
W
SciTegic.value.DoubleValue
-55.922

@<SCITEGIC>MOL_PROPERTY
W(PB)
SciTegic.value.DoubleValue
-58.012

@<SCITEGIC>MOL_PROPERTY
W(SA)
SciTegic.value.DoubleValue
2.090

@<SCITEGIC>MOL_PROPERTY
Valence
SciTegic.value.DoubleValue
2.601

@<SCITEGIC>MOL_PROPERTY
Coulomb
SciTegic.value.DoubleValue
45.520

@<SCITEGIC>MOL_PROPERTY
VdW
SciTegic.value.DoubleValue
0.469

@<SCITEGIC>MOL_PROPERTY
VdW6
SciTegic.value.DoubleValue
-6.867

@<SCITEGIC>MOL_PROPERTY
VdW12
SciTegic.value.DoubleValue
7.336

@<SCITEGIC>MOL_PROPERTY
Bond
SciTegic.value.DoubleValue
0.205

@<SCITEGIC>MOL_PROPERTY
Angle
SciTegic.value.DoubleValue
0.962

@<SCITEGIC>MOL_PROPERTY
Pdih
SciTegic.value.DoubleValue
1.434

@<SCITEGIC>MOL_PROPERTY
Idih
SciTegic.value.DoubleValue
0.000

@<SCITEGIC>MOL_PROPERTY
Tether
SciTegic.value.DoubleValue
0.000

@<TRIPOS>MOLECULE
guest-2_confgen4.mol2 : confsearch ligand conformer 76
          23          22           1
SMALL
USER_CHARGES
 
@<TRIPOS>ATOM
       1    N1      22.453586   20.535433   22.835677 N.4        1 MOL1        -0.5940
       2    H1      22.967100   21.067635   22.125028 H          1 MOL1         0.3649
       3    H2      23.153366   20.110064   23.452242 H          1 MOL1         0.3649
       4    H3      21.930407   21.215102   23.396922 H          1 MOL1         0.3649
       5    C1      21.543736   19.496505   22.212426 C.3        1 MOL1         0.0207
       6    H4      22.160555   18.825655   21.608402 H          1 MOL1         0.0950
       7    H5      20.847169   20.014959   21.548398 H          1 MOL1         0.0950
       8    C2      20.757232   18.679299   23.254253 C.3        1 MOL1        -0.1415
       9    H6      21.465221   18.193143   23.938455 H          1 MOL1         0.0976
      10    H7      20.147537   19.353029   23.869714 H          1 MOL1         0.0976
      11    C3      19.860130   17.593919   22.609102 C.3        1 MOL1        -0.1375
      12    H8      19.346286   17.034784   23.402374 H          1 MOL1         0.0976
      13    H9      20.500864   16.861633   22.098680 H          1 MOL1         0.0976
      14    C4      18.816124   18.130992   21.593049 C.3        1 MOL1        -0.1375
      15    H10     19.336900   18.543985   20.718674 H          1 MOL1         0.0976
      16    H11     18.228870   17.283684   21.213088 H          1 MOL1         0.0976
      17    C5      17.844523   19.202414   22.150063 C.3        1 MOL1        -0.1350
      18    H12     17.166351   19.513354   21.343161 H          1 MOL1         0.0976
      19    H13     18.399642   20.104533   22.440135 H          1 MOL1         0.0976
      20    C6      17.000267   18.702605   23.344190 C.3        1 MOL1        -0.2365
      21    H14     16.445252   17.792771   23.081325 H          1 MOL1         0.0987
      22    H15     16.271021   19.465543   23.645802 H          1 MOL1         0.0987
      23    H16     17.628025   18.482300   24.216511 H          1 MOL1         0.0987
@<TRIPOS>BOND
    1     1     2    1
    2     1     3    1
    3     1     4    1
    4     1     5    1
    5     5     6    1
    6     5     7    1
    7     5     8    1
    8     8     9    1
    9     8    10    1
   10     8    11    1
   11    11    12    1
   12    11    13    1
   13    11    14    1
   14    14    15    1
   15    14    16    1
   16    14    17    1
   17    17    18    1
   18    17    19    1
   19    17    20    1
   20    20    21    1
   21    20    22    1
   22    20    23    1
@<TRIPOS>SUBSTRUCTURE
       1 MOL1            1 RESIDUE      1      MOL     
@<SCITEGIC>MOL_PROPERTY
VConf Rank
SciTegic.value.IntegerValue
76

@<SCITEGIC>MOL_PROPERTY
Conf_Id
SciTegic.value.IntegerValue
26

@<SCITEGIC>MOL_PROPERTY
Delta U+W
SciTegic.value.DoubleValue
1.076

@<SCITEGIC>MOL_PROPERTY
U+W
SciTegic.value.DoubleValue
-7.306

@<SCITEGIC>MOL_PROPERTY
Grad RMS
SciTegic.value.DoubleValue
0.000000

@<SCITEGIC>MOL_PROPERTY
U
SciTegic.value.DoubleValue
48.641

@<SCITEGIC>MOL_PROPERTY
W
SciTegic.value.DoubleValue
-55.947

@<SCITEGIC>MOL_PROPERTY
W(PB)
SciTegic.value.DoubleValue
-58.031

@<SCITEGIC>MOL_PROPERTY
W(SA)
SciTegic.value.DoubleValue
2.084

@<SCITEGIC>MOL_PROPERTY
Valence
SciTegic.value.DoubleValue
2.922

@<SCITEGIC>MOL_PROPERTY
Coulomb
SciTegic.value.DoubleValue
45.269

@<SCITEGIC>MOL_PROPERTY
VdW
SciTegic.value.DoubleValue
0.449

@<SCITEGIC>MOL_PROPERTY
VdW6
SciTegic.value.DoubleValue
-7.045

@<SCITEGIC>MOL_PROPERTY
VdW12
SciTegic.value.DoubleValue
7.494

@<SCITEGIC>MOL_PROPERTY
Bond
SciTegic.value.DoubleValue
0.220

@<SCITEGIC>MOL_PROPERTY
Angle
SciTegic.value.DoubleValue
1.205

@<SCITEGIC>MOL_PROPERTY
Pdih
SciTegic.value.DoubleValue
1.497

@<SCITEGIC>MOL_PROPERTY
Idih
SciTegic.value.DoubleValue
0.000

@<SCITEGIC>MOL_PROPERTY
Tether
SciTegic.value.DoubleValue
0.000

@<TRIPOS>MOLECULE
guest-2_confgen4.mol2 : confsearch ligand conformer 77
          23          22           1
SMALL
USER_CHARGES
 
@<TRIPOS>ATOM
       1    N1      17.353953   17.147253   22.017144 N.4        1 MOL1        -0.5940
       2    H1      16.790859   16.895092   22.835754 H          1 MOL1         0.3649
       3    H2      17.251464   16.384707   21.338927 H          1 MOL1         0.3649
       4    H3      16.923125   17.978050   21.599022 H          1 MOL1         0.3649
       5    C1      18.805275   17.385184   22.381408 C.3        1 MOL1         0.0207
       6    H4      19.348538   17.618300   21.461922 H          1 MOL1         0.0950
       7    H5      19.207430   16.455383   22.792614 H          1 MOL1         0.0950
       8    C2      18.993546   18.525643   23.399114 C.3        1 MOL1        -0.1415
       9    H6      18.578473   19.456760   22.992706 H          1 MOL1         0.0976
      10    H7      18.414029   18.299089   24.303858 H          1 MOL1         0.0976
      11    C3      20.476386   18.734947   23.794639 C.3        1 MOL1        -0.1375
      12    H8      20.836967   17.833297   24.308761 H          1 MOL1         0.0976
      13    H9      20.539686   19.542915   24.535674 H          1 MOL1         0.0976
      14    C4      21.429842   19.042823   22.608515 C.3        1 MOL1        -0.1375
      15    H10     22.444839   19.187913   23.003353 H          1 MOL1         0.0976
      16    H11     21.491856   18.164028   21.952637 H          1 MOL1         0.0976
      17    C5      21.044081   20.278363   21.755958 C.3        1 MOL1        -0.1350
      18    H12     20.076348   20.113089   21.263722 H          1 MOL1         0.0976
      19    H13     21.778501   20.387802   20.945809 H          1 MOL1         0.0976
      20    C6      20.999157   21.592995   22.567280 C.3        1 MOL1        -0.2365
      21    H14     20.202633   21.573332   23.321417 H          1 MOL1         0.0987
      22    H15     20.806767   22.447179   21.905316 H          1 MOL1         0.0987
      23    H16     21.953221   21.773122   23.079390 H          1 MOL1         0.0987
@<TRIPOS>BOND
    1     1     2    1
    2     1     3    1
    3     1     4    1
    4     1     5    1
    5     5     6    1
    6     5     7    1
    7     5     8    1
    8     8     9    1
    9     8    10    1
   10     8    11    1
   11    11    12    1
   12    11    13    1
   13    11    14    1
   14    14    15    1
   15    14    16    1
   16    14    17    1
   17    17    18    1
   18    17    19    1
   19    17    20    1
   20    20    21    1
   21    20    22    1
   22    20    23    1
@<TRIPOS>SUBSTRUCTURE
       1 MOL1            1 RESIDUE      1      MOL     
@<SCITEGIC>MOL_PROPERTY
VConf Rank
SciTegic.value.IntegerValue
77

@<SCITEGIC>MOL_PROPERTY
Conf_Id
SciTegic.value.IntegerValue
90

@<SCITEGIC>MOL_PROPERTY
Delta U+W
SciTegic.value.DoubleValue
1.131

@<SCITEGIC>MOL_PROPERTY
U+W
SciTegic.value.DoubleValue
-7.251

@<SCITEGIC>MOL_PROPERTY
Grad RMS
SciTegic.value.DoubleValue
0.000000

@<SCITEGIC>MOL_PROPERTY
U
SciTegic.value.DoubleValue
48.641

@<SCITEGIC>MOL_PROPERTY
W
SciTegic.value.DoubleValue
-55.892

@<SCITEGIC>MOL_PROPERTY
W(PB)
SciTegic.value.DoubleValue
-57.962

@<SCITEGIC>MOL_PROPERTY
W(SA)
SciTegic.value.DoubleValue
2.070

@<SCITEGIC>MOL_PROPERTY
Valence
SciTegic.value.DoubleValue
2.922

@<SCITEGIC>MOL_PROPERTY
Coulomb
SciTegic.value.DoubleValue
45.269

@<SCITEGIC>MOL_PROPERTY
VdW
SciTegic.value.DoubleValue
0.450

@<SCITEGIC>MOL_PROPERTY
VdW6
SciTegic.value.DoubleValue
-7.045

@<SCITEGIC>MOL_PROPERTY
VdW12
SciTegic.value.DoubleValue
7.495

@<SCITEGIC>MOL_PROPERTY
Bond
SciTegic.value.DoubleValue
0.220

@<SCITEGIC>MOL_PROPERTY
Angle
SciTegic.value.DoubleValue
1.205

@<SCITEGIC>MOL_PROPERTY
Pdih
SciTegic.value.DoubleValue
1.497

@<SCITEGIC>MOL_PROPERTY
Idih
SciTegic.value.DoubleValue
0.000

@<SCITEGIC>MOL_PROPERTY
Tether
SciTegic.value.DoubleValue
0.000

@<TRIPOS>MOLECULE
guest-2_confgen4.mol2 : confsearch ligand conformer 78
          23          22           1
SMALL
USER_CHARGES
 
@<TRIPOS>ATOM
       1    N1      20.972273   16.669146   21.905031 N.4        1 MOL1        -0.5940
       2    H1      21.930244   16.348881   21.727343 H          1 MOL1         0.3649
       3    H2      20.807363   17.477648   21.297781 H          1 MOL1         0.3649
       4    H3      20.344256   15.921651   21.592912 H          1 MOL1         0.3649
       5    C1      20.755199   17.013536   23.365397 C.3        1 MOL1         0.0207
       6    H4      21.473021   17.790490   23.640699 H          1 MOL1         0.0950
       7    H5      20.979701   16.120551   23.955054 H          1 MOL1         0.0950
       8    C2      19.323216   17.490108   23.683506 C.3        1 MOL1        -0.1415
       9    H6      18.615255   16.684608   23.447390 H          1 MOL1         0.0976
      10    H7      19.241389   17.661639   24.765044 H          1 MOL1         0.0976
      11    C3      18.905599   18.777207   22.928817 C.3        1 MOL1        -0.1375
      12    H8      17.872506   19.026618   23.207424 H          1 MOL1         0.0976
      13    H9      18.892231   18.580511   21.849356 H          1 MOL1         0.0976
      14    C4      19.821942   19.987486   23.240291 C.3        1 MOL1        -0.1375
      15    H10     19.889603   20.114619   24.329569 H          1 MOL1         0.0976
      16    H11     20.843089   19.790486   22.887615 H          1 MOL1         0.0976
      17    C5      19.318550   21.313541   22.620963 C.3        1 MOL1        -0.1350
      18    H12     19.958893   22.133626   22.974879 H          1 MOL1         0.0976
      19    H13     18.306189   21.534619   22.987063 H          1 MOL1         0.0976
      20    C6      19.323328   21.309318   21.075293 C.3        1 MOL1        -0.2365
      21    H14     20.319252   21.064552   20.683933 H          1 MOL1         0.0987
      22    H15     19.044699   22.297885   20.687948 H          1 MOL1         0.0987
      23    H16     18.606448   20.583677   20.671638 H          1 MOL1         0.0987
@<TRIPOS>BOND
    1     1     2    1
    2     1     3    1
    3     1     4    1
    4     1     5    1
    5     5     6    1
    6     5     7    1
    7     5     8    1
    8     8     9    1
    9     8    10    1
   10     8    11    1
   11    11    12    1
   12    11    13    1
   13    11    14    1
   14    14    15    1
   15    14    16    1
   16    14    17    1
   17    17    18    1
   18    17    19    1
   19    17    20    1
   20    20    21    1
   21    20    22    1
   22    20    23    1
@<TRIPOS>SUBSTRUCTURE
       1 MOL1            1 RESIDUE      1      MOL     
@<SCITEGIC>MOL_PROPERTY
VConf Rank
SciTegic.value.IntegerValue
78

@<SCITEGIC>MOL_PROPERTY
Conf_Id
SciTegic.value.IntegerValue
85

@<SCITEGIC>MOL_PROPERTY
Delta U+W
SciTegic.value.DoubleValue
1.193

@<SCITEGIC>MOL_PROPERTY
U+W
SciTegic.value.DoubleValue
-7.189

@<SCITEGIC>MOL_PROPERTY
Grad RMS
SciTegic.value.DoubleValue
0.000000

@<SCITEGIC>MOL_PROPERTY
U
SciTegic.value.DoubleValue
48.775

@<SCITEGIC>MOL_PROPERTY
W
SciTegic.value.DoubleValue
-55.965

@<SCITEGIC>MOL_PROPERTY
W(PB)
SciTegic.value.DoubleValue
-58.038

@<SCITEGIC>MOL_PROPERTY
W(SA)
SciTegic.value.DoubleValue
2.073

@<SCITEGIC>MOL_PROPERTY
Valence
SciTegic.value.DoubleValue
2.602

@<SCITEGIC>MOL_PROPERTY
Coulomb
SciTegic.value.DoubleValue
45.581

@<SCITEGIC>MOL_PROPERTY
VdW
SciTegic.value.DoubleValue
0.592

@<SCITEGIC>MOL_PROPERTY
VdW6
SciTegic.value.DoubleValue
-6.616

@<SCITEGIC>MOL_PROPERTY
VdW12
SciTegic.value.DoubleValue
7.208

@<SCITEGIC>MOL_PROPERTY
Bond
SciTegic.value.DoubleValue
0.196

@<SCITEGIC>MOL_PROPERTY
Angle
SciTegic.value.DoubleValue
0.832

@<SCITEGIC>MOL_PROPERTY
Pdih
SciTegic.value.DoubleValue
1.574

@<SCITEGIC>MOL_PROPERTY
Idih
SciTegic.value.DoubleValue
0.000

@<SCITEGIC>MOL_PROPERTY
Tether
SciTegic.value.DoubleValue
0.000

@<TRIPOS>MOLECULE
guest-2_confgen4.mol2 : confsearch ligand conformer 79
          23          22           1
SMALL
USER_CHARGES
 
@<TRIPOS>ATOM
       1    N1      19.322140   16.963418   23.063704 N.4        1 MOL1        -0.5940
       2    H1      20.158370   17.555301   23.031074 H          1 MOL1         0.3649
       3    H2      19.559471   16.070967   22.617039 H          1 MOL1         0.3649
       4    H3      19.128427   16.761501   24.049970 H          1 MOL1         0.3649
       5    C1      18.143365   17.635775   22.386883 C.3        1 MOL1         0.0207
       6    H4      17.296427   16.948548   22.463863 H          1 MOL1         0.0950
       7    H5      18.376934   17.768756   21.327217 H          1 MOL1         0.0950
       8    C2      17.750700   18.990368   23.011070 C.3        1 MOL1        -0.1415
       9    H6      16.704396   19.189962   22.744145 H          1 MOL1         0.0976
      10    H7      17.769732   18.913668   24.106345 H          1 MOL1         0.0976
      11    C3      18.598277   20.204803   22.545377 C.3        1 MOL1        -0.1375
      12    H8      18.176585   21.101157   23.021014 H          1 MOL1         0.0976
      13    H9      18.470899   20.358760   21.464848 H          1 MOL1         0.0976
      14    C4      20.105613   20.136979   22.901182 C.3        1 MOL1        -0.1375
      15    H10     20.452584   21.150957   23.144491 H          1 MOL1         0.0976
      16    H11     20.253218   19.547206   23.815570 H          1 MOL1         0.0976
      17    C5      20.981738   19.600459   21.742885 C.3        1 MOL1        -0.1350
      18    H12     20.940938   20.306182   20.901205 H          1 MOL1         0.0976
      19    H13     20.591383   18.650375   21.359166 H          1 MOL1         0.0976
      20    C6      22.450879   19.414503   22.177480 C.3        1 MOL1        -0.2365
      21    H14     22.884213   20.364438   22.516912 H          1 MOL1         0.0987
      22    H15     23.059188   19.048261   21.340218 H          1 MOL1         0.0987
      23    H16     22.535327   18.689494   22.997233 H          1 MOL1         0.0987
@<TRIPOS>BOND
    1     1     2    1
    2     1     3    1
    3     1     4    1
    4     1     5    1
    5     5     6    1
    6     5     7    1
    7     5     8    1
    8     8     9    1
    9     8    10    1
   10     8    11    1
   11    11    12    1
   12    11    13    1
   13    11    14    1
   14    14    15    1
   15    14    16    1
   16    14    17    1
   17    17    18    1
   18    17    19    1
   19    17    20    1
   20    20    21    1
   21    20    22    1
   22    20    23    1
@<TRIPOS>SUBSTRUCTURE
       1 MOL1            1 RESIDUE      1      MOL     
@<SCITEGIC>MOL_PROPERTY
VConf Rank
SciTegic.value.IntegerValue
79

@<SCITEGIC>MOL_PROPERTY
Conf_Id
SciTegic.value.IntegerValue
82

@<SCITEGIC>MOL_PROPERTY
Delta U+W
SciTegic.value.DoubleValue
5.994

@<SCITEGIC>MOL_PROPERTY
U+W
SciTegic.value.DoubleValue
-2.388

@<SCITEGIC>MOL_PROPERTY
Grad RMS
SciTegic.value.DoubleValue
0.000000

@<SCITEGIC>MOL_PROPERTY
U
SciTegic.value.DoubleValue
52.836

@<SCITEGIC>MOL_PROPERTY
W
SciTegic.value.DoubleValue
-55.224

@<SCITEGIC>MOL_PROPERTY
W(PB)
SciTegic.value.DoubleValue
-57.261

@<SCITEGIC>MOL_PROPERTY
W(SA)
SciTegic.value.DoubleValue
2.037

@<SCITEGIC>MOL_PROPERTY
Valence
SciTegic.value.DoubleValue
5.785

@<SCITEGIC>MOL_PROPERTY
Coulomb
SciTegic.value.DoubleValue
46.744

@<SCITEGIC>MOL_PROPERTY
VdW
SciTegic.value.DoubleValue
0.307

@<SCITEGIC>MOL_PROPERTY
VdW6
SciTegic.value.DoubleValue
-7.672

@<SCITEGIC>MOL_PROPERTY
VdW12
SciTegic.value.DoubleValue
7.979

@<SCITEGIC>MOL_PROPERTY
Bond
SciTegic.value.DoubleValue
0.217

@<SCITEGIC>MOL_PROPERTY
Angle
SciTegic.value.DoubleValue
1.470

@<SCITEGIC>MOL_PROPERTY
Pdih
SciTegic.value.DoubleValue
4.098

@<SCITEGIC>MOL_PROPERTY
Idih
SciTegic.value.DoubleValue
0.000

@<SCITEGIC>MOL_PROPERTY
Tether
SciTegic.value.DoubleValue
0.000

@<TRIPOS>MOLECULE
guest-2_confgen4.mol2 : confsearch ligand conformer 80
          23          22           1
SMALL
USER_CHARGES
 
@<TRIPOS>ATOM
       1    N1      20.217561   18.719101   24.582139 N.4        1 MOL1        -0.5940
       2    H1      19.921543   19.468015   25.216582 H          1 MOL1         0.3649
       3    H2      20.353903   17.878938   25.154710 H          1 MOL1         0.3649
       4    H3      19.437507   18.532666   23.943835 H          1 MOL1         0.3649
       5    C1      21.475478   19.092570   23.821994 C.3        1 MOL1         0.0207
       6    H4      21.782836   18.238839   23.212239 H          1 MOL1         0.0950
       7    H5      22.255403   19.276314   24.565947 H          1 MOL1         0.0950
       8    C2      21.323010   20.343719   22.933120 C.3        1 MOL1        -0.1415
       9    H6      20.773822   21.122188   23.479245 H          1 MOL1         0.0976
      10    H7      22.326779   20.753426   22.758687 H          1 MOL1         0.0976
      11    C3      20.665139   20.096596   21.548833 C.3        1 MOL1        -0.1375
      12    H8      21.289760   19.416883   20.952755 H          1 MOL1         0.0976
      13    H9      20.672065   21.052417   21.006741 H          1 MOL1         0.0976
      14    C4      19.204156   19.579918   21.591666 C.3        1 MOL1        -0.1375
      15    H10     18.702484   19.936140   22.501147 H          1 MOL1         0.0976
      16    H11     18.650981   20.028001   20.754435 H          1 MOL1         0.0976
      17    C5      19.097903   18.040809   21.461444 C.3        1 MOL1        -0.1350
      18    H12     19.749561   17.536827   22.185064 H          1 MOL1         0.0976
      19    H13     19.456297   17.735927   20.468099 H          1 MOL1         0.0976
      20    C6      17.646367   17.551123   21.648734 C.3        1 MOL1        -0.2365
      21    H14     17.263995   17.809277   22.644683 H          1 MOL1         0.0987
      22    H15     17.588106   16.460458   21.538120 H          1 MOL1         0.0987
      23    H16     16.979786   18.000435   20.900966 H          1 MOL1         0.0987
@<TRIPOS>BOND
    1     1     2    1
    2     1     3    1
    3     1     4    1
    4     1     5    1
    5     5     6    1
    6     5     7    1
    7     5     8    1
    8     8     9    1
    9     8    10    1
   10     8    11    1
   11    11    12    1
   12    11    13    1
   13    11    14    1
   14    14    15    1
   15    14    16    1
   16    14    17    1
   17    17    18    1
   18    17    19    1
   19    17    20    1
   20    20    21    1
   21    20    22    1
   22    20    23    1
@<TRIPOS>SUBSTRUCTURE
       1 MOL1            1 RESIDUE      1      MOL     
@<SCITEGIC>MOL_PROPERTY
VConf Rank
SciTegic.value.IntegerValue
80

@<SCITEGIC>MOL_PROPERTY
Conf_Id
SciTegic.value.IntegerValue
5

@<SCITEGIC>MOL_PROPERTY
Delta U+W
SciTegic.value.DoubleValue
6.087

@<SCITEGIC>MOL_PROPERTY
U+W
SciTegic.value.DoubleValue
-2.295

@<SCITEGIC>MOL_PROPERTY
Grad RMS
SciTegic.value.DoubleValue
0.000000

@<SCITEGIC>MOL_PROPERTY
U
SciTegic.value.DoubleValue
52.836

@<SCITEGIC>MOL_PROPERTY
W
SciTegic.value.DoubleValue
-55.131

@<SCITEGIC>MOL_PROPERTY
W(PB)
SciTegic.value.DoubleValue
-57.202

@<SCITEGIC>MOL_PROPERTY
W(SA)
SciTegic.value.DoubleValue
2.071

@<SCITEGIC>MOL_PROPERTY
Valence
SciTegic.value.DoubleValue
5.785

@<SCITEGIC>MOL_PROPERTY
Coulomb
SciTegic.value.DoubleValue
46.744

@<SCITEGIC>MOL_PROPERTY
VdW
SciTegic.value.DoubleValue
0.307

@<SCITEGIC>MOL_PROPERTY
VdW6
SciTegic.value.DoubleValue
-7.672

@<SCITEGIC>MOL_PROPERTY
VdW12
SciTegic.value.DoubleValue
7.980

@<SCITEGIC>MOL_PROPERTY
Bond
SciTegic.value.DoubleValue
0.217

@<SCITEGIC>MOL_PROPERTY
Angle
SciTegic.value.DoubleValue
1.470

@<SCITEGIC>MOL_PROPERTY
Pdih
SciTegic.value.DoubleValue
4.098

@<SCITEGIC>MOL_PROPERTY
Idih
SciTegic.value.DoubleValue
0.000

@<SCITEGIC>MOL_PROPERTY
Tether
SciTegic.value.DoubleValue
0.000

@<TRIPOS>MOLECULE
guest-2_confgen4.mol2 : confsearch ligand conformer 81
          23          22           1
SMALL
USER_CHARGES
 
@<TRIPOS>ATOM
       1    N1      21.223986   15.703436   21.291077 N.4        1 MOL1        -0.5940
       2    H1      21.958816   16.122738   20.712203 H          1 MOL1         0.3649
       3    H2      20.920514   14.847859   20.813597 H          1 MOL1         0.3649
       4    H3      21.662117   15.413637   22.171385 H          1 MOL1         0.3649
       5    C1      20.070701   16.658950   21.520912 C.3        1 MOL1         0.0207
       6    H4      19.315376   16.139180   22.116579 H          1 MOL1         0.0950
       7    H5      19.634262   16.901325   20.548147 H          1 MOL1         0.0950
       8    C2      20.493341   17.954380   22.236323 C.3        1 MOL1        -0.1415
       9    H6      20.945791   17.705154   23.205486 H          1 MOL1         0.0976
      10    H7      21.263635   18.464550   21.642630 H          1 MOL1         0.0976
      11    C3      19.290820   18.899878   22.451172 C.3        1 MOL1        -0.1375
      12    H8      18.520223   18.383990   23.040954 H          1 MOL1         0.0976
      13    H9      18.837774   19.142605   21.479763 H          1 MOL1         0.0976
      14    C4      19.704048   20.204709   23.169267 C.3        1 MOL1        -0.1375
      15    H10     20.156932   19.962185   24.140653 H          1 MOL1         0.0976
      16    H11     20.474545   20.720672   22.579666 H          1 MOL1         0.0976
      17    C5      18.501179   21.150120   23.383895 C.3        1 MOL1        -0.1350
      18    H12     17.728463   20.639282   23.975441 H          1 MOL1         0.0976
      19    H13     18.046061   21.397709   22.414596 H          1 MOL1         0.0976
      20    C6      18.917653   22.451877   24.101172 C.3        1 MOL1        -0.2365
      21    H14     18.050760   23.109896   24.244530 H          1 MOL1         0.0987
      22    H15     19.665692   23.002924   23.516352 H          1 MOL1         0.0987
      23    H16     19.345639   22.238570   25.089382 H          1 MOL1         0.0987
@<TRIPOS>BOND
    1     1     2    1
    2     1     3    1
    3     1     4    1
    4     1     5    1
    5     5     6    1
    6     5     7    1
    7     5     8    1
    8     8     9    1
    9     8    10    1
   10     8    11    1
   11    11    12    1
   12    11    13    1
   13    11    14    1
   14    14    15    1
   15    14    16    1
   16    14    17    1
   17    17    18    1
   18    17    19    1
   19    17    20    1
   20    20    21    1
   21    20    22    1
   22    20    23    1
@<TRIPOS>SUBSTRUCTURE
       1 MOL1            1 RESIDUE      1      MOL     
@<SCITEGIC>MOL_PROPERTY
VConf Rank
SciTegic.value.IntegerValue
81

@<SCITEGIC>MOL_PROPERTY
Conf_Id
SciTegic.value.IntegerValue
40

@<SCITEGIC>MOL_PROPERTY
Delta U+W
SciTegic.value.DoubleValue
0.000

@<SCITEGIC>MOL_PROPERTY
U+W
SciTegic.value.DoubleValue
-8.382

@<SCITEGIC>MOL_PROPERTY
Grad RMS
SciTegic.value.DoubleValue
0.000000

@<SCITEGIC>MOL_PROPERTY
U
SciTegic.value.DoubleValue
46.604

@<SCITEGIC>MOL_PROPERTY
W
SciTegic.value.DoubleValue
-54.986

@<SCITEGIC>MOL_PROPERTY
W(PB)
SciTegic.value.DoubleValue
-57.162

@<SCITEGIC>MOL_PROPERTY
W(SA)
SciTegic.value.DoubleValue
2.176

@<SCITEGIC>MOL_PROPERTY
Valence
SciTegic.value.DoubleValue
1.727

@<SCITEGIC>MOL_PROPERTY
Coulomb
SciTegic.value.DoubleValue
44.434

@<SCITEGIC>MOL_PROPERTY
VdW
SciTegic.value.DoubleValue
0.443

@<SCITEGIC>MOL_PROPERTY
VdW6
SciTegic.value.DoubleValue
-4.623

@<SCITEGIC>MOL_PROPERTY
VdW12
SciTegic.value.DoubleValue
5.066

@<SCITEGIC>MOL_PROPERTY
Bond
SciTegic.value.DoubleValue
0.112

@<SCITEGIC>MOL_PROPERTY
Angle
SciTegic.value.DoubleValue
0.386

@<SCITEGIC>MOL_PROPERTY
Pdih
SciTegic.value.DoubleValue
1.228

@<SCITEGIC>MOL_PROPERTY
Idih
SciTegic.value.DoubleValue
0.000

@<SCITEGIC>MOL_PROPERTY
Tether
SciTegic.value.DoubleValue
0.000

@<TRIPOS>MOLECULE
guest-2_confgen4.mol2 : confsearch ligand conformer 82
          23          22           1
SMALL
USER_CHARGES
 
@<TRIPOS>ATOM
       1    N1      22.769223   20.909477   23.034707 N.4        1 MOL1        -0.5940
       2    H1      23.569871   20.281929   23.161141 H          1 MOL1         0.3649
       3    H2      22.543097   21.298960   23.955578 H          1 MOL1         0.3649
       4    H3      23.091451   21.689665   22.452037 H          1 MOL1         0.3649
       5    C1      21.584180   20.196470   22.415774 C.3        1 MOL1         0.0207
       6    H4      21.886069   19.833654   21.429550 H          1 MOL1         0.0950
       7    H5      20.784521   20.929564   22.282971 H          1 MOL1         0.0950
       8    C2      21.076641   19.017980   23.268241 C.3        1 MOL1        -0.1415
       9    H6      21.903265   18.314050   23.432928 H          1 MOL1         0.0976
      10    H7      20.772131   19.382009   24.258564 H          1 MOL1         0.0976
      11    C3      19.899512   18.262100   22.607457 C.3        1 MOL1        -0.1375
      12    H8      19.674763   17.377055   23.216674 H          1 MOL1         0.0976
      13    H9      20.210199   17.890799   21.621059 H          1 MOL1         0.0976
      14    C4      18.623987   19.130704   22.462072 C.3        1 MOL1        -0.1375
      15    H10     18.301916   19.484522   23.451165 H          1 MOL1         0.0976
      16    H11     18.855700   20.028087   21.873414 H          1 MOL1         0.0976
      17    C5      17.451521   18.392425   21.771569 C.3        1 MOL1        -0.1350
      18    H12     17.764801   18.045244   20.777024 H          1 MOL1         0.0976
      19    H13     16.635142   19.108740   21.603368 H          1 MOL1         0.0976
      20    C6      16.904974   17.200754   22.590468 C.3        1 MOL1        -0.2365
      21    H14     17.646671   16.397486   22.679367 H          1 MOL1         0.0987
      22    H15     16.017071   16.776183   22.104345 H          1 MOL1         0.0987
      23    H16     16.615288   17.515815   23.601324 H          1 MOL1         0.0987
@<TRIPOS>BOND
    1     1     2    1
    2     1     3    1
    3     1     4    1
    4     1     5    1
    5     5     6    1
    6     5     7    1
    7     5     8    1
    8     8     9    1
    9     8    10    1
   10     8    11    1
   11    11    12    1
   12    11    13    1
   13    11    14    1
   14    14    15    1
   15    14    16    1
   16    14    17    1
   17    17    18    1
   18    17    19    1
   19    17    20    1
   20    20    21    1
   21    20    22    1
   22    20    23    1
@<TRIPOS>SUBSTRUCTURE
       1 MOL1            1 RESIDUE      1      MOL     
@<SCITEGIC>MOL_PROPERTY
VConf Rank
SciTegic.value.IntegerValue
82

@<SCITEGIC>MOL_PROPERTY
Conf_Id
SciTegic.value.IntegerValue
65

@<SCITEGIC>MOL_PROPERTY
Delta U+W
SciTegic.value.DoubleValue
1.004

@<SCITEGIC>MOL_PROPERTY
U+W
SciTegic.value.DoubleValue
-7.378

@<SCITEGIC>MOL_PROPERTY
Grad RMS
SciTegic.value.DoubleValue
0.000000

@<SCITEGIC>MOL_PROPERTY
U
SciTegic.value.DoubleValue
48.047

@<SCITEGIC>MOL_PROPERTY
W
SciTegic.value.DoubleValue
-55.425

@<SCITEGIC>MOL_PROPERTY
W(PB)
SciTegic.value.DoubleValue
-57.542

@<SCITEGIC>MOL_PROPERTY
W(SA)
SciTegic.value.DoubleValue
2.116

@<SCITEGIC>MOL_PROPERTY
Valence
SciTegic.value.DoubleValue
2.583

@<SCITEGIC>MOL_PROPERTY
Coulomb
SciTegic.value.DoubleValue
44.791

@<SCITEGIC>MOL_PROPERTY
VdW
SciTegic.value.DoubleValue
0.673

@<SCITEGIC>MOL_PROPERTY
VdW6
SciTegic.value.DoubleValue
-5.788

@<SCITEGIC>MOL_PROPERTY
VdW12
SciTegic.value.DoubleValue
6.462

@<SCITEGIC>MOL_PROPERTY
Bond
SciTegic.value.DoubleValue
0.177

@<SCITEGIC>MOL_PROPERTY
Angle
SciTegic.value.DoubleValue
0.787

@<SCITEGIC>MOL_PROPERTY
Pdih
SciTegic.value.DoubleValue
1.619

@<SCITEGIC>MOL_PROPERTY
Idih
SciTegic.value.DoubleValue
0.000

@<SCITEGIC>MOL_PROPERTY
Tether
SciTegic.value.DoubleValue
0.000

@<TRIPOS>MOLECULE
guest-2_confgen4.mol2 : confsearch ligand conformer 83
          23          22           1
SMALL
USER_CHARGES
 
@<TRIPOS>ATOM
       1    N1      17.479540   16.544634   21.422768 N.4        1 MOL1        -0.5940
       2    H1      16.518628   16.796218   21.676129 H          1 MOL1         0.3649
       3    H2      17.561106   15.528506   21.536168 H          1 MOL1         0.3649
       4    H3      17.589360   16.742582   20.422973 H          1 MOL1         0.3649
       5    C1      18.498680   17.288407   22.261773 C.3        1 MOL1         0.0207
       6    H4      19.492684   16.948972   21.959683 H          1 MOL1         0.0950
       7    H5      18.342732   17.009976   23.307511 H          1 MOL1         0.0950
       8    C2      18.401281   18.818614   22.113070 C.3        1 MOL1        -0.1415
       9    H6      18.559026   19.098959   21.063066 H          1 MOL1         0.0976
      10    H7      17.383857   19.138939   22.374196 H          1 MOL1         0.0976
      11    C3      19.409891   19.574459   23.010300 C.3        1 MOL1        -0.1375
      12    H8      19.243183   19.299480   24.060998 H          1 MOL1         0.0976
      13    H9      19.200086   20.649128   22.932635 H          1 MOL1         0.0976
      14    C4      20.887048   19.304075   22.626276 C.3        1 MOL1        -0.1375
      15    H10     21.089361   18.226277   22.680354 H          1 MOL1         0.0976
      16    H11     21.058218   19.598654   21.581698 H          1 MOL1         0.0976
      17    C5      21.903835   20.030407   23.540117 C.3        1 MOL1        -0.1350
      18    H12     22.916452   19.694490   23.276225 H          1 MOL1         0.0976
      19    H13     21.744115   19.731388   24.585524 H          1 MOL1         0.0976
      20    C6      21.846417   21.570799   23.424858 C.3        1 MOL1        -0.2365
      21    H14     20.894670   21.968740   23.797788 H          1 MOL1         0.0987
      22    H15     21.970569   21.893915   22.383132 H          1 MOL1         0.0987
      23    H16     22.649151   22.030032   24.016186 H          1 MOL1         0.0987
@<TRIPOS>BOND
    1     1     2    1
    2     1     3    1
    3     1     4    1
    4     1     5    1
    5     5     6    1
    6     5     7    1
    7     5     8    1
    8     8     9    1
    9     8    10    1
   10     8    11    1
   11    11    12    1
   12    11    13    1
   13    11    14    1
   14    14    15    1
   15    14    16    1
   16    14    17    1
   17    17    18    1
   18    17    19    1
   19    17    20    1
   20    20    21    1
   21    20    22    1
   22    20    23    1
@<TRIPOS>SUBSTRUCTURE
       1 MOL1            1 RESIDUE      1      MOL     
@<SCITEGIC>MOL_PROPERTY
VConf Rank
SciTegic.value.IntegerValue
83

@<SCITEGIC>MOL_PROPERTY
Conf_Id
SciTegic.value.IntegerValue
92

@<SCITEGIC>MOL_PROPERTY
Delta U+W
SciTegic.value.DoubleValue
0.973

@<SCITEGIC>MOL_PROPERTY
U+W
SciTegic.value.DoubleValue
-7.409

@<SCITEGIC>MOL_PROPERTY
Grad RMS
SciTegic.value.DoubleValue
0.000000

@<SCITEGIC>MOL_PROPERTY
U
SciTegic.value.DoubleValue
48.047

@<SCITEGIC>MOL_PROPERTY
W
SciTegic.value.DoubleValue
-55.456

@<SCITEGIC>MOL_PROPERTY
W(PB)
SciTegic.value.DoubleValue
-57.595

@<SCITEGIC>MOL_PROPERTY
W(SA)
SciTegic.value.DoubleValue
2.138

@<SCITEGIC>MOL_PROPERTY
Valence
SciTegic.value.DoubleValue
2.583

@<SCITEGIC>MOL_PROPERTY
Coulomb
SciTegic.value.DoubleValue
44.791

@<SCITEGIC>MOL_PROPERTY
VdW
SciTegic.value.DoubleValue
0.674

@<SCITEGIC>MOL_PROPERTY
VdW6
SciTegic.value.DoubleValue
-5.789

@<SCITEGIC>MOL_PROPERTY
VdW12
SciTegic.value.DoubleValue
6.462

@<SCITEGIC>MOL_PROPERTY
Bond
SciTegic.value.DoubleValue
0.177

@<SCITEGIC>MOL_PROPERTY
Angle
SciTegic.value.DoubleValue
0.787

@<SCITEGIC>MOL_PROPERTY
Pdih
SciTegic.value.DoubleValue
1.619

@<SCITEGIC>MOL_PROPERTY
Idih
SciTegic.value.DoubleValue
0.000

@<SCITEGIC>MOL_PROPERTY
Tether
SciTegic.value.DoubleValue
0.000

@<TRIPOS>MOLECULE
guest-2_confgen4.mol2 : confsearch ligand conformer 84
          23          22           1
SMALL
USER_CHARGES
 
@<TRIPOS>ATOM
       1    N1      20.445623   15.592079   21.836193 N.4        1 MOL1        -0.5940
       2    H1      21.363655   15.307251   21.478250 H          1 MOL1         0.3649
       3    H2      19.742128   15.096678   21.278944 H          1 MOL1         0.3649
       4    H3      20.376149   15.236025   22.794962 H          1 MOL1         0.3649
       5    C1      20.259196   17.094542   21.775963 C.3        1 MOL1         0.0207
       6    H4      20.373854   17.407461   20.734640 H          1 MOL1         0.0950
       7    H5      21.057408   17.555095   22.363706 H          1 MOL1         0.0950
       8    C2      18.888294   17.554287   22.307113 C.3        1 MOL1        -0.1415
       9    H6      18.095806   17.050497   21.737811 H          1 MOL1         0.0976
      10    H7      18.772866   17.239223   23.352774 H          1 MOL1         0.0976
      11    C3      18.687912   19.084452   22.199986 C.3        1 MOL1        -0.1375
      12    H8      17.661326   19.327509   22.507384 H          1 MOL1         0.0976
      13    H9      18.778558   19.393112   21.149195 H          1 MOL1         0.0976
      14    C4      19.683356   19.890412   23.068883 C.3        1 MOL1        -0.1375
      15    H10     19.613467   19.556072   24.113273 H          1 MOL1         0.0976
      16    H11     20.712779   19.694632   22.740225 H          1 MOL1         0.0976
      17    C5      19.409148   21.409064   22.996249 C.3        1 MOL1        -0.1350
      18    H12     18.383410   21.617866   23.331246 H          1 MOL1         0.0976
      19    H13     19.477138   21.748854   21.953225 H          1 MOL1         0.0976
      20    C6      20.403300   22.211950   23.862042 C.3        1 MOL1        -0.2365
      21    H14     20.334774   21.917637   24.917462 H          1 MOL1         0.0987
      22    H15     20.192440   23.287346   23.797950 H          1 MOL1         0.0987
      23    H16     21.436809   22.050982   23.528622 H          1 MOL1         0.0987
@<TRIPOS>BOND
    1     1     2    1
    2     1     3    1
    3     1     4    1
    4     1     5    1
    5     5     6    1
    6     5     7    1
    7     5     8    1
    8     8     9    1
    9     8    10    1
   10     8    11    1
   11    11    12    1
   12    11    13    1
   13    11    14    1
   14    14    15    1
   15    14    16    1
   16    14    17    1
   17    17    18    1
   18    17    19    1
   19    17    20    1
   20    20    21    1
   21    20    22    1
   22    20    23    1
@<TRIPOS>SUBSTRUCTURE
       1 MOL1            1 RESIDUE      1      MOL     
@<SCITEGIC>MOL_PROPERTY
VConf Rank
SciTegic.value.IntegerValue
84

@<SCITEGIC>MOL_PROPERTY
Conf_Id
SciTegic.value.IntegerValue
42

@<SCITEGIC>MOL_PROPERTY
Delta U+W
SciTegic.value.DoubleValue
0.365

@<SCITEGIC>MOL_PROPERTY
U+W
SciTegic.value.DoubleValue
-8.017

@<SCITEGIC>MOL_PROPERTY
Grad RMS
SciTegic.value.DoubleValue
0.000000

@<SCITEGIC>MOL_PROPERTY
U
SciTegic.value.DoubleValue
47.375

@<SCITEGIC>MOL_PROPERTY
W
SciTegic.value.DoubleValue
-55.392

@<SCITEGIC>MOL_PROPERTY
W(PB)
SciTegic.value.DoubleValue
-57.543

@<SCITEGIC>MOL_PROPERTY
W(SA)
SciTegic.value.DoubleValue
2.152

@<SCITEGIC>MOL_PROPERTY
Valence
SciTegic.value.DoubleValue
2.032

@<SCITEGIC>MOL_PROPERTY
Coulomb
SciTegic.value.DoubleValue
44.843

@<SCITEGIC>MOL_PROPERTY
VdW
SciTegic.value.DoubleValue
0.499

@<SCITEGIC>MOL_PROPERTY
VdW6
SciTegic.value.DoubleValue
-5.218

@<SCITEGIC>MOL_PROPERTY
VdW12
SciTegic.value.DoubleValue
5.717

@<SCITEGIC>MOL_PROPERTY
Bond
SciTegic.value.DoubleValue
0.135

@<SCITEGIC>MOL_PROPERTY
Angle
SciTegic.value.DoubleValue
0.514

@<SCITEGIC>MOL_PROPERTY
Pdih
SciTegic.value.DoubleValue
1.383

@<SCITEGIC>MOL_PROPERTY
Idih
SciTegic.value.DoubleValue
0.000

@<SCITEGIC>MOL_PROPERTY
Tether
SciTegic.value.DoubleValue
0.000

@<TRIPOS>MOLECULE
guest-2_confgen4.mol2 : confsearch ligand conformer 85
          23          22           1
SMALL
USER_CHARGES
 
@<TRIPOS>ATOM
       1    N1      21.405461   21.697980   22.746517 N.4        1 MOL1        -0.5940
       2    H1      21.968016   21.463144   21.922492 H          1 MOL1         0.3649
       3    H2      21.889935   22.460894   23.231486 H          1 MOL1         0.3649
       4    H3      20.515720   22.076339   22.407982 H          1 MOL1         0.3649
       5    C1      21.200503   20.497491   23.650067 C.3        1 MOL1         0.0207
       6    H4      20.616805   20.819563   24.516663 H          1 MOL1         0.0950
       7    H5      22.184998   20.178057   24.002633 H          1 MOL1         0.0950
       8    C2      20.496641   19.311737   22.961737 C.3        1 MOL1        -0.1415
       9    H6      21.070128   19.007933   22.076036 H          1 MOL1         0.0976
      10    H7      20.509744   18.464347   23.658067 H          1 MOL1         0.0976
      11    C3      19.034023   19.630971   22.567220 C.3        1 MOL1        -0.1375
      12    H8      19.011410   20.541679   21.954496 H          1 MOL1         0.0976
      13    H9      18.454214   19.857576   23.472691 H          1 MOL1         0.0976
      14    C4      18.325882   18.503862   21.771470 C.3        1 MOL1        -0.1375
      15    H10     17.320099   18.863758   21.513859 H          1 MOL1         0.0976
      16    H11     18.835680   18.341599   20.811782 H          1 MOL1         0.0976
      17    C5      18.176581   17.161544   22.533266 C.3        1 MOL1        -0.1350
      18    H12     17.214943   16.707033   22.256422 H          1 MOL1         0.0976
      19    H13     18.124851   17.340096   23.616337 H          1 MOL1         0.0976
      20    C6      19.294916   16.143739   22.208212 C.3        1 MOL1        -0.2365
      21    H14     19.304653   15.901611   21.137540 H          1 MOL1         0.0987
      22    H15     19.134339   15.207987   22.759119 H          1 MOL1         0.0987
      23    H16     20.287715   16.520883   22.476969 H          1 MOL1         0.0987
@<TRIPOS>BOND
    1     1     2    1
    2     1     3    1
    3     1     4    1
    4     1     5    1
    5     5     6    1
    6     5     7    1
    7     5     8    1
    8     8     9    1
    9     8    10    1
   10     8    11    1
   11    11    12    1
   12    11    13    1
   13    11    14    1
   14    14    15    1
   15    14    16    1
   16    14    17    1
   17    17    18    1
   18    17    19    1
   19    17    20    1
   20    20    21    1
   21    20    22    1
   22    20    23    1
@<TRIPOS>SUBSTRUCTURE
       1 MOL1            1 RESIDUE      1      MOL     
@<SCITEGIC>MOL_PROPERTY
VConf Rank
SciTegic.value.IntegerValue
85

@<SCITEGIC>MOL_PROPERTY
Conf_Id
SciTegic.value.IntegerValue
3

@<SCITEGIC>MOL_PROPERTY
Delta U+W
SciTegic.value.DoubleValue
3.283

@<SCITEGIC>MOL_PROPERTY
U+W
SciTegic.value.DoubleValue
-5.099

@<SCITEGIC>MOL_PROPERTY
Grad RMS
SciTegic.value.DoubleValue
0.000000

@<SCITEGIC>MOL_PROPERTY
U
SciTegic.value.DoubleValue
50.701

@<SCITEGIC>MOL_PROPERTY
W
SciTegic.value.DoubleValue
-55.800

@<SCITEGIC>MOL_PROPERTY
W(PB)
SciTegic.value.DoubleValue
-57.867

@<SCITEGIC>MOL_PROPERTY
W(SA)
SciTegic.value.DoubleValue
2.067

@<SCITEGIC>MOL_PROPERTY
Valence
SciTegic.value.DoubleValue
4.880

@<SCITEGIC>MOL_PROPERTY
Coulomb
SciTegic.value.DoubleValue
45.095

@<SCITEGIC>MOL_PROPERTY
VdW
SciTegic.value.DoubleValue
0.726

@<SCITEGIC>MOL_PROPERTY
VdW6
SciTegic.value.DoubleValue
-6.620

@<SCITEGIC>MOL_PROPERTY
VdW12
SciTegic.value.DoubleValue
7.346

@<SCITEGIC>MOL_PROPERTY
Bond
SciTegic.value.DoubleValue
0.222

@<SCITEGIC>MOL_PROPERTY
Angle
SciTegic.value.DoubleValue
1.260

@<SCITEGIC>MOL_PROPERTY
Pdih
SciTegic.value.DoubleValue
3.398

@<SCITEGIC>MOL_PROPERTY
Idih
SciTegic.value.DoubleValue
0.000

@<SCITEGIC>MOL_PROPERTY
Tether
SciTegic.value.DoubleValue
0.000

@<TRIPOS>MOLECULE
guest-2_confgen4.mol2 : confsearch ligand conformer 86
          23          22           1
SMALL
USER_CHARGES
 
@<TRIPOS>ATOM
       1    N1      21.751675   18.745845   20.452580 N.4        1 MOL1        -0.5940
       2    H1      22.691761   18.516654   20.790609 H          1 MOL1         0.3649
       3    H2      21.794647   18.749287   19.427896 H          1 MOL1         0.3649
       4    H3      21.134867   17.974622   20.725276 H          1 MOL1         0.3649
       5    C1      21.264208   20.072637   21.000567 C.3        1 MOL1         0.0207
       6    H4      20.275297   20.270780   20.579516 H          1 MOL1         0.0950
       7    H5      21.945367   20.850126   20.644110 H          1 MOL1         0.0950
       8    C2      21.196088   20.120019   22.540824 C.3        1 MOL1        -0.1415
       9    H6      22.204829   19.970803   22.948228 H          1 MOL1         0.0976
      10    H7      20.888385   21.128091   22.848997 H          1 MOL1         0.0976
      11    C3      20.233378   19.079034   23.166272 C.3        1 MOL1        -0.1375
      12    H8      20.294241   19.173084   24.258209 H          1 MOL1         0.0976
      13    H9      20.574797   18.063045   22.927632 H          1 MOL1         0.0976
      14    C4      18.762336   19.258426   22.712090 C.3        1 MOL1        -0.1375
      15    H10     18.413519   20.266191   22.976483 H          1 MOL1         0.0976
      16    H11     18.703978   19.188661   21.617977 H          1 MOL1         0.0976
      17    C5      17.799523   18.205249   23.312302 C.3        1 MOL1        -0.1350
      18    H12     18.137449   17.195113   23.041826 H          1 MOL1         0.0976
      19    H13     16.809555   18.331085   22.851877 H          1 MOL1         0.0976
      20    C6      17.649569   18.310142   24.847182 C.3        1 MOL1        -0.2365
      21    H14     17.344358   19.321338   25.146075 H          1 MOL1         0.0987
      22    H15     18.586946   18.066917   25.362364 H          1 MOL1         0.0987
      23    H16     16.885190   17.609218   25.206854 H          1 MOL1         0.0987
@<TRIPOS>BOND
    1     1     2    1
    2     1     3    1
    3     1     4    1
    4     1     5    1
    5     5     6    1
    6     5     7    1
    7     5     8    1
    8     8     9    1
    9     8    10    1
   10     8    11    1
   11    11    12    1
   12    11    13    1
   13    11    14    1
   14    14    15    1
   15    14    16    1
   16    14    17    1
   17    17    18    1
   18    17    19    1
   19    17    20    1
   20    20    21    1
   21    20    22    1
   22    20    23    1
@<TRIPOS>SUBSTRUCTURE
       1 MOL1            1 RESIDUE      1      MOL     
@<SCITEGIC>MOL_PROPERTY
VConf Rank
SciTegic.value.IntegerValue
86

@<SCITEGIC>MOL_PROPERTY
Conf_Id
SciTegic.value.IntegerValue
83

@<SCITEGIC>MOL_PROPERTY
Delta U+W
SciTegic.value.DoubleValue
1.229

@<SCITEGIC>MOL_PROPERTY
U+W
SciTegic.value.DoubleValue
-7.154

@<SCITEGIC>MOL_PROPERTY
Grad RMS
SciTegic.value.DoubleValue
0.000000

@<SCITEGIC>MOL_PROPERTY
U
SciTegic.value.DoubleValue
48.727

@<SCITEGIC>MOL_PROPERTY
W
SciTegic.value.DoubleValue
-55.880

@<SCITEGIC>MOL_PROPERTY
W(PB)
SciTegic.value.DoubleValue
-57.960

@<SCITEGIC>MOL_PROPERTY
W(SA)
SciTegic.value.DoubleValue
2.080

@<SCITEGIC>MOL_PROPERTY
Valence
SciTegic.value.DoubleValue
2.671

@<SCITEGIC>MOL_PROPERTY
Coulomb
SciTegic.value.DoubleValue
45.371

@<SCITEGIC>MOL_PROPERTY
VdW
SciTegic.value.DoubleValue
0.684

@<SCITEGIC>MOL_PROPERTY
VdW6
SciTegic.value.DoubleValue
-6.511

@<SCITEGIC>MOL_PROPERTY
VdW12
SciTegic.value.DoubleValue
7.195

@<SCITEGIC>MOL_PROPERTY
Bond
SciTegic.value.DoubleValue
0.203

@<SCITEGIC>MOL_PROPERTY
Angle
SciTegic.value.DoubleValue
0.915

@<SCITEGIC>MOL_PROPERTY
Pdih
SciTegic.value.DoubleValue
1.554

@<SCITEGIC>MOL_PROPERTY
Idih
SciTegic.value.DoubleValue
0.000

@<SCITEGIC>MOL_PROPERTY
Tether
SciTegic.value.DoubleValue
0.000

@<TRIPOS>MOLECULE
guest-2_confgen4.mol2 : confsearch ligand conformer 87
          23          22           1
SMALL
USER_CHARGES
 
@<TRIPOS>ATOM
       1    N1      19.049495   19.240729   19.755860 N.4        1 MOL1        -0.5940
       2    H1      18.721593   20.172197   19.481269 H          1 MOL1         0.3649
       3    H2      18.376139   18.869481   20.432889 H          1 MOL1         0.3649
       4    H3      18.996364   18.646726   18.921491 H          1 MOL1         0.3649
       5    C1      20.452566   19.283863   20.328422 C.3        1 MOL1         0.0207
       6    H4      21.119899   19.654856   19.545762 H          1 MOL1         0.0950
       7    H5      20.751664   18.260942   20.570628 H          1 MOL1         0.0950
       8    C2      20.584960   20.177554   21.578648 C.3        1 MOL1        -0.1415
       9    H6      21.637713   20.193194   21.890617 H          1 MOL1         0.0976
      10    H7      20.331347   21.211106   21.307991 H          1 MOL1         0.0976
      11    C3      19.705032   19.731894   22.773956 C.3        1 MOL1        -0.1375
      12    H8      18.643690   19.784977   22.497398 H          1 MOL1         0.0976
      13    H9      19.845230   20.455469   23.587381 H          1 MOL1         0.0976
      14    C4      20.043884   18.307771   23.283351 C.3        1 MOL1        -0.1375
      15    H10     19.927398   17.586503   22.463865 H          1 MOL1         0.0976
      16    H11     21.099267   18.264100   23.585721 H          1 MOL1         0.0976
      17    C5      19.150520   17.845707   24.460144 C.3        1 MOL1        -0.1350
      18    H12     19.375780   16.792767   24.680229 H          1 MOL1         0.0976
      19    H13     18.093839   17.877041   24.159859 H          1 MOL1         0.0976
      20    C6      19.349973   18.675414   25.748999 C.3        1 MOL1        -0.2365
      21    H14     20.405019   18.687196   26.051896 H          1 MOL1         0.0987
      22    H15     18.768736   18.246297   26.575411 H          1 MOL1         0.0987
      23    H16     19.017831   19.712531   25.617418 H          1 MOL1         0.0987
@<TRIPOS>BOND
    1     1     2    1
    2     1     3    1
    3     1     4    1
    4     1     5    1
    5     5     6    1
    6     5     7    1
    7     5     8    1
    8     8     9    1
    9     8    10    1
   10     8    11    1
   11    11    12    1
   12    11    13    1
   13    11    14    1
   14    14    15    1
   15    14    16    1
   16    14    17    1
   17    17    18    1
   18    17    19    1
   19    17    20    1
   20    20    21    1
   21    20    22    1
   22    20    23    1
@<TRIPOS>SUBSTRUCTURE
       1 MOL1            1 RESIDUE      1      MOL     
@<SCITEGIC>MOL_PROPERTY
VConf Rank
SciTegic.value.IntegerValue
87

@<SCITEGIC>MOL_PROPERTY
Conf_Id
SciTegic.value.IntegerValue
50

@<SCITEGIC>MOL_PROPERTY
Delta U+W
SciTegic.value.DoubleValue
1.252

@<SCITEGIC>MOL_PROPERTY
U+W
SciTegic.value.DoubleValue
-7.130

@<SCITEGIC>MOL_PROPERTY
Grad RMS
SciTegic.value.DoubleValue
0.000000

@<SCITEGIC>MOL_PROPERTY
U
SciTegic.value.DoubleValue
48.727

@<SCITEGIC>MOL_PROPERTY
W
SciTegic.value.DoubleValue
-55.857

@<SCITEGIC>MOL_PROPERTY
W(PB)
SciTegic.value.DoubleValue
-57.937

@<SCITEGIC>MOL_PROPERTY
W(SA)
SciTegic.value.DoubleValue
2.080

@<SCITEGIC>MOL_PROPERTY
Valence
SciTegic.value.DoubleValue
2.671

@<SCITEGIC>MOL_PROPERTY
Coulomb
SciTegic.value.DoubleValue
45.371

@<SCITEGIC>MOL_PROPERTY
VdW
SciTegic.value.DoubleValue
0.684

@<SCITEGIC>MOL_PROPERTY
VdW6
SciTegic.value.DoubleValue
-6.511

@<SCITEGIC>MOL_PROPERTY
VdW12
SciTegic.value.DoubleValue
7.196

@<SCITEGIC>MOL_PROPERTY
Bond
SciTegic.value.DoubleValue
0.203

@<SCITEGIC>MOL_PROPERTY
Angle
SciTegic.value.DoubleValue
0.915

@<SCITEGIC>MOL_PROPERTY
Pdih
SciTegic.value.DoubleValue
1.554

@<SCITEGIC>MOL_PROPERTY
Idih
SciTegic.value.DoubleValue
0.000

@<SCITEGIC>MOL_PROPERTY
Tether
SciTegic.value.DoubleValue
0.000

@<TRIPOS>MOLECULE
guest-2_confgen4.mol2 : confsearch ligand conformer 88
          23          22           1
SMALL
USER_CHARGES
 
@<TRIPOS>ATOM
       1    N1      22.501872   18.395052   24.165018 N.4        1 MOL1        -0.5940
       2    H1      22.489888   19.419447   24.162711 H          1 MOL1         0.3649
       3    H2      23.483101   18.106811   24.087325 H          1 MOL1         0.3649
       4    H3      22.173031   18.090028   25.086674 H          1 MOL1         0.3649
       5    C1      21.656035   17.819734   23.045729 C.3        1 MOL1         0.0207
       6    H4      21.749791   16.731072   23.085708 H          1 MOL1         0.0950
       7    H5      22.072766   18.162574   22.094829 H          1 MOL1         0.0950
       8    C2      20.166831   18.207231   23.128653 C.3        1 MOL1        -0.1415
       9    H6      19.626203   17.658903   22.349089 H          1 MOL1         0.0976
      10    H7      19.754351   17.865464   24.087206 H          1 MOL1         0.0976
      11    C3      19.936813   19.731914   22.970195 C.3        1 MOL1        -0.1375
      12    H8      20.428825   20.100401   22.059428 H          1 MOL1         0.0976
      13    H9      20.423576   20.247033   23.809065 H          1 MOL1         0.0976
      14    C4      18.437738   20.130442   22.962671 C.3        1 MOL1        -0.1375
      15    H10     17.850462   19.418561   23.558931 H          1 MOL1         0.0976
      16    H11     18.338078   21.097518   23.474846 H          1 MOL1         0.0976
      17    C5      17.815204   20.284999   21.551370 C.3        1 MOL1        -0.1350
      18    H12     18.346595   21.072343   20.998662 H          1 MOL1         0.0976
      19    H13     16.780593   20.638251   21.663653 H          1 MOL1         0.0976
      20    C6      17.806843   18.987819   20.713346 C.3        1 MOL1        -0.2365
      21    H14     17.333454   18.163983   21.262922 H          1 MOL1         0.0987
      22    H15     18.824296   18.685441   20.436524 H          1 MOL1         0.0987
      23    H16     17.244891   19.136623   19.782242 H          1 MOL1         0.0987
@<TRIPOS>BOND
    1     1     2    1
    2     1     3    1
    3     1     4    1
    4     1     5    1
    5     5     6    1
    6     5     7    1
    7     5     8    1
    8     8     9    1
    9     8    10    1
   10     8    11    1
   11    11    12    1
   12    11    13    1
   13    11    14    1
   14    14    15    1
   15    14    16    1
   16    14    17    1
   17    17    18    1
   18    17    19    1
   19    17    20    1
   20    20    21    1
   21    20    22    1
   22    20    23    1
@<TRIPOS>SUBSTRUCTURE
       1 MOL1            1 RESIDUE      1      MOL     
@<SCITEGIC>MOL_PROPERTY
VConf Rank
SciTegic.value.IntegerValue
88

@<SCITEGIC>MOL_PROPERTY
Conf_Id
SciTegic.value.IntegerValue
55

@<SCITEGIC>MOL_PROPERTY
Delta U+W
SciTegic.value.DoubleValue
3.232

@<SCITEGIC>MOL_PROPERTY
U+W
SciTegic.value.DoubleValue
-5.150

@<SCITEGIC>MOL_PROPERTY
Grad RMS
SciTegic.value.DoubleValue
0.000000

@<SCITEGIC>MOL_PROPERTY
U
SciTegic.value.DoubleValue
50.625

@<SCITEGIC>MOL_PROPERTY
W
SciTegic.value.DoubleValue
-55.776

@<SCITEGIC>MOL_PROPERTY
W(PB)
SciTegic.value.DoubleValue
-57.839

@<SCITEGIC>MOL_PROPERTY
W(SA)
SciTegic.value.DoubleValue
2.064

@<SCITEGIC>MOL_PROPERTY
Valence
SciTegic.value.DoubleValue
4.837

@<SCITEGIC>MOL_PROPERTY
Coulomb
SciTegic.value.DoubleValue
45.097

@<SCITEGIC>MOL_PROPERTY
VdW
SciTegic.value.DoubleValue
0.692

@<SCITEGIC>MOL_PROPERTY
VdW6
SciTegic.value.DoubleValue
-6.655

@<SCITEGIC>MOL_PROPERTY
VdW12
SciTegic.value.DoubleValue
7.347

@<SCITEGIC>MOL_PROPERTY
Bond
SciTegic.value.DoubleValue
0.223

@<SCITEGIC>MOL_PROPERTY
Angle
SciTegic.value.DoubleValue
1.167

@<SCITEGIC>MOL_PROPERTY
Pdih
SciTegic.value.DoubleValue
3.447

@<SCITEGIC>MOL_PROPERTY
Idih
SciTegic.value.DoubleValue
0.000

@<SCITEGIC>MOL_PROPERTY
Tether
SciTegic.value.DoubleValue
0.000

@<TRIPOS>MOLECULE
guest-2_confgen4.mol2 : confsearch ligand conformer 89
          23          22           1
SMALL
USER_CHARGES
 
@<TRIPOS>ATOM
       1    N1      22.444771   18.747327   20.868315 N.4        1 MOL1        -0.5940
       2    H1      22.611610   19.326453   20.039095 H          1 MOL1         0.3649
       3    H2      22.848133   17.824741   20.673038 H          1 MOL1         0.3649
       4    H3      22.989736   19.154774   21.634969 H          1 MOL1         0.3649
       5    C1      20.970809   18.657319   21.207406 C.3        1 MOL1         0.0207
       6    H4      20.867356   17.999994   22.072601 H          1 MOL1         0.0950
       7    H5      20.459414   18.189993   20.361543 H          1 MOL1         0.0950
       8    C2      20.334848   20.030704   21.499212 C.3        1 MOL1        -0.1415
       9    H6      20.868280   20.532915   22.317196 H          1 MOL1         0.0976
      10    H7      20.465666   20.662048   20.610218 H          1 MOL1         0.0976
      11    C3      18.821994   19.943904   21.823561 C.3        1 MOL1        -0.1375
      12    H8      18.346517   19.175281   21.198467 H          1 MOL1         0.0976
      13    H9      18.355045   20.894708   21.531282 H          1 MOL1         0.0976
      14    C4      18.486098   19.698732   23.317729 C.3        1 MOL1        -0.1375
      15    H10     18.877363   20.528990   23.921779 H          1 MOL1         0.0976
      16    H11     17.393563   19.728442   23.431426 H          1 MOL1         0.0976
      17    C5      19.011935   18.359955   23.884891 C.3        1 MOL1        -0.1350
      18    H12     20.108797   18.375708   23.924390 H          1 MOL1         0.0976
      19    H13     18.720891   17.533007   23.222223 H          1 MOL1         0.0976
      20    C6      18.471094   18.092044   25.305594 C.3        1 MOL1        -0.2365
      21    H14     17.375082   18.029014   25.306194 H          1 MOL1         0.0987
      22    H15     18.768083   18.890656   25.997885 H          1 MOL1         0.0987
      23    H16     18.862551   17.144077   25.696937 H          1 MOL1         0.0987
@<TRIPOS>BOND
    1     1     2    1
    2     1     3    1
    3     1     4    1
    4     1     5    1
    5     5     6    1
    6     5     7    1
    7     5     8    1
    8     8     9    1
    9     8    10    1
   10     8    11    1
   11    11    12    1
   12    11    13    1
   13    11    14    1
   14    14    15    1
   15    14    16    1
   16    14    17    1
   17    17    18    1
   18    17    19    1
   19    17    20    1
   20    20    21    1
   21    20    22    1
   22    20    23    1
@<TRIPOS>SUBSTRUCTURE
       1 MOL1            1 RESIDUE      1      MOL     
@<SCITEGIC>MOL_PROPERTY
VConf Rank
SciTegic.value.IntegerValue
89

@<SCITEGIC>MOL_PROPERTY
Conf_Id
SciTegic.value.IntegerValue
93

@<SCITEGIC>MOL_PROPERTY
Delta U+W
SciTegic.value.DoubleValue
2.589

@<SCITEGIC>MOL_PROPERTY
U+W
SciTegic.value.DoubleValue
-5.793

@<SCITEGIC>MOL_PROPERTY
Grad RMS
SciTegic.value.DoubleValue
0.000000

@<SCITEGIC>MOL_PROPERTY
U
SciTegic.value.DoubleValue
50.122

@<SCITEGIC>MOL_PROPERTY
W
SciTegic.value.DoubleValue
-55.915

@<SCITEGIC>MOL_PROPERTY
W(PB)
SciTegic.value.DoubleValue
-58.031

@<SCITEGIC>MOL_PROPERTY
W(SA)
SciTegic.value.DoubleValue
2.115

@<SCITEGIC>MOL_PROPERTY
Valence
SciTegic.value.DoubleValue
4.132

@<SCITEGIC>MOL_PROPERTY
Coulomb
SciTegic.value.DoubleValue
45.536

@<SCITEGIC>MOL_PROPERTY
VdW
SciTegic.value.DoubleValue
0.454

@<SCITEGIC>MOL_PROPERTY
VdW6
SciTegic.value.DoubleValue
-6.262

@<SCITEGIC>MOL_PROPERTY
VdW12
SciTegic.value.DoubleValue
6.715

@<SCITEGIC>MOL_PROPERTY
Bond
SciTegic.value.DoubleValue
0.182

@<SCITEGIC>MOL_PROPERTY
Angle
SciTegic.value.DoubleValue
1.157

@<SCITEGIC>MOL_PROPERTY
Pdih
SciTegic.value.DoubleValue
2.794

@<SCITEGIC>MOL_PROPERTY
Idih
SciTegic.value.DoubleValue
0.000

@<SCITEGIC>MOL_PROPERTY
Tether
SciTegic.value.DoubleValue
0.000

@<TRIPOS>MOLECULE
guest-2_confgen4.mol2 : confsearch ligand conformer 90
          23          22           1
SMALL
USER_CHARGES
 
@<TRIPOS>ATOM
       1    N1      22.552504   20.109778   23.256911 N.4        1 MOL1        -0.5940
       2    H1      22.916161   19.152905   23.310795 H          1 MOL1         0.3649
       3    H2      22.740908   20.551981   24.162980 H          1 MOL1         0.3649
       4    H3      23.116069   20.607481   22.560122 H          1 MOL1         0.3649
       5    C1      21.077048   20.135800   22.913403 C.3        1 MOL1         0.0207
       6    H4      20.753200   21.180014   22.901720 H          1 MOL1         0.0950
       7    H5      20.539647   19.622069   23.712540 H          1 MOL1         0.0950
       8    C2      20.763843   19.483878   21.552268 C.3        1 MOL1        -0.1415
       9    H6      21.326896   20.023366   20.779000 H          1 MOL1         0.0976
      10    H7      21.125667   18.447267   21.532641 H          1 MOL1         0.0976
      11    C3      19.258340   19.529901   21.187845 C.3        1 MOL1        -0.1375
      12    H8      19.172097   19.530834   20.092373 H          1 MOL1         0.0976
      13    H9      18.819351   20.480680   21.520881 H          1 MOL1         0.0976
      14    C4      18.419272   18.339517   21.721160 C.3        1 MOL1        -0.1375
      15    H10     17.393956   18.446973   21.340869 H          1 MOL1         0.0976
      16    H11     18.804044   17.401632   21.297351 H          1 MOL1         0.0976
      17    C5      18.371801   18.224151   23.262244 C.3        1 MOL1        -0.1350
      18    H12     18.097812   19.193480   23.701571 H          1 MOL1         0.0976
      19    H13     19.364916   17.960168   23.648186 H          1 MOL1         0.0976
      20    C6      17.362662   17.150326   23.721829 C.3        1 MOL1        -0.2365
      21    H14     17.349734   17.074015   24.816836 H          1 MOL1         0.0987
      22    H15     17.625367   16.163679   23.318388 H          1 MOL1         0.0987
      23    H16     16.345402   17.395707   23.389888 H          1 MOL1         0.0987
@<TRIPOS>BOND
    1     1     2    1
    2     1     3    1
    3     1     4    1
    4     1     5    1
    5     5     6    1
    6     5     7    1
    7     5     8    1
    8     8     9    1
    9     8    10    1
   10     8    11    1
   11    11    12    1
   12    11    13    1
   13    11    14    1
   14    14    15    1
   15    14    16    1
   16    14    17    1
   17    17    18    1
   18    17    19    1
   19    17    20    1
   20    20    21    1
   21    20    22    1
   22    20    23    1
@<TRIPOS>SUBSTRUCTURE
       1 MOL1            1 RESIDUE      1      MOL     
@<SCITEGIC>MOL_PROPERTY
VConf Rank
SciTegic.value.IntegerValue
90

@<SCITEGIC>MOL_PROPERTY
Conf_Id
SciTegic.value.IntegerValue
70

@<SCITEGIC>MOL_PROPERTY
Delta U+W
SciTegic.value.DoubleValue
2.599

@<SCITEGIC>MOL_PROPERTY
U+W
SciTegic.value.DoubleValue
-5.783

@<SCITEGIC>MOL_PROPERTY
Grad RMS
SciTegic.value.DoubleValue
0.000000

@<SCITEGIC>MOL_PROPERTY
U
SciTegic.value.DoubleValue
50.122

@<SCITEGIC>MOL_PROPERTY
W
SciTegic.value.DoubleValue
-55.906

@<SCITEGIC>MOL_PROPERTY
W(PB)
SciTegic.value.DoubleValue
-58.010

@<SCITEGIC>MOL_PROPERTY
W(SA)
SciTegic.value.DoubleValue
2.105

@<SCITEGIC>MOL_PROPERTY
Valence
SciTegic.value.DoubleValue
4.132

@<SCITEGIC>MOL_PROPERTY
Coulomb
SciTegic.value.DoubleValue
45.536

@<SCITEGIC>MOL_PROPERTY
VdW
SciTegic.value.DoubleValue
0.454

@<SCITEGIC>MOL_PROPERTY
VdW6
SciTegic.value.DoubleValue
-6.262

@<SCITEGIC>MOL_PROPERTY
VdW12
SciTegic.value.DoubleValue
6.715

@<SCITEGIC>MOL_PROPERTY
Bond
SciTegic.value.DoubleValue
0.182

@<SCITEGIC>MOL_PROPERTY
Angle
SciTegic.value.DoubleValue
1.157

@<SCITEGIC>MOL_PROPERTY
Pdih
SciTegic.value.DoubleValue
2.794

@<SCITEGIC>MOL_PROPERTY
Idih
SciTegic.value.DoubleValue
0.000

@<SCITEGIC>MOL_PROPERTY
Tether
SciTegic.value.DoubleValue
0.000

@<TRIPOS>MOLECULE
guest-2_confgen4.mol2 : confsearch ligand conformer 91
          23          22           1
SMALL
USER_CHARGES
 
@<TRIPOS>ATOM
       1    N1      21.242472   17.778086   24.726872 N.4        1 MOL1        -0.5940
       2    H1      21.298080   18.159181   25.676704 H          1 MOL1         0.3649
       3    H2      21.944740   17.033566   24.661512 H          1 MOL1         0.3649
       4    H3      20.323740   17.334994   24.631649 H          1 MOL1         0.3649
       5    C1      21.457955   18.850177   23.676908 C.3        1 MOL1         0.0207
       6    H4      21.420126   18.374812   22.693271 H          1 MOL1         0.0950
       7    H5      22.462486   19.258030   23.818574 H          1 MOL1         0.0950
       8    C2      20.426497   19.994595   23.741598 C.3        1 MOL1        -0.1415
       9    H6      20.497310   20.486693   24.720649 H          1 MOL1         0.0976
      10    H7      20.698839   20.759054   23.002783 H          1 MOL1         0.0976
      11    C3      18.962702   19.537957   23.505398 C.3        1 MOL1        -0.1375
      12    H8      18.308467   20.420340   23.529484 H          1 MOL1         0.0976
      13    H9      18.640361   18.907192   24.344722 H          1 MOL1         0.0976
      14    C4      18.724580   18.767881   22.180603 C.3        1 MOL1        -0.1375
      15    H10     19.300162   17.832683   22.179416 H          1 MOL1         0.0976
      16    H11     17.667228   18.472107   22.137442 H          1 MOL1         0.0976
      17    C5      19.067204   19.591594   20.916879 C.3        1 MOL1        -0.1350
      18    H12     20.137246   19.838128   20.903927 H          1 MOL1         0.0976
      19    H13     18.520563   20.544765   20.935857 H          1 MOL1         0.0976
      20    C6      18.714467   18.824716   19.624649 C.3        1 MOL1        -0.2365
      21    H14     18.966096   19.421885   18.738598 H          1 MOL1         0.0987
      22    H15     17.641875   18.594686   19.581911 H          1 MOL1         0.0987
      23    H16     19.269618   17.879633   19.562760 H          1 MOL1         0.0987
@<TRIPOS>BOND
    1     1     2    1
    2     1     3    1
    3     1     4    1
    4     1     5    1
    5     5     6    1
    6     5     7    1
    7     5     8    1
    8     8     9    1
    9     8    10    1
   10     8    11    1
   11    11    12    1
   12    11    13    1
   13    11    14    1
   14    14    15    1
   15    14    16    1
   16    14    17    1
   17    17    18    1
   18    17    19    1
   19    17    20    1
   20    20    21    1
   21    20    22    1
   22    20    23    1
@<TRIPOS>SUBSTRUCTURE
       1 MOL1            1 RESIDUE      1      MOL     
@<SCITEGIC>MOL_PROPERTY
VConf Rank
SciTegic.value.IntegerValue
91

@<SCITEGIC>MOL_PROPERTY
Conf_Id
SciTegic.value.IntegerValue
72

@<SCITEGIC>MOL_PROPERTY
Delta U+W
SciTegic.value.DoubleValue
1.051

@<SCITEGIC>MOL_PROPERTY
U+W
SciTegic.value.DoubleValue
-7.331

@<SCITEGIC>MOL_PROPERTY
Grad RMS
SciTegic.value.DoubleValue
0.000000

@<SCITEGIC>MOL_PROPERTY
U
SciTegic.value.DoubleValue
48.590

@<SCITEGIC>MOL_PROPERTY
W
SciTegic.value.DoubleValue
-55.922

@<SCITEGIC>MOL_PROPERTY
W(PB)
SciTegic.value.DoubleValue
-58.012

@<SCITEGIC>MOL_PROPERTY
W(SA)
SciTegic.value.DoubleValue
2.090

@<SCITEGIC>MOL_PROPERTY
Valence
SciTegic.value.DoubleValue
2.601

@<SCITEGIC>MOL_PROPERTY
Coulomb
SciTegic.value.DoubleValue
45.520

@<SCITEGIC>MOL_PROPERTY
VdW
SciTegic.value.DoubleValue
0.469

@<SCITEGIC>MOL_PROPERTY
VdW6
SciTegic.value.DoubleValue
-6.867

@<SCITEGIC>MOL_PROPERTY
VdW12
SciTegic.value.DoubleValue
7.336

@<SCITEGIC>MOL_PROPERTY
Bond
SciTegic.value.DoubleValue
0.205

@<SCITEGIC>MOL_PROPERTY
Angle
SciTegic.value.DoubleValue
0.962

@<SCITEGIC>MOL_PROPERTY
Pdih
SciTegic.value.DoubleValue
1.434

@<SCITEGIC>MOL_PROPERTY
Idih
SciTegic.value.DoubleValue
0.000

@<SCITEGIC>MOL_PROPERTY
Tether
SciTegic.value.DoubleValue
0.000

@<TRIPOS>MOLECULE
guest-2_confgen4.mol2 : confsearch ligand conformer 92
          23          22           1
SMALL
USER_CHARGES
 
@<TRIPOS>ATOM
       1    N1      19.471601   15.951582   21.801462 N.4        1 MOL1        -0.5940
       2    H1      20.108893   15.164110   21.961787 H          1 MOL1         0.3649
       3    H2      19.014310   15.785375   20.899218 H          1 MOL1         0.3649
       4    H3      18.744798   15.898460   22.522293 H          1 MOL1         0.3649
       5    C1      20.200068   17.279813   21.829348 C.3        1 MOL1         0.0207
       6    H4      20.975352   17.256420   21.058805 H          1 MOL1         0.0950
       7    H5      20.685996   17.376058   22.803794 H          1 MOL1         0.0950
       8    C2      19.269925   18.484050   21.591724 C.3        1 MOL1        -0.1415
       9    H6      18.759058   18.358707   20.627860 H          1 MOL1         0.0976
      10    H7      18.483548   18.501136   22.357068 H          1 MOL1         0.0976
      11    C3      20.029924   19.833637   21.582873 C.3        1 MOL1        -0.1375
      12    H8      19.317095   20.645798   21.387382 H          1 MOL1         0.0976
      13    H9      20.727798   19.842091   20.734220 H          1 MOL1         0.0976
      14    C4      20.825022   20.142153   22.880331 C.3        1 MOL1        -0.1375
      15    H10     21.646000   19.420191   22.985540 H          1 MOL1         0.0976
      16    H11     21.307623   21.123093   22.770687 H          1 MOL1         0.0976
      17    C5      19.986313   20.140909   24.183706 C.3        1 MOL1        -0.1350
      18    H12     20.653648   20.357114   25.029643 H          1 MOL1         0.0976
      19    H13     19.578039   19.138877   24.371756 H          1 MOL1         0.0976
      20    C6      18.840753   21.178287   24.176355 C.3        1 MOL1        -0.2365
      21    H14     19.223949   22.187500   23.977381 H          1 MOL1         0.0987
      22    H15     18.333012   21.197581   25.149324 H          1 MOL1         0.0987
      23    H16     18.087439   20.940402   23.415114 H          1 MOL1         0.0987
@<TRIPOS>BOND
    1     1     2    1
    2     1     3    1
    3     1     4    1
    4     1     5    1
    5     5     6    1
    6     5     7    1
    7     5     8    1
    8     8     9    1
    9     8    10    1
   10     8    11    1
   11    11    12    1
   12    11    13    1
   13    11    14    1
   14    14    15    1
   15    14    16    1
   16    14    17    1
   17    17    18    1
   18    17    19    1
   19    17    20    1
   20    20    21    1
   21    20    22    1
   22    20    23    1
@<TRIPOS>SUBSTRUCTURE
       1 MOL1            1 RESIDUE      1      MOL     
@<SCITEGIC>MOL_PROPERTY
VConf Rank
SciTegic.value.IntegerValue
92

@<SCITEGIC>MOL_PROPERTY
Conf_Id
SciTegic.value.IntegerValue
26

@<SCITEGIC>MOL_PROPERTY
Delta U+W
SciTegic.value.DoubleValue
1.076

@<SCITEGIC>MOL_PROPERTY
U+W
SciTegic.value.DoubleValue
-7.306

@<SCITEGIC>MOL_PROPERTY
Grad RMS
SciTegic.value.DoubleValue
0.000000

@<SCITEGIC>MOL_PROPERTY
U
SciTegic.value.DoubleValue
48.641

@<SCITEGIC>MOL_PROPERTY
W
SciTegic.value.DoubleValue
-55.947

@<SCITEGIC>MOL_PROPERTY
W(PB)
SciTegic.value.DoubleValue
-58.031

@<SCITEGIC>MOL_PROPERTY
W(SA)
SciTegic.value.DoubleValue
2.084

@<SCITEGIC>MOL_PROPERTY
Valence
SciTegic.value.DoubleValue
2.922

@<SCITEGIC>MOL_PROPERTY
Coulomb
SciTegic.value.DoubleValue
45.269

@<SCITEGIC>MOL_PROPERTY
VdW
SciTegic.value.DoubleValue
0.449

@<SCITEGIC>MOL_PROPERTY
VdW6
SciTegic.value.DoubleValue
-7.045

@<SCITEGIC>MOL_PROPERTY
VdW12
SciTegic.value.DoubleValue
7.494

@<SCITEGIC>MOL_PROPERTY
Bond
SciTegic.value.DoubleValue
0.220

@<SCITEGIC>MOL_PROPERTY
Angle
SciTegic.value.DoubleValue
1.205

@<SCITEGIC>MOL_PROPERTY
Pdih
SciTegic.value.DoubleValue
1.497

@<SCITEGIC>MOL_PROPERTY
Idih
SciTegic.value.DoubleValue
0.000

@<SCITEGIC>MOL_PROPERTY
Tether
SciTegic.value.DoubleValue
0.000

@<TRIPOS>MOLECULE
guest-2_confgen4.mol2 : confsearch ligand conformer 93
          23          22           1
SMALL
USER_CHARGES
 
@<TRIPOS>ATOM
       1    N1      17.496703   19.645767   20.611696 N.4        1 MOL1        -0.5940
       2    H1      17.168466   18.851318   20.053221 H          1 MOL1         0.3649
       3    H2      17.323563   20.491156   20.057351 H          1 MOL1         0.3649
       4    H3      16.893691   19.702784   21.438610 H          1 MOL1         0.3649
       5    C1      18.958406   19.507680   20.985850 C.3        1 MOL1         0.0207
       6    H4      19.246243   20.398371   21.550432 H          1 MOL1         0.0950
       7    H5      19.542810   19.481741   20.062190 H          1 MOL1         0.0950
       8    C2      19.251965   18.246788   21.819992 C.3        1 MOL1        -0.1415
       9    H6      18.656035   18.265407   22.741379 H          1 MOL1         0.0976
      10    H7      18.924960   17.361023   21.259443 H          1 MOL1         0.0976
      11    C3      20.754459   18.094148   22.163906 C.3        1 MOL1        -0.1375
      12    H8      21.319373   17.955693   21.231697 H          1 MOL1         0.0976
      13    H9      20.899291   17.168904   22.737403 H          1 MOL1         0.0976
      14    C4      21.369294   19.288706   22.942216 C.3        1 MOL1        -0.1375
      15    H10     22.426194   19.067767   23.145480 H          1 MOL1         0.0976
      16    H11     21.372957   20.179592   22.299867 H          1 MOL1         0.0976
      17    C5      20.665778   19.637179   24.278575 C.3        1 MOL1        -0.1350
      18    H12     19.634282   19.964137   24.090871 H          1 MOL1         0.0976
      19    H13     21.177077   20.499407   24.728938 H          1 MOL1         0.0976
      20    C6      20.667359   18.472120   25.294032 C.3        1 MOL1        -0.2365
      21    H14     20.073364   17.623229   24.933320 H          1 MOL1         0.0987
      22    H15     20.236088   18.794839   26.250431 H          1 MOL1         0.0987
      23    H16     21.688619   18.119512   25.488035 H          1 MOL1         0.0987
@<TRIPOS>BOND
    1     1     2    1
    2     1     3    1
    3     1     4    1
    4     1     5    1
    5     5     6    1
    6     5     7    1
    7     5     8    1
    8     8     9    1
    9     8    10    1
   10     8    11    1
   11    11    12    1
   12    11    13    1
   13    11    14    1
   14    14    15    1
   15    14    16    1
   16    14    17    1
   17    17    18    1
   18    17    19    1
   19    17    20    1
   20    20    21    1
   21    20    22    1
   22    20    23    1
@<TRIPOS>SUBSTRUCTURE
       1 MOL1            1 RESIDUE      1      MOL     
@<SCITEGIC>MOL_PROPERTY
VConf Rank
SciTegic.value.IntegerValue
93

@<SCITEGIC>MOL_PROPERTY
Conf_Id
SciTegic.value.IntegerValue
90

@<SCITEGIC>MOL_PROPERTY
Delta U+W
SciTegic.value.DoubleValue
1.131

@<SCITEGIC>MOL_PROPERTY
U+W
SciTegic.value.DoubleValue
-7.251

@<SCITEGIC>MOL_PROPERTY
Grad RMS
SciTegic.value.DoubleValue
0.000000

@<SCITEGIC>MOL_PROPERTY
U
SciTegic.value.DoubleValue
48.641

@<SCITEGIC>MOL_PROPERTY
W
SciTegic.value.DoubleValue
-55.892

@<SCITEGIC>MOL_PROPERTY
W(PB)
SciTegic.value.DoubleValue
-57.962

@<SCITEGIC>MOL_PROPERTY
W(SA)
SciTegic.value.DoubleValue
2.070

@<SCITEGIC>MOL_PROPERTY
Valence
SciTegic.value.DoubleValue
2.922

@<SCITEGIC>MOL_PROPERTY
Coulomb
SciTegic.value.DoubleValue
45.269

@<SCITEGIC>MOL_PROPERTY
VdW
SciTegic.value.DoubleValue
0.450

@<SCITEGIC>MOL_PROPERTY
VdW6
SciTegic.value.DoubleValue
-7.045

@<SCITEGIC>MOL_PROPERTY
VdW12
SciTegic.value.DoubleValue
7.495

@<SCITEGIC>MOL_PROPERTY
Bond
SciTegic.value.DoubleValue
0.220

@<SCITEGIC>MOL_PROPERTY
Angle
SciTegic.value.DoubleValue
1.205

@<SCITEGIC>MOL_PROPERTY
Pdih
SciTegic.value.DoubleValue
1.497

@<SCITEGIC>MOL_PROPERTY
Idih
SciTegic.value.DoubleValue
0.000

@<SCITEGIC>MOL_PROPERTY
Tether
SciTegic.value.DoubleValue
0.000

@<TRIPOS>MOLECULE
guest-2_confgen4.mol2 : confsearch ligand conformer 94
          23          22           1
SMALL
USER_CHARGES
 
@<TRIPOS>ATOM
       1    N1      21.213174   18.106484   20.510118 N.4        1 MOL1        -0.5940
       2    H1      21.081187   18.056941   19.494255 H          1 MOL1         0.3649
       3    H2      20.416485   17.627827   20.941160 H          1 MOL1         0.3649
       4    H3      22.051523   17.559256   20.729858 H          1 MOL1         0.3649
       5    C1      21.333031   19.538421   20.993424 C.3        1 MOL1         0.0207
       6    H4      20.424670   20.071756   20.701618 H          1 MOL1         0.0950
       7    H5      22.177429   19.996540   20.471277 H          1 MOL1         0.0950
       8    C2      21.544519   19.662896   22.516142 C.3        1 MOL1        -0.1415
       9    H6      22.483573   19.164377   22.790817 H          1 MOL1         0.0976
      10    H7      21.676667   20.723612   22.767658 H          1 MOL1         0.0976
      11    C3      20.386551   19.077269   23.362743 C.3        1 MOL1        -0.1375
      12    H8      20.634609   19.198305   24.426194 H          1 MOL1         0.0976
      13    H9      20.314589   17.996578   23.186581 H          1 MOL1         0.0976
      14    C4      19.023251   19.757099   23.078633 C.3        1 MOL1        -0.1375
      15    H10     19.138127   20.845358   23.177437 H          1 MOL1         0.0976
      16    H11     18.715930   19.571227   22.040877 H          1 MOL1         0.0976
      17    C5      17.895864   19.293240   24.032166 C.3        1 MOL1        -0.1350
      18    H12     16.997858   19.895702   23.836056 H          1 MOL1         0.0976
      19    H13     18.181453   19.497878   25.073484 H          1 MOL1         0.0976
      20    C6      17.536587   17.798070   23.875570 C.3        1 MOL1        -0.2365
      21    H14     17.272616   17.561864   22.836598 H          1 MOL1         0.0987
      22    H15     16.675624   17.542119   24.506574 H          1 MOL1         0.0987
      23    H16     18.368929   17.149583   24.175707 H          1 MOL1         0.0987
@<TRIPOS>BOND
    1     1     2    1
    2     1     3    1
    3     1     4    1
    4     1     5    1
    5     5     6    1
    6     5     7    1
    7     5     8    1
    8     8     9    1
    9     8    10    1
   10     8    11    1
   11    11    12    1
   12    11    13    1
   13    11    14    1
   14    14    15    1
   15    14    16    1
   16    14    17    1
   17    17    18    1
   18    17    19    1
   19    17    20    1
   20    20    21    1
   21    20    22    1
   22    20    23    1
@<TRIPOS>SUBSTRUCTURE
       1 MOL1            1 RESIDUE      1      MOL     
@<SCITEGIC>MOL_PROPERTY
VConf Rank
SciTegic.value.IntegerValue
94

@<SCITEGIC>MOL_PROPERTY
Conf_Id
SciTegic.value.IntegerValue
85

@<SCITEGIC>MOL_PROPERTY
Delta U+W
SciTegic.value.DoubleValue
1.193

@<SCITEGIC>MOL_PROPERTY
U+W
SciTegic.value.DoubleValue
-7.189

@<SCITEGIC>MOL_PROPERTY
Grad RMS
SciTegic.value.DoubleValue
0.000000

@<SCITEGIC>MOL_PROPERTY
U
SciTegic.value.DoubleValue
48.775

@<SCITEGIC>MOL_PROPERTY
W
SciTegic.value.DoubleValue
-55.965

@<SCITEGIC>MOL_PROPERTY
W(PB)
SciTegic.value.DoubleValue
-58.038

@<SCITEGIC>MOL_PROPERTY
W(SA)
SciTegic.value.DoubleValue
2.073

@<SCITEGIC>MOL_PROPERTY
Valence
SciTegic.value.DoubleValue
2.602

@<SCITEGIC>MOL_PROPERTY
Coulomb
SciTegic.value.DoubleValue
45.581

@<SCITEGIC>MOL_PROPERTY
VdW
SciTegic.value.DoubleValue
0.592

@<SCITEGIC>MOL_PROPERTY
VdW6
SciTegic.value.DoubleValue
-6.616

@<SCITEGIC>MOL_PROPERTY
VdW12
SciTegic.value.DoubleValue
7.208

@<SCITEGIC>MOL_PROPERTY
Bond
SciTegic.value.DoubleValue
0.196

@<SCITEGIC>MOL_PROPERTY
Angle
SciTegic.value.DoubleValue
0.832

@<SCITEGIC>MOL_PROPERTY
Pdih
SciTegic.value.DoubleValue
1.574

@<SCITEGIC>MOL_PROPERTY
Idih
SciTegic.value.DoubleValue
0.000

@<SCITEGIC>MOL_PROPERTY
Tether
SciTegic.value.DoubleValue
0.000

@<TRIPOS>MOLECULE
guest-2_confgen4.mol2 : confsearch ligand conformer 95
          23          22           1
SMALL
USER_CHARGES
 
@<TRIPOS>ATOM
       1    N1      20.322016   17.575604   24.003069 N.4        1 MOL1        -0.5940
       2    H1      19.773578   18.441457   23.989438 H          1 MOL1         0.3649
       3    H2      20.986572   17.644771   24.781455 H          1 MOL1         0.3649
       4    H3      19.678721   16.809379   24.226863 H          1 MOL1         0.3649
       5    C1      21.026720   17.347810   22.679753 C.3        1 MOL1         0.0207
       6    H4      21.584672   16.412033   22.772073 H          1 MOL1         0.0950
       7    H5      21.744944   18.156662   22.521509 H          1 MOL1         0.0950
       8    C2      20.074194   17.248666   21.470794 C.3        1 MOL1        -0.1415
       9    H6      20.600810   16.705688   20.674748 H          1 MOL1         0.0976
      10    H7      19.206722   16.627986   21.731795 H          1 MOL1         0.0976
      11    C3      19.602879   18.607219   20.885725 C.3        1 MOL1        -0.1375
      12    H8      18.982751   18.388111   20.005419 H          1 MOL1         0.0976
      13    H9      20.465572   19.170585   20.503822 H          1 MOL1         0.0976
      14    C4      18.771680   19.491904   21.849934 C.3        1 MOL1        -0.1375
      15    H10     17.998837   20.012275   21.267124 H          1 MOL1         0.0976
      16    H11     18.227303   18.863317   22.567051 H          1 MOL1         0.0976
      17    C5      19.619687   20.563539   22.577658 C.3        1 MOL1        -0.1350
      18    H12     20.013654   21.276194   21.839385 H          1 MOL1         0.0976
      19    H13     20.495616   20.113954   23.060255 H          1 MOL1         0.0976
      20    C6      18.790258   21.330113   23.629437 C.3        1 MOL1        -0.2365
      21    H14     17.934268   21.835666   23.163532 H          1 MOL1         0.0987
      22    H15     19.403262   22.094872   24.123957 H          1 MOL1         0.0987
      23    H16     18.406090   20.654034   24.404097 H          1 MOL1         0.0987
@<TRIPOS>BOND
    1     1     2    1
    2     1     3    1
    3     1     4    1
    4     1     5    1
    5     5     6    1
    6     5     7    1
    7     5     8    1
    8     8     9    1
    9     8    10    1
   10     8    11    1
   11    11    12    1
   12    11    13    1
   13    11    14    1
   14    14    15    1
   15    14    16    1
   16    14    17    1
   17    17    18    1
   18    17    19    1
   19    17    20    1
   20    20    21    1
   21    20    22    1
   22    20    23    1
@<TRIPOS>SUBSTRUCTURE
       1 MOL1            1 RESIDUE      1      MOL     
@<SCITEGIC>MOL_PROPERTY
VConf Rank
SciTegic.value.IntegerValue
95

@<SCITEGIC>MOL_PROPERTY
Conf_Id
SciTegic.value.IntegerValue
82

@<SCITEGIC>MOL_PROPERTY
Delta U+W
SciTegic.value.DoubleValue
5.994

@<SCITEGIC>MOL_PROPERTY
U+W
SciTegic.value.DoubleValue
-2.388

@<SCITEGIC>MOL_PROPERTY
Grad RMS
SciTegic.value.DoubleValue
0.000000

@<SCITEGIC>MOL_PROPERTY
U
SciTegic.value.DoubleValue
52.836

@<SCITEGIC>MOL_PROPERTY
W
SciTegic.value.DoubleValue
-55.224

@<SCITEGIC>MOL_PROPERTY
W(PB)
SciTegic.value.DoubleValue
-57.261

@<SCITEGIC>MOL_PROPERTY
W(SA)
SciTegic.value.DoubleValue
2.037

@<SCITEGIC>MOL_PROPERTY
Valence
SciTegic.value.DoubleValue
5.785

@<SCITEGIC>MOL_PROPERTY
Coulomb
SciTegic.value.DoubleValue
46.744

@<SCITEGIC>MOL_PROPERTY
VdW
SciTegic.value.DoubleValue
0.307

@<SCITEGIC>MOL_PROPERTY
VdW6
SciTegic.value.DoubleValue
-7.672

@<SCITEGIC>MOL_PROPERTY
VdW12
SciTegic.value.DoubleValue
7.979

@<SCITEGIC>MOL_PROPERTY
Bond
SciTegic.value.DoubleValue
0.217

@<SCITEGIC>MOL_PROPERTY
Angle
SciTegic.value.DoubleValue
1.470

@<SCITEGIC>MOL_PROPERTY
Pdih
SciTegic.value.DoubleValue
4.098

@<SCITEGIC>MOL_PROPERTY
Idih
SciTegic.value.DoubleValue
0.000

@<SCITEGIC>MOL_PROPERTY
Tether
SciTegic.value.DoubleValue
0.000

@<TRIPOS>MOLECULE
guest-2_confgen4.mol2 : confsearch ligand conformer 96
          23          22           1
SMALL
USER_CHARGES
 
@<TRIPOS>ATOM
       1    N1      19.992111   18.081965   20.701044 N.4        1 MOL1        -0.5940
       2    H1      19.646291   18.610461   19.893508 H          1 MOL1         0.3649
       3    H2      20.597237   17.338937   20.334937 H          1 MOL1         0.3649
       4    H3      20.581362   18.714895   21.251370 H          1 MOL1         0.3649
       5    C1      18.854960   17.522693   21.533966 C.3        1 MOL1         0.0207
       6    H4      19.276437   16.916739   22.340381 H          1 MOL1         0.0950
       7    H5      18.275585   16.863589   20.881727 H          1 MOL1         0.0950
       8    C2      17.919299   18.598999   22.121181 C.3        1 MOL1        -0.1415
       9    H6      17.703799   19.359339   21.358741 H          1 MOL1         0.0976
      10    H7      16.957130   18.119042   22.344142 H          1 MOL1         0.0976
      11    C3      18.423957   19.276155   23.423830 C.3        1 MOL1        -0.1375
      12    H8      18.511936   18.529215   24.224961 H          1 MOL1         0.0976
      13    H9      17.641355   19.972140   23.756464 H          1 MOL1         0.0976
      14    C4      19.747430   20.071879   23.287798 C.3        1 MOL1        -0.1375
      15    H10     19.854814   20.457202   22.265194 H          1 MOL1         0.0976
      16    H11     19.688769   20.959421   23.933217 H          1 MOL1         0.0976
      17    C5      20.994331   19.257938   23.711874 C.3        1 MOL1        -0.1350
      18    H12     21.025810   18.288038   23.201398 H          1 MOL1         0.0976
      19    H13     20.931477   19.032544   24.785830 H          1 MOL1         0.0976
      20    C6      22.301536   20.028962   23.431582 C.3        1 MOL1        -0.2365
      21    H14     22.415809   20.243971   22.361311 H          1 MOL1         0.0987
      22    H15     23.173055   19.443438   23.752199 H          1 MOL1         0.0987
      23    H16     22.319952   20.983025   23.974530 H          1 MOL1         0.0987
@<TRIPOS>BOND
    1     1     2    1
    2     1     3    1
    3     1     4    1
    4     1     5    1
    5     5     6    1
    6     5     7    1
    7     5     8    1
    8     8     9    1
    9     8    10    1
   10     8    11    1
   11    11    12    1
   12    11    13    1
   13    11    14    1
   14    14    15    1
   15    14    16    1
   16    14    17    1
   17    17    18    1
   18    17    19    1
   19    17    20    1
   20    20    21    1
   21    20    22    1
   22    20    23    1
@<TRIPOS>SUBSTRUCTURE
       1 MOL1            1 RESIDUE      1      MOL     
@<SCITEGIC>MOL_PROPERTY
VConf Rank
SciTegic.value.IntegerValue
96

@<SCITEGIC>MOL_PROPERTY
Conf_Id
SciTegic.value.IntegerValue
5

@<SCITEGIC>MOL_PROPERTY
Delta U+W
SciTegic.value.DoubleValue
6.087

@<SCITEGIC>MOL_PROPERTY
U+W
SciTegic.value.DoubleValue
-2.295

@<SCITEGIC>MOL_PROPERTY
Grad RMS
SciTegic.value.DoubleValue
0.000000

@<SCITEGIC>MOL_PROPERTY
U
SciTegic.value.DoubleValue
52.836

@<SCITEGIC>MOL_PROPERTY
W
SciTegic.value.DoubleValue
-55.131

@<SCITEGIC>MOL_PROPERTY
W(PB)
SciTegic.value.DoubleValue
-57.202

@<SCITEGIC>MOL_PROPERTY
W(SA)
SciTegic.value.DoubleValue
2.071

@<SCITEGIC>MOL_PROPERTY
Valence
SciTegic.value.DoubleValue
5.785

@<SCITEGIC>MOL_PROPERTY
Coulomb
SciTegic.value.DoubleValue
46.744

@<SCITEGIC>MOL_PROPERTY
VdW
SciTegic.value.DoubleValue
0.307

@<SCITEGIC>MOL_PROPERTY
VdW6
SciTegic.value.DoubleValue
-7.672

@<SCITEGIC>MOL_PROPERTY
VdW12
SciTegic.value.DoubleValue
7.980

@<SCITEGIC>MOL_PROPERTY
Bond
SciTegic.value.DoubleValue
0.217

@<SCITEGIC>MOL_PROPERTY
Angle
SciTegic.value.DoubleValue
1.470

@<SCITEGIC>MOL_PROPERTY
Pdih
SciTegic.value.DoubleValue
4.098

@<SCITEGIC>MOL_PROPERTY
Idih
SciTegic.value.DoubleValue
0.000

@<SCITEGIC>MOL_PROPERTY
Tether
SciTegic.value.DoubleValue
0.000

@<TRIPOS>MOLECULE
guest-2_confgen4.mol2 : confsearch ligand conformer 97
          23          22           1
SMALL
USER_CHARGES
 
@<TRIPOS>ATOM
       1    N1      18.144346   21.993595   24.393195 N.4        1 MOL1        -0.5940
       2    H1      19.013605   22.395362   24.759058 H          1 MOL1         0.3649
       3    H2      17.411799   22.189538   25.083902 H          1 MOL1         0.3649
       4    H3      17.902801   22.518066   23.546159 H          1 MOL1         0.3649
       5    C1      18.278162   20.509138   24.120473 C.3        1 MOL1         0.0207
       6    H4      17.311745   20.143170   23.763257 H          1 MOL1         0.0950
       7    H5      18.505664   20.011281   25.066981 H          1 MOL1         0.0950
       8    C2      19.370426   20.181207   23.087033 C.3        1 MOL1        -0.1415
       9    H6      19.146429   20.696276   22.143301 H          1 MOL1         0.0976
      10    H7      20.336117   20.564955   23.442386 H          1 MOL1         0.0976
      11    C3      19.474744   18.660297   22.837767 C.3        1 MOL1        -0.1375
      12    H8      18.505226   18.279322   22.487488 H          1 MOL1         0.0976
      13    H9      19.693693   18.148165   23.785176 H          1 MOL1         0.0976
      14    C4      20.569204   18.319401   21.800969 C.3        1 MOL1        -0.1375
      15    H10     20.350344   18.831289   20.853559 H          1 MOL1         0.0976
      16    H11     21.538687   18.700251   22.151070 H          1 MOL1         0.0976
      17    C5      20.673331   16.798243   21.551983 C.3        1 MOL1        -0.1350
      18    H12     19.706410   16.412796   21.199184 H          1 MOL1         0.0976
      19    H13     20.894658   16.281778   22.496573 H          1 MOL1         0.0976
      20    C6      21.767144   16.461730   20.516203 C.3        1 MOL1        -0.2365
      21    H14     21.826004   15.377809   20.352815 H          1 MOL1         0.0987
      22    H15     22.752654   16.804947   20.857084 H          1 MOL1         0.0987
      23    H16     21.555137   16.937013   19.549565 H          1 MOL1         0.0987
@<TRIPOS>BOND
    1     1     2    1
    2     1     3    1
    3     1     4    1
    4     1     5    1
    5     5     6    1
    6     5     7    1
    7     5     8    1
    8     8     9    1
    9     8    10    1
   10     8    11    1
   11    11    12    1
   12    11    13    1
   13    11    14    1
   14    14    15    1
   15    14    16    1
   16    14    17    1
   17    17    18    1
   18    17    19    1
   19    17    20    1
   20    20    21    1
   21    20    22    1
   22    20    23    1
@<TRIPOS>SUBSTRUCTURE
       1 MOL1            1 RESIDUE      1      MOL     
@<SCITEGIC>MOL_PROPERTY
VConf Rank
SciTegic.value.IntegerValue
97

@<SCITEGIC>MOL_PROPERTY
Conf_Id
SciTegic.value.IntegerValue
40

@<SCITEGIC>MOL_PROPERTY
Delta U+W
SciTegic.value.DoubleValue
0.000

@<SCITEGIC>MOL_PROPERTY
U+W
SciTegic.value.DoubleValue
-8.382

@<SCITEGIC>MOL_PROPERTY
Grad RMS
SciTegic.value.DoubleValue
0.000000

@<SCITEGIC>MOL_PROPERTY
U
SciTegic.value.DoubleValue
46.604

@<SCITEGIC>MOL_PROPERTY
W
SciTegic.value.DoubleValue
-54.986

@<SCITEGIC>MOL_PROPERTY
W(PB)
SciTegic.value.DoubleValue
-57.162

@<SCITEGIC>MOL_PROPERTY
W(SA)
SciTegic.value.DoubleValue
2.176

@<SCITEGIC>MOL_PROPERTY
Valence
SciTegic.value.DoubleValue
1.727

@<SCITEGIC>MOL_PROPERTY
Coulomb
SciTegic.value.DoubleValue
44.434

@<SCITEGIC>MOL_PROPERTY
VdW
SciTegic.value.DoubleValue
0.443

@<SCITEGIC>MOL_PROPERTY
VdW6
SciTegic.value.DoubleValue
-4.623

@<SCITEGIC>MOL_PROPERTY
VdW12
SciTegic.value.DoubleValue
5.066

@<SCITEGIC>MOL_PROPERTY
Bond
SciTegic.value.DoubleValue
0.112

@<SCITEGIC>MOL_PROPERTY
Angle
SciTegic.value.DoubleValue
0.386

@<SCITEGIC>MOL_PROPERTY
Pdih
SciTegic.value.DoubleValue
1.228

@<SCITEGIC>MOL_PROPERTY
Idih
SciTegic.value.DoubleValue
0.000

@<SCITEGIC>MOL_PROPERTY
Tether
SciTegic.value.DoubleValue
0.000

@<TRIPOS>MOLECULE
guest-2_confgen4.mol2 : confsearch ligand conformer 98
          23          22           1
SMALL
USER_CHARGES
 
@<TRIPOS>ATOM
       1    N1      17.412544   18.259399   20.028709 N.4        1 MOL1        -0.5940
       2    H1      16.486035   18.084289   20.430901 H          1 MOL1         0.3649
       3    H2      17.804503   17.349086   19.766924 H          1 MOL1         0.3649
       4    H3      17.265510   18.782009   19.158486 H          1 MOL1         0.3649
       5    C1      18.313769   19.007926   20.989585 C.3        1 MOL1         0.0207
       6    H4      17.851062   19.975498   21.201991 H          1 MOL1         0.0950
       7    H5      19.266914   19.185455   20.485088 H          1 MOL1         0.0950
       8    C2      18.553724   18.247923   22.307899 C.3        1 MOL1        -0.1415
       9    H6      17.584888   18.035175   22.779113 H          1 MOL1         0.0976
      10    H7      19.019589   17.276463   22.095252 H          1 MOL1         0.0976
      11    C3      19.432710   19.038947   23.305539 C.3        1 MOL1        -0.1375
      12    H8      19.460232   18.484949   24.252794 H          1 MOL1         0.0976
      13    H9      18.959278   20.006208   23.523804 H          1 MOL1         0.0976
      14    C4      20.878179   19.266902   22.794433 C.3        1 MOL1        -0.1375
      15    H10     21.358107   18.298618   22.596151 H          1 MOL1         0.0976
      16    H11     20.848834   19.799364   21.834678 H          1 MOL1         0.0976
      17    C5      21.755074   20.086447   23.772149 C.3        1 MOL1        -0.1350
      18    H12     21.284938   21.060708   23.966021 H          1 MOL1         0.0976
      19    H13     22.717089   20.301321   23.286114 H          1 MOL1         0.0976
      20    C6      22.026413   19.363842   25.111406 C.3        1 MOL1        -0.2365
      21    H14     21.106906   19.237773   25.696102 H          1 MOL1         0.0987
      22    H15     22.729108   19.942979   25.724405 H          1 MOL1         0.0987
      23    H16     22.466591   18.372390   24.943253 H          1 MOL1         0.0987
@<TRIPOS>BOND
    1     1     2    1
    2     1     3    1
    3     1     4    1
    4     1     5    1
    5     5     6    1
    6     5     7    1
    7     5     8    1
    8     8     9    1
    9     8    10    1
   10     8    11    1
   11    11    12    1
   12    11    13    1
   13    11    14    1
   14    14    15    1
   15    14    16    1
   16    14    17    1
   17    17    18    1
   18    17    19    1
   19    17    20    1
   20    20    21    1
   21    20    22    1
   22    20    23    1
@<TRIPOS>SUBSTRUCTURE
       1 MOL1            1 RESIDUE      1      MOL     
@<SCITEGIC>MOL_PROPERTY
VConf Rank
SciTegic.value.IntegerValue
98

@<SCITEGIC>MOL_PROPERTY
Conf_Id
SciTegic.value.IntegerValue
65

@<SCITEGIC>MOL_PROPERTY
Delta U+W
SciTegic.value.DoubleValue
1.004

@<SCITEGIC>MOL_PROPERTY
U+W
SciTegic.value.DoubleValue
-7.378

@<SCITEGIC>MOL_PROPERTY
Grad RMS
SciTegic.value.DoubleValue
0.000000

@<SCITEGIC>MOL_PROPERTY
U
SciTegic.value.DoubleValue
48.047

@<SCITEGIC>MOL_PROPERTY
W
SciTegic.value.DoubleValue
-55.425

@<SCITEGIC>MOL_PROPERTY
W(PB)
SciTegic.value.DoubleValue
-57.542

@<SCITEGIC>MOL_PROPERTY
W(SA)
SciTegic.value.DoubleValue
2.116

@<SCITEGIC>MOL_PROPERTY
Valence
SciTegic.value.DoubleValue
2.583

@<SCITEGIC>MOL_PROPERTY
Coulomb
SciTegic.value.DoubleValue
44.791

@<SCITEGIC>MOL_PROPERTY
VdW
SciTegic.value.DoubleValue
0.673

@<SCITEGIC>MOL_PROPERTY
VdW6
SciTegic.value.DoubleValue
-5.788

@<SCITEGIC>MOL_PROPERTY
VdW12
SciTegic.value.DoubleValue
6.462

@<SCITEGIC>MOL_PROPERTY
Bond
SciTegic.value.DoubleValue
0.177

@<SCITEGIC>MOL_PROPERTY
Angle
SciTegic.value.DoubleValue
0.787

@<SCITEGIC>MOL_PROPERTY
Pdih
SciTegic.value.DoubleValue
1.619

@<SCITEGIC>MOL_PROPERTY
Idih
SciTegic.value.DoubleValue
0.000

@<SCITEGIC>MOL_PROPERTY
Tether
SciTegic.value.DoubleValue
0.000

@<TRIPOS>MOLECULE
guest-2_confgen4.mol2 : confsearch ligand conformer 99
          23          22           1
SMALL
USER_CHARGES
 
@<TRIPOS>ATOM
       1    N1      17.448069   16.325537   22.976741 N.4        1 MOL1        -0.5940
       2    H1      16.598743   16.509831   22.433124 H          1 MOL1         0.3649
       3    H2      17.150378   15.886370   23.854546 H          1 MOL1         0.3649
       4    H3      17.989593   15.624121   22.461374 H          1 MOL1         0.3649
       5    C1      18.247613   17.588985   23.222105 C.3        1 MOL1         0.0207
       6    H4      19.116194   17.322697   23.829704 H          1 MOL1         0.0950
       7    H5      17.622777   18.277382   23.797519 H          1 MOL1         0.0950
       8    C2      18.709496   18.272815   21.921269 C.3        1 MOL1        -0.1415
       9    H6      19.338134   17.582221   21.343447 H          1 MOL1         0.0976
      10    H7      17.830204   18.491064   21.300658 H          1 MOL1         0.0976
      11    C3      19.481466   19.589113   22.176293 C.3        1 MOL1        -0.1375
      12    H8      18.846510   20.281670   22.746001 H          1 MOL1         0.0976
      13    H9      19.673057   20.067890   21.207258 H          1 MOL1         0.0976
      14    C4      20.822208   19.372897   22.923444 C.3        1 MOL1        -0.1375
      15    H10     20.632163   18.871694   23.881663 H          1 MOL1         0.0976
      16    H11     21.464954   18.696683   22.343072 H          1 MOL1         0.0976
      17    C5      21.585464   20.688414   23.212191 C.3        1 MOL1        -0.1350
      18    H12     22.456664   20.458691   23.841563 H          1 MOL1         0.0976
      19    H13     20.950903   21.364836   23.801755 H          1 MOL1         0.0976
      20    C6      22.072436   21.412032   21.936016 C.3        1 MOL1        -0.2365
      21    H14     21.232041   21.775378   21.331887 H          1 MOL1         0.0987
      22    H15     22.682469   20.745676   21.312447 H          1 MOL1         0.0987
      23    H16     22.688355   22.281656   22.199350 H          1 MOL1         0.0987
@<TRIPOS>BOND
    1     1     2    1
    2     1     3    1
    3     1     4    1
    4     1     5    1
    5     5     6    1
    6     5     7    1
    7     5     8    1
    8     8     9    1
    9     8    10    1
   10     8    11    1
   11    11    12    1
   12    11    13    1
   13    11    14    1
   14    14    15    1
   15    14    16    1
   16    14    17    1
   17    17    18    1
   18    17    19    1
   19    17    20    1
   20    20    21    1
   21    20    22    1
   22    20    23    1
@<TRIPOS>SUBSTRUCTURE
       1 MOL1            1 RESIDUE      1      MOL     
@<SCITEGIC>MOL_PROPERTY
VConf Rank
SciTegic.value.IntegerValue
99

@<SCITEGIC>MOL_PROPERTY
Conf_Id
SciTegic.value.IntegerValue
92

@<SCITEGIC>MOL_PROPERTY
Delta U+W
SciTegic.value.DoubleValue
0.973

@<SCITEGIC>MOL_PROPERTY
U+W
SciTegic.value.DoubleValue
-7.409

@<SCITEGIC>MOL_PROPERTY
Grad RMS
SciTegic.value.DoubleValue
0.000000

@<SCITEGIC>MOL_PROPERTY
U
SciTegic.value.DoubleValue
48.047

@<SCITEGIC>MOL_PROPERTY
W
SciTegic.value.DoubleValue
-55.456

@<SCITEGIC>MOL_PROPERTY
W(PB)
SciTegic.value.DoubleValue
-57.595

@<SCITEGIC>MOL_PROPERTY
W(SA)
SciTegic.value.DoubleValue
2.138

@<SCITEGIC>MOL_PROPERTY
Valence
SciTegic.value.DoubleValue
2.583

@<SCITEGIC>MOL_PROPERTY
Coulomb
SciTegic.value.DoubleValue
44.791

@<SCITEGIC>MOL_PROPERTY
VdW
SciTegic.value.DoubleValue
0.674

@<SCITEGIC>MOL_PROPERTY
VdW6
SciTegic.value.DoubleValue
-5.789

@<SCITEGIC>MOL_PROPERTY
VdW12
SciTegic.value.DoubleValue
6.462

@<SCITEGIC>MOL_PROPERTY
Bond
SciTegic.value.DoubleValue
0.177

@<SCITEGIC>MOL_PROPERTY
Angle
SciTegic.value.DoubleValue
0.787

@<SCITEGIC>MOL_PROPERTY
Pdih
SciTegic.value.DoubleValue
1.619

@<SCITEGIC>MOL_PROPERTY
Idih
SciTegic.value.DoubleValue
0.000

@<SCITEGIC>MOL_PROPERTY
Tether
SciTegic.value.DoubleValue
0.000

@<TRIPOS>MOLECULE
guest-2_confgen4.mol2 : confsearch ligand conformer 100
          23          22           1
SMALL
USER_CHARGES
 
@<TRIPOS>ATOM
       1    N1      17.721721   18.111151   25.367815 N.4        1 MOL1        -0.5940
       2    H1      16.744495   18.417025   25.427011 H          1 MOL1         0.3649
       3    H2      18.134783   18.253350   26.295184 H          1 MOL1         0.3649
       4    H3      17.707691   17.100679   25.195796 H          1 MOL1         0.3649
       5    C1      18.481137   18.857823   24.290066 C.3        1 MOL1         0.0207
       6    H4      18.431343   19.925540   24.520107 H          1 MOL1         0.0950
       7    H5      17.969505   18.686232   23.339549 H          1 MOL1         0.0950
       8    C2      19.953781   18.420498   24.176384 C.3        1 MOL1        -0.1415
       9    H6      20.444322   18.556200   25.149472 H          1 MOL1         0.0976
      10    H7      20.003720   17.347887   23.946151 H          1 MOL1         0.0976
      11    C3      20.733847   19.219022   23.105454 C.3        1 MOL1        -0.1375
      12    H8      21.790801   18.921082   23.144564 H          1 MOL1         0.0976
      13    H9      20.703764   20.289405   23.352487 H          1 MOL1         0.0976
      14    C4      20.196013   18.998679   21.671005 C.3        1 MOL1        -0.1375
      15    H10     20.196524   17.924508   21.439542 H          1 MOL1         0.0976
      16    H11     19.153712   19.338127   21.604370 H          1 MOL1         0.0976
      17    C5      21.041466   19.751138   20.619441 C.3        1 MOL1        -0.1350
      18    H12     22.085939   19.412994   20.671346 H          1 MOL1         0.0976
      19    H13     21.044934   20.826470   20.846661 H          1 MOL1         0.0976
      20    C6      20.503402   19.531816   19.189424 C.3        1 MOL1        -0.2365
      21    H14     20.519168   18.467524   18.920608 H          1 MOL1         0.0987
      22    H15     21.116555   20.073184   18.457298 H          1 MOL1         0.0987
      23    H16     19.470771   19.892696   19.096363 H          1 MOL1         0.0987
@<TRIPOS>BOND
    1     1     2    1
    2     1     3    1
    3     1     4    1
    4     1     5    1
    5     5     6    1
    6     5     7    1
    7     5     8    1
    8     8     9    1
    9     8    10    1
   10     8    11    1
   11    11    12    1
   12    11    13    1
   13    11    14    1
   14    14    15    1
   15    14    16    1
   16    14    17    1
   17    17    18    1
   18    17    19    1
   19    17    20    1
   20    20    21    1
   21    20    22    1
   22    20    23    1
@<TRIPOS>SUBSTRUCTURE
       1 MOL1            1 RESIDUE      1      MOL     
@<SCITEGIC>MOL_PROPERTY
VConf Rank
SciTegic.value.IntegerValue
100

@<SCITEGIC>MOL_PROPERTY
Conf_Id
SciTegic.value.IntegerValue
42

@<SCITEGIC>MOL_PROPERTY
Delta U+W
SciTegic.value.DoubleValue
0.365

@<SCITEGIC>MOL_PROPERTY
U+W
SciTegic.value.DoubleValue
-8.017

@<SCITEGIC>MOL_PROPERTY
Grad RMS
SciTegic.value.DoubleValue
0.000000

@<SCITEGIC>MOL_PROPERTY
U
SciTegic.value.DoubleValue
47.375

@<SCITEGIC>MOL_PROPERTY
W
SciTegic.value.DoubleValue
-55.392

@<SCITEGIC>MOL_PROPERTY
W(PB)
SciTegic.value.DoubleValue
-57.543

@<SCITEGIC>MOL_PROPERTY
W(SA)
SciTegic.value.DoubleValue
2.152

@<SCITEGIC>MOL_PROPERTY
Valence
SciTegic.value.DoubleValue
2.032

@<SCITEGIC>MOL_PROPERTY
Coulomb
SciTegic.value.DoubleValue
44.843

@<SCITEGIC>MOL_PROPERTY
VdW
SciTegic.value.DoubleValue
0.499

@<SCITEGIC>MOL_PROPERTY
VdW6
SciTegic.value.DoubleValue
-5.218

@<SCITEGIC>MOL_PROPERTY
VdW12
SciTegic.value.DoubleValue
5.717

@<SCITEGIC>MOL_PROPERTY
Bond
SciTegic.value.DoubleValue
0.135

@<SCITEGIC>MOL_PROPERTY
Angle
SciTegic.value.DoubleValue
0.514

@<SCITEGIC>MOL_PROPERTY
Pdih
SciTegic.value.DoubleValue
1.383

@<SCITEGIC>MOL_PROPERTY
Idih
SciTegic.value.DoubleValue
0.000

@<SCITEGIC>MOL_PROPERTY
Tether
SciTegic.value.DoubleValue
0.000

@<TRIPOS>MOLECULE
guest-2_confgen4.mol2 : confsearch ligand conformer 101
          23          22           1
SMALL
USER_CHARGES
 
@<TRIPOS>ATOM
       1    N1      22.164694   17.228820   23.711925 N.4        1 MOL1        -0.5940
       2    H1      22.304067   17.824395   24.534421 H          1 MOL1         0.3649
       3    H2      23.010962   16.658546   23.609129 H          1 MOL1         0.3649
       4    H3      21.396391   16.587087   23.929388 H          1 MOL1         0.3649
       5    C1      21.881862   18.045464   22.465859 C.3        1 MOL1         0.0207
       6    H4      21.767614   17.355455   21.625468 H          1 MOL1         0.0950
       7    H5      22.758108   18.671218   22.275604 H          1 MOL1         0.0950
       8    C2      20.631697   18.939900   22.576782 C.3        1 MOL1        -0.1415
       9    H6      20.736729   19.612974   23.437938 H          1 MOL1         0.0976
      10    H7      20.590452   19.570623   21.680341 H          1 MOL1         0.0976
      11    C3      19.320772   18.124569   22.693037 C.3        1 MOL1        -0.1375
      12    H8      19.403051   17.417878   23.529189 H          1 MOL1         0.0976
      13    H9      19.190738   17.513999   21.788768 H          1 MOL1         0.0976
      14    C4      18.050645   18.985015   22.919903 C.3        1 MOL1        -0.1375
      15    H10     17.201159   18.296680   23.029696 H          1 MOL1         0.0976
      16    H11     18.122655   19.519424   23.877215 H          1 MOL1         0.0976
      17    C5      17.721375   19.977526   21.774939 C.3        1 MOL1        -0.1350
      18    H12     16.629281   20.036892   21.666415 H          1 MOL1         0.0976
      19    H13     18.099126   19.594870   20.816567 H          1 MOL1         0.0976
      20    C6      18.252447   21.407504   22.030648 C.3        1 MOL1        -0.2365
      21    H14     17.820448   21.827156   22.948431 H          1 MOL1         0.0987
      22    H15     17.979864   22.072348   21.200831 H          1 MOL1         0.0987
      23    H16     19.343117   21.431480   22.130568 H          1 MOL1         0.0987
@<TRIPOS>BOND
    1     1     2    1
    2     1     3    1
    3     1     4    1
    4     1     5    1
    5     5     6    1
    6     5     7    1
    7     5     8    1
    8     8     9    1
    9     8    10    1
   10     8    11    1
   11    11    12    1
   12    11    13    1
   13    11    14    1
   14    14    15    1
   15    14    16    1
   16    14    17    1
   17    17    18    1
   18    17    19    1
   19    17    20    1
   20    20    21    1
   21    20    22    1
   22    20    23    1
@<TRIPOS>SUBSTRUCTURE
       1 MOL1            1 RESIDUE      1      MOL     
@<SCITEGIC>MOL_PROPERTY
VConf Rank
SciTegic.value.IntegerValue
101

@<SCITEGIC>MOL_PROPERTY
Conf_Id
SciTegic.value.IntegerValue
3

@<SCITEGIC>MOL_PROPERTY
Delta U+W
SciTegic.value.DoubleValue
3.283

@<SCITEGIC>MOL_PROPERTY
U+W
SciTegic.value.DoubleValue
-5.099

@<SCITEGIC>MOL_PROPERTY
Grad RMS
SciTegic.value.DoubleValue
0.000000

@<SCITEGIC>MOL_PROPERTY
U
SciTegic.value.DoubleValue
50.701

@<SCITEGIC>MOL_PROPERTY
W
SciTegic.value.DoubleValue
-55.800

@<SCITEGIC>MOL_PROPERTY
W(PB)
SciTegic.value.DoubleValue
-57.867

@<SCITEGIC>MOL_PROPERTY
W(SA)
SciTegic.value.DoubleValue
2.067

@<SCITEGIC>MOL_PROPERTY
Valence
SciTegic.value.DoubleValue
4.880

@<SCITEGIC>MOL_PROPERTY
Coulomb
SciTegic.value.DoubleValue
45.095

@<SCITEGIC>MOL_PROPERTY
VdW
SciTegic.value.DoubleValue
0.726

@<SCITEGIC>MOL_PROPERTY
VdW6
SciTegic.value.DoubleValue
-6.620

@<SCITEGIC>MOL_PROPERTY
VdW12
SciTegic.value.DoubleValue
7.346

@<SCITEGIC>MOL_PROPERTY
Bond
SciTegic.value.DoubleValue
0.222

@<SCITEGIC>MOL_PROPERTY
Angle
SciTegic.value.DoubleValue
1.260

@<SCITEGIC>MOL_PROPERTY
Pdih
SciTegic.value.DoubleValue
3.398

@<SCITEGIC>MOL_PROPERTY
Idih
SciTegic.value.DoubleValue
0.000

@<SCITEGIC>MOL_PROPERTY
Tether
SciTegic.value.DoubleValue
0.000

@<TRIPOS>MOLECULE
guest-2_confgen4.mol2 : confsearch ligand conformer 102
          23          22           1
SMALL
USER_CHARGES
 
@<TRIPOS>ATOM
       1    N1      22.541221   18.110690   22.715677 N.4        1 MOL1        -0.5940
       2    H1      22.762755   17.622185   23.589084 H          1 MOL1         0.3649
       3    H2      23.380834   18.069024   22.128183 H          1 MOL1         0.3649
       4    H3      21.814128   17.567561   22.240340 H          1 MOL1         0.3649
       5    C1      22.098945   19.538991   22.965961 C.3        1 MOL1         0.0207
       6    H4      21.909137   20.009843   21.998097 H          1 MOL1         0.0950
       7    H5      22.930656   20.066272   23.441101 H          1 MOL1         0.0950
       8    C2      20.845628   19.652810   23.857879 C.3        1 MOL1        -0.1415
       9    H6      21.067633   19.222287   24.843357 H          1 MOL1         0.0976
      10    H7      20.631370   20.715917   24.030380 H          1 MOL1         0.0976
      11    C3      19.585307   18.966601   23.272768 C.3        1 MOL1        -0.1375
      12    H8      18.771539   19.072401   24.001784 H          1 MOL1         0.0976
      13    H9      19.761945   17.888063   23.166456 H          1 MOL1         0.0976
      14    C4      19.142523   19.562369   21.912095 C.3        1 MOL1        -0.1375
      15    H10     18.939506   20.636078   22.026558 H          1 MOL1         0.0976
      16    H11     19.964423   19.478922   21.188998 H          1 MOL1         0.0976
      17    C5      17.899701   18.863770   21.308936 C.3        1 MOL1        -0.1350
      18    H12     18.100844   17.790859   21.181939 H          1 MOL1         0.0976
      19    H13     17.725772   19.264726   20.300548 H          1 MOL1         0.0976
      20    C6      16.615680   19.056698   22.147634 C.3        1 MOL1        -0.2365
      21    H14     16.410863   20.121751   22.317100 H          1 MOL1         0.0987
      22    H15     16.692001   18.561166   23.123272 H          1 MOL1         0.0987
      23    H16     15.749547   18.627384   21.627598 H          1 MOL1         0.0987
@<TRIPOS>BOND
    1     1     2    1
    2     1     3    1
    3     1     4    1
    4     1     5    1
    5     5     6    1
    6     5     7    1
    7     5     8    1
    8     8     9    1
    9     8    10    1
   10     8    11    1
   11    11    12    1
   12    11    13    1
   13    11    14    1
   14    14    15    1
   15    14    16    1
   16    14    17    1
   17    17    18    1
   18    17    19    1
   19    17    20    1
   20    20    21    1
   21    20    22    1
   22    20    23    1
@<TRIPOS>SUBSTRUCTURE
       1 MOL1            1 RESIDUE      1      MOL     
@<SCITEGIC>MOL_PROPERTY
VConf Rank
SciTegic.value.IntegerValue
102

@<SCITEGIC>MOL_PROPERTY
Conf_Id
SciTegic.value.IntegerValue
83

@<SCITEGIC>MOL_PROPERTY
Delta U+W
SciTegic.value.DoubleValue
1.229

@<SCITEGIC>MOL_PROPERTY
U+W
SciTegic.value.DoubleValue
-7.154

@<SCITEGIC>MOL_PROPERTY
Grad RMS
SciTegic.value.DoubleValue
0.000000

@<SCITEGIC>MOL_PROPERTY
U
SciTegic.value.DoubleValue
48.727

@<SCITEGIC>MOL_PROPERTY
W
SciTegic.value.DoubleValue
-55.880

@<SCITEGIC>MOL_PROPERTY
W(PB)
SciTegic.value.DoubleValue
-57.960

@<SCITEGIC>MOL_PROPERTY
W(SA)
SciTegic.value.DoubleValue
2.080

@<SCITEGIC>MOL_PROPERTY
Valence
SciTegic.value.DoubleValue
2.671

@<SCITEGIC>MOL_PROPERTY
Coulomb
SciTegic.value.DoubleValue
45.371

@<SCITEGIC>MOL_PROPERTY
VdW
SciTegic.value.DoubleValue
0.684

@<SCITEGIC>MOL_PROPERTY
VdW6
SciTegic.value.DoubleValue
-6.511

@<SCITEGIC>MOL_PROPERTY
VdW12
SciTegic.value.DoubleValue
7.195

@<SCITEGIC>MOL_PROPERTY
Bond
SciTegic.value.DoubleValue
0.203

@<SCITEGIC>MOL_PROPERTY
Angle
SciTegic.value.DoubleValue
0.915

@<SCITEGIC>MOL_PROPERTY
Pdih
SciTegic.value.DoubleValue
1.554

@<SCITEGIC>MOL_PROPERTY
Idih
SciTegic.value.DoubleValue
0.000

@<SCITEGIC>MOL_PROPERTY
Tether
SciTegic.value.DoubleValue
0.000

@<TRIPOS>MOLECULE
guest-2_confgen4.mol2 : confsearch ligand conformer 103
          23          22           1
SMALL
USER_CHARGES
 
@<TRIPOS>ATOM
       1    N1      18.210350   21.327561   23.531097 N.4        1 MOL1        -0.5940
       2    H1      18.466987   22.205341   23.068287 H          1 MOL1         0.3649
       3    H2      19.040528   20.993701   24.030040 H          1 MOL1         0.3649
       4    H3      17.505404   21.557724   24.239553 H          1 MOL1         0.3649
       5    C1      17.700179   20.297888   22.542262 C.3        1 MOL1         0.0207
       6    H4      16.799159   20.703901   22.074456 H          1 MOL1         0.0950
       7    H5      17.416615   19.402407   23.101007 H          1 MOL1         0.0950
       8    C2      18.722547   19.929585   21.447550 C.3        1 MOL1        -0.1415
       9    H6      18.252295   19.224598   20.749184 H          1 MOL1         0.0976
      10    H7      18.958627   20.827908   20.861814 H          1 MOL1         0.0976
      11    C3      20.037142   19.312126   21.988136 C.3        1 MOL1        -0.1375
      12    H8      20.555425   20.037759   22.628907 H          1 MOL1         0.0976
      13    H9      20.702409   19.128569   21.134554 H          1 MOL1         0.0976
      14    C4      19.815418   17.989821   22.765812 C.3        1 MOL1        -0.1375
      15    H10     19.130788   18.167226   23.605552 H          1 MOL1         0.0976
      16    H11     19.321704   17.255558   22.114449 H          1 MOL1         0.0976
      17    C5      21.121649   17.381532   23.331664 C.3        1 MOL1        -0.1350
      18    H12     20.863616   16.518925   23.961894 H          1 MOL1         0.0976
      19    H13     21.614589   18.107916   23.992803 H          1 MOL1         0.0976
      20    C6      22.110978   16.918411   22.238005 C.3        1 MOL1        -0.2365
      21    H14     21.631820   16.216043   21.543674 H          1 MOL1         0.0987
      22    H15     22.971492   16.408399   22.690042 H          1 MOL1         0.0987
      23    H16     22.498218   17.765415   21.658460 H          1 MOL1         0.0987
@<TRIPOS>BOND
    1     1     2    1
    2     1     3    1
    3     1     4    1
    4     1     5    1
    5     5     6    1
    6     5     7    1
    7     5     8    1
    8     8     9    1
    9     8    10    1
   10     8    11    1
   11    11    12    1
   12    11    13    1
   13    11    14    1
   14    14    15    1
   15    14    16    1
   16    14    17    1
   17    17    18    1
   18    17    19    1
   19    17    20    1
   20    20    21    1
   21    20    22    1
   22    20    23    1
@<TRIPOS>SUBSTRUCTURE
       1 MOL1            1 RESIDUE      1      MOL     
@<SCITEGIC>MOL_PROPERTY
VConf Rank
SciTegic.value.IntegerValue
103

@<SCITEGIC>MOL_PROPERTY
Conf_Id
SciTegic.value.IntegerValue
50

@<SCITEGIC>MOL_PROPERTY
Delta U+W
SciTegic.value.DoubleValue
1.252

@<SCITEGIC>MOL_PROPERTY
U+W
SciTegic.value.DoubleValue
-7.130

@<SCITEGIC>MOL_PROPERTY
Grad RMS
SciTegic.value.DoubleValue
0.000000

@<SCITEGIC>MOL_PROPERTY
U
SciTegic.value.DoubleValue
48.727

@<SCITEGIC>MOL_PROPERTY
W
SciTegic.value.DoubleValue
-55.857

@<SCITEGIC>MOL_PROPERTY
W(PB)
SciTegic.value.DoubleValue
-57.937

@<SCITEGIC>MOL_PROPERTY
W(SA)
SciTegic.value.DoubleValue
2.080

@<SCITEGIC>MOL_PROPERTY
Valence
SciTegic.value.DoubleValue
2.671

@<SCITEGIC>MOL_PROPERTY
Coulomb
SciTegic.value.DoubleValue
45.371

@<SCITEGIC>MOL_PROPERTY
VdW
SciTegic.value.DoubleValue
0.684

@<SCITEGIC>MOL_PROPERTY
VdW6
SciTegic.value.DoubleValue
-6.511

@<SCITEGIC>MOL_PROPERTY
VdW12
SciTegic.value.DoubleValue
7.196

@<SCITEGIC>MOL_PROPERTY
Bond
SciTegic.value.DoubleValue
0.203

@<SCITEGIC>MOL_PROPERTY
Angle
SciTegic.value.DoubleValue
0.915

@<SCITEGIC>MOL_PROPERTY
Pdih
SciTegic.value.DoubleValue
1.554

@<SCITEGIC>MOL_PROPERTY
Idih
SciTegic.value.DoubleValue
0.000

@<SCITEGIC>MOL_PROPERTY
Tether
SciTegic.value.DoubleValue
0.000

@<TRIPOS>MOLECULE
guest-2_confgen4.mol2 : confsearch ligand conformer 104
          23          22           1
SMALL
USER_CHARGES
 
@<TRIPOS>ATOM
       1    N1      19.337283   17.930855   19.689903 N.4        1 MOL1        -0.5940
       2    H1      20.295161   17.631440   19.895704 H          1 MOL1         0.3649
       3    H2      19.299071   18.144440   18.687481 H          1 MOL1         0.3649
       4    H3      18.726671   17.122630   19.846586 H          1 MOL1         0.3649
       5    C1      18.925681   19.120736   20.534892 C.3        1 MOL1         0.0207
       6    H4      17.914728   19.407647   20.232848 H          1 MOL1         0.0950
       7    H5      19.598640   19.950664   20.303033 H          1 MOL1         0.0950
       8    C2      18.946515   18.844648   22.050841 C.3        1 MOL1        -0.1415
       9    H6      18.531915   19.719455   22.564148 H          1 MOL1         0.0976
      10    H7      18.273360   18.007339   22.277876 H          1 MOL1         0.0976
      11    C3      20.369468   18.535094   22.581930 C.3        1 MOL1        -0.1375
      12    H8      21.071528   19.323393   22.276887 H          1 MOL1         0.0976
      13    H9      20.725037   17.610445   22.108027 H          1 MOL1         0.0976
      14    C4      20.423477   18.341524   24.120020 C.3        1 MOL1        -0.1375
      15    H10     19.466021   17.948906   24.489239 H          1 MOL1         0.0976
      16    H11     21.166895   17.563114   24.341153 H          1 MOL1         0.0976
      17    C5      20.824191   19.608093   24.919042 C.3        1 MOL1        -0.1350
      18    H12     21.828352   19.933863   24.613577 H          1 MOL1         0.0976
      19    H13     20.902324   19.339423   25.981833 H          1 MOL1         0.0976
      20    C6      19.838223   20.788392   24.778346 C.3        1 MOL1        -0.2365
      21    H14     18.813174   20.479569   25.020707 H          1 MOL1         0.0987
      22    H15     19.849476   21.198168   23.760884 H          1 MOL1         0.0987
      23    H16     20.114045   21.601809   25.461839 H          1 MOL1         0.0987
@<TRIPOS>BOND
    1     1     2    1
    2     1     3    1
    3     1     4    1
    4     1     5    1
    5     5     6    1
    6     5     7    1
    7     5     8    1
    8     8     9    1
    9     8    10    1
   10     8    11    1
   11    11    12    1
   12    11    13    1
   13    11    14    1
   14    14    15    1
   15    14    16    1
   16    14    17    1
   17    17    18    1
   18    17    19    1
   19    17    20    1
   20    20    21    1
   21    20    22    1
   22    20    23    1
@<TRIPOS>SUBSTRUCTURE
       1 MOL1            1 RESIDUE      1      MOL     
@<SCITEGIC>MOL_PROPERTY
VConf Rank
SciTegic.value.IntegerValue
104

@<SCITEGIC>MOL_PROPERTY
Conf_Id
SciTegic.value.IntegerValue
55

@<SCITEGIC>MOL_PROPERTY
Delta U+W
SciTegic.value.DoubleValue
3.232

@<SCITEGIC>MOL_PROPERTY
U+W
SciTegic.value.DoubleValue
-5.150

@<SCITEGIC>MOL_PROPERTY
Grad RMS
SciTegic.value.DoubleValue
0.000000

@<SCITEGIC>MOL_PROPERTY
U
SciTegic.value.DoubleValue
50.625

@<SCITEGIC>MOL_PROPERTY
W
SciTegic.value.DoubleValue
-55.776

@<SCITEGIC>MOL_PROPERTY
W(PB)
SciTegic.value.DoubleValue
-57.839

@<SCITEGIC>MOL_PROPERTY
W(SA)
SciTegic.value.DoubleValue
2.064

@<SCITEGIC>MOL_PROPERTY
Valence
SciTegic.value.DoubleValue
4.837

@<SCITEGIC>MOL_PROPERTY
Coulomb
SciTegic.value.DoubleValue
45.097

@<SCITEGIC>MOL_PROPERTY
VdW
SciTegic.value.DoubleValue
0.692

@<SCITEGIC>MOL_PROPERTY
VdW6
SciTegic.value.DoubleValue
-6.655

@<SCITEGIC>MOL_PROPERTY
VdW12
SciTegic.value.DoubleValue
7.347

@<SCITEGIC>MOL_PROPERTY
Bond
SciTegic.value.DoubleValue
0.223

@<SCITEGIC>MOL_PROPERTY
Angle
SciTegic.value.DoubleValue
1.167

@<SCITEGIC>MOL_PROPERTY
Pdih
SciTegic.value.DoubleValue
3.447

@<SCITEGIC>MOL_PROPERTY
Idih
SciTegic.value.DoubleValue
0.000

@<SCITEGIC>MOL_PROPERTY
Tether
SciTegic.value.DoubleValue
0.000

@<TRIPOS>MOLECULE
guest-2_confgen4.mol2 : confsearch ligand conformer 105
          23          22           1
SMALL
USER_CHARGES
 
@<TRIPOS>ATOM
       1    N1      16.897093   19.048357   21.535433 N.4        1 MOL1        -0.5940
       2    H1      16.655259   18.729981   20.591515 H          1 MOL1         0.3649
       3    H2      16.267196   19.826776   21.757454 H          1 MOL1         0.3649
       4    H3      16.666080   18.284932   22.179305 H          1 MOL1         0.3649
       5    C1      18.353023   19.454801   21.638965 C.3        1 MOL1         0.0207
       6    H4      18.527258   19.814510   22.654638 H          1 MOL1         0.0950
       7    H5      18.519322   20.287046   20.949681 H          1 MOL1         0.0950
       8    C2      19.324457   18.306022   21.303692 C.3        1 MOL1        -0.1415
       9    H6      19.137885   17.444324   21.958315 H          1 MOL1         0.0976
      10    H7      19.112756   17.969198   20.280095 H          1 MOL1         0.0976
      11    C3      20.814010   18.725412   21.386199 C.3        1 MOL1        -0.1375
      12    H8      20.937045   19.752312   21.014793 H          1 MOL1         0.0976
      13    H9      21.386385   18.089793   20.696363 H          1 MOL1         0.0976
      14    C4      21.456215   18.586079   22.791059 C.3        1 MOL1        -0.1375
      15    H10     21.420603   17.534326   23.107032 H          1 MOL1         0.0976
      16    H11     22.521413   18.842292   22.706495 H          1 MOL1         0.0976
      17    C5      20.813836   19.471556   23.883662 C.3        1 MOL1        -0.1350
      18    H12     19.793254   19.125812   24.092916 H          1 MOL1         0.0976
      19    H13     20.740829   20.509150   23.529053 H          1 MOL1         0.0976
      20    C6      21.625687   19.435071   25.196006 C.3        1 MOL1        -0.2365
      21    H14     22.645375   19.811076   25.040856 H          1 MOL1         0.0987
      22    H15     21.694452   18.412313   25.589055 H          1 MOL1         0.0987
      23    H16     21.150204   20.059649   25.963370 H          1 MOL1         0.0987
@<TRIPOS>BOND
    1     1     2    1
    2     1     3    1
    3     1     4    1
    4     1     5    1
    5     5     6    1
    6     5     7    1
    7     5     8    1
    8     8     9    1
    9     8    10    1
   10     8    11    1
   11    11    12    1
   12    11    13    1
   13    11    14    1
   14    14    15    1
   15    14    16    1
   16    14    17    1
   17    17    18    1
   18    17    19    1
   19    17    20    1
   20    20    21    1
   21    20    22    1
   22    20    23    1
@<TRIPOS>SUBSTRUCTURE
       1 MOL1            1 RESIDUE      1      MOL     
@<SCITEGIC>MOL_PROPERTY
VConf Rank
SciTegic.value.IntegerValue
105

@<SCITEGIC>MOL_PROPERTY
Conf_Id
SciTegic.value.IntegerValue
93

@<SCITEGIC>MOL_PROPERTY
Delta U+W
SciTegic.value.DoubleValue
2.589

@<SCITEGIC>MOL_PROPERTY
U+W
SciTegic.value.DoubleValue
-5.793

@<SCITEGIC>MOL_PROPERTY
Grad RMS
SciTegic.value.DoubleValue
0.000000

@<SCITEGIC>MOL_PROPERTY
U
SciTegic.value.DoubleValue
50.122

@<SCITEGIC>MOL_PROPERTY
W
SciTegic.value.DoubleValue
-55.915

@<SCITEGIC>MOL_PROPERTY
W(PB)
SciTegic.value.DoubleValue
-58.031

@<SCITEGIC>MOL_PROPERTY
W(SA)
SciTegic.value.DoubleValue
2.115

@<SCITEGIC>MOL_PROPERTY
Valence
SciTegic.value.DoubleValue
4.132

@<SCITEGIC>MOL_PROPERTY
Coulomb
SciTegic.value.DoubleValue
45.536

@<SCITEGIC>MOL_PROPERTY
VdW
SciTegic.value.DoubleValue
0.454

@<SCITEGIC>MOL_PROPERTY
VdW6
SciTegic.value.DoubleValue
-6.262

@<SCITEGIC>MOL_PROPERTY
VdW12
SciTegic.value.DoubleValue
6.715

@<SCITEGIC>MOL_PROPERTY
Bond
SciTegic.value.DoubleValue
0.182

@<SCITEGIC>MOL_PROPERTY
Angle
SciTegic.value.DoubleValue
1.157

@<SCITEGIC>MOL_PROPERTY
Pdih
SciTegic.value.DoubleValue
2.794

@<SCITEGIC>MOL_PROPERTY
Idih
SciTegic.value.DoubleValue
0.000

@<SCITEGIC>MOL_PROPERTY
Tether
SciTegic.value.DoubleValue
0.000

@<TRIPOS>MOLECULE
guest-2_confgen4.mol2 : confsearch ligand conformer 106
          23          22           1
SMALL
USER_CHARGES
 
@<TRIPOS>ATOM
       1    N1      17.778443   20.718796   20.853554 N.4        1 MOL1        -0.5940
       2    H1      17.270888   20.988963   21.702173 H          1 MOL1         0.3649
       3    H2      17.096799   20.279975   20.225225 H          1 MOL1         0.3649
       4    H3      18.087804   21.584055   20.399184 H          1 MOL1         0.3649
       5    C1      18.939573   19.794553   21.158835 C.3        1 MOL1         0.0207
       6    H4      19.413698   19.526344   20.210854 H          1 MOL1         0.0950
       7    H5      18.533276   18.885088   21.605084 H          1 MOL1         0.0950
       8    C2      19.985082   20.430130   22.096246 C.3        1 MOL1        -0.1415
       9    H6      20.362981   21.342429   21.615703 H          1 MOL1         0.0976
      10    H7      19.513375   20.747360   23.035779 H          1 MOL1         0.0976
      11    C3      21.185328   19.495412   22.391500 C.3        1 MOL1        -0.1375
      12    H8      22.061255   20.122554   22.608163 H          1 MOL1         0.0976
      13    H9      21.446287   18.922053   21.491076 H          1 MOL1         0.0976
      14    C4      20.987990   18.537277   23.595041 C.3        1 MOL1        -0.1375
      15    H10     21.924272   17.982534   23.746947 H          1 MOL1         0.0976
      16    H11     20.831501   19.125888   24.509557 H          1 MOL1         0.0976
      17    C5      19.828953   17.527218   23.430982 C.3        1 MOL1        -0.1350
      18    H12     19.914572   17.013707   22.463174 H          1 MOL1         0.0976
      19    H13     18.867718   18.057242   23.435075 H          1 MOL1         0.0976
      20    C6      19.820321   16.481436   24.566300 C.3        1 MOL1        -0.2365
      21    H14     18.985595   15.779699   24.440494 H          1 MOL1         0.0987
      22    H15     19.710132   16.963906   25.546265 H          1 MOL1         0.0987
      23    H16     20.750854   15.898981   24.574593 H          1 MOL1         0.0987
@<TRIPOS>BOND
    1     1     2    1
    2     1     3    1
    3     1     4    1
    4     1     5    1
    5     5     6    1
    6     5     7    1
    7     5     8    1
    8     8     9    1
    9     8    10    1
   10     8    11    1
   11    11    12    1
   12    11    13    1
   13    11    14    1
   14    14    15    1
   15    14    16    1
   16    14    17    1
   17    17    18    1
   18    17    19    1
   19    17    20    1
   20    20    21    1
   21    20    22    1
   22    20    23    1
@<TRIPOS>SUBSTRUCTURE
       1 MOL1            1 RESIDUE      1      MOL     
@<SCITEGIC>MOL_PROPERTY
VConf Rank
SciTegic.value.IntegerValue
106

@<SCITEGIC>MOL_PROPERTY
Conf_Id
SciTegic.value.IntegerValue
70

@<SCITEGIC>MOL_PROPERTY
Delta U+W
SciTegic.value.DoubleValue
2.599

@<SCITEGIC>MOL_PROPERTY
U+W
SciTegic.value.DoubleValue
-5.783

@<SCITEGIC>MOL_PROPERTY
Grad RMS
SciTegic.value.DoubleValue
0.000000

@<SCITEGIC>MOL_PROPERTY
U
SciTegic.value.DoubleValue
50.122

@<SCITEGIC>MOL_PROPERTY
W
SciTegic.value.DoubleValue
-55.906

@<SCITEGIC>MOL_PROPERTY
W(PB)
SciTegic.value.DoubleValue
-58.010

@<SCITEGIC>MOL_PROPERTY
W(SA)
SciTegic.value.DoubleValue
2.105

@<SCITEGIC>MOL_PROPERTY
Valence
SciTegic.value.DoubleValue
4.132

@<SCITEGIC>MOL_PROPERTY
Coulomb
SciTegic.value.DoubleValue
45.536

@<SCITEGIC>MOL_PROPERTY
VdW
SciTegic.value.DoubleValue
0.454

@<SCITEGIC>MOL_PROPERTY
VdW6
SciTegic.value.DoubleValue
-6.262

@<SCITEGIC>MOL_PROPERTY
VdW12
SciTegic.value.DoubleValue
6.715

@<SCITEGIC>MOL_PROPERTY
Bond
SciTegic.value.DoubleValue
0.182

@<SCITEGIC>MOL_PROPERTY
Angle
SciTegic.value.DoubleValue
1.157

@<SCITEGIC>MOL_PROPERTY
Pdih
SciTegic.value.DoubleValue
2.794

@<SCITEGIC>MOL_PROPERTY
Idih
SciTegic.value.DoubleValue
0.000

@<SCITEGIC>MOL_PROPERTY
Tether
SciTegic.value.DoubleValue
0.000

@<TRIPOS>MOLECULE
guest-2_confgen4.mol2 : confsearch ligand conformer 107
          23          22           1
SMALL
USER_CHARGES
 
@<TRIPOS>ATOM
       1    N1      20.038959   21.506674   23.880444 N.4        1 MOL1        -0.5940
       2    H1      20.029479   21.641499   24.896436 H          1 MOL1         0.3649
       3    H2      19.935078   22.433795   23.454510 H          1 MOL1         0.3649
       4    H3      20.970525   21.162306   23.629325 H          1 MOL1         0.3649
       5    C1      18.949849   20.553593   23.429098 C.3        1 MOL1         0.0207
       6    H4      18.992885   20.480165   22.339281 H          1 MOL1         0.0950
       7    H5      17.987246   20.994511   23.702011 H          1 MOL1         0.0950
       8    C2      19.063505   19.146762   24.050138 C.3        1 MOL1        -0.1415
       9    H6      18.984344   19.229060   25.142235 H          1 MOL1         0.0976
      10    H7      18.200033   18.548527   23.732415 H          1 MOL1         0.0976
      11    C3      20.375956   18.402443   23.688936 C.3        1 MOL1        -0.1375
      12    H8      20.350083   17.400605   24.139329 H          1 MOL1         0.0976
      13    H9      21.224920   18.916737   24.159037 H          1 MOL1         0.0976
      14    C4      20.652607   18.266646   22.169126 C.3        1 MOL1        -0.1375
      15    H10     20.775597   19.260260   21.718022 H          1 MOL1         0.0976
      16    H11     21.615173   17.753463   22.037041 H          1 MOL1         0.0976
      17    C5      19.557208   17.481984   21.409323 C.3        1 MOL1        -0.1350
      18    H12     18.599081   18.015300   21.468543 H          1 MOL1         0.0976
      19    H13     19.406521   16.502017   21.883316 H          1 MOL1         0.0976
      20    C6      19.927356   17.281011   19.924405 C.3        1 MOL1        -0.2365
      21    H14     19.139015   16.725366   19.400201 H          1 MOL1         0.0987
      22    H15     20.862334   16.714623   19.823346 H          1 MOL1         0.0987
      23    H16     20.055061   18.245409   19.415648 H          1 MOL1         0.0987
@<TRIPOS>BOND
    1     1     2    1
    2     1     3    1
    3     1     4    1
    4     1     5    1
    5     5     6    1
    6     5     7    1
    7     5     8    1
    8     8     9    1
    9     8    10    1
   10     8    11    1
   11    11    12    1
   12    11    13    1
   13    11    14    1
   14    14    15    1
   15    14    16    1
   16    14    17    1
   17    17    18    1
   18    17    19    1
   19    17    20    1
   20    20    21    1
   21    20    22    1
   22    20    23    1
@<TRIPOS>SUBSTRUCTURE
       1 MOL1            1 RESIDUE      1      MOL     
@<SCITEGIC>MOL_PROPERTY
VConf Rank
SciTegic.value.IntegerValue
107

@<SCITEGIC>MOL_PROPERTY
Conf_Id
SciTegic.value.IntegerValue
72

@<SCITEGIC>MOL_PROPERTY
Delta U+W
SciTegic.value.DoubleValue
1.051

@<SCITEGIC>MOL_PROPERTY
U+W
SciTegic.value.DoubleValue
-7.331

@<SCITEGIC>MOL_PROPERTY
Grad RMS
SciTegic.value.DoubleValue
0.000000

@<SCITEGIC>MOL_PROPERTY
U
SciTegic.value.DoubleValue
48.590

@<SCITEGIC>MOL_PROPERTY
W
SciTegic.value.DoubleValue
-55.922

@<SCITEGIC>MOL_PROPERTY
W(PB)
SciTegic.value.DoubleValue
-58.012

@<SCITEGIC>MOL_PROPERTY
W(SA)
SciTegic.value.DoubleValue
2.090

@<SCITEGIC>MOL_PROPERTY
Valence
SciTegic.value.DoubleValue
2.601

@<SCITEGIC>MOL_PROPERTY
Coulomb
SciTegic.value.DoubleValue
45.520

@<SCITEGIC>MOL_PROPERTY
VdW
SciTegic.value.DoubleValue
0.469

@<SCITEGIC>MOL_PROPERTY
VdW6
SciTegic.value.DoubleValue
-6.867

@<SCITEGIC>MOL_PROPERTY
VdW12
SciTegic.value.DoubleValue
7.336

@<SCITEGIC>MOL_PROPERTY
Bond
SciTegic.value.DoubleValue
0.205

@<SCITEGIC>MOL_PROPERTY
Angle
SciTegic.value.DoubleValue
0.962

@<SCITEGIC>MOL_PROPERTY
Pdih
SciTegic.value.DoubleValue
1.434

@<SCITEGIC>MOL_PROPERTY
Idih
SciTegic.value.DoubleValue
0.000

@<SCITEGIC>MOL_PROPERTY
Tether
SciTegic.value.DoubleValue
0.000

@<TRIPOS>MOLECULE
guest-2_confgen4.mol2 : confsearch ligand conformer 108
          23          22           1
SMALL
USER_CHARGES
 
@<TRIPOS>ATOM
       1    N1      17.708346   18.568422   20.269894 N.4        1 MOL1        -0.5940
       2    H1      16.737214   18.886224   20.181219 H          1 MOL1         0.3649
       3    H2      17.771591   17.666545   19.786779 H          1 MOL1         0.3649
       4    H3      18.288222   19.232200   19.746631 H          1 MOL1         0.3649
       5    C1      18.136146   18.463880   21.719617 C.3        1 MOL1         0.0207
       6    H4      17.461229   17.765513   22.221734 H          1 MOL1         0.0950
       7    H5      18.015027   19.449074   22.177498 H          1 MOL1         0.0950
       8    C2      19.591457   17.988715   21.887264 C.3        1 MOL1        -0.1415
       9    H6      19.711180   17.016176   21.391721 H          1 MOL1         0.0976
      10    H7      20.268880   18.681997   21.372589 H          1 MOL1         0.0976
      11    C3      20.006611   17.847293   23.372764 C.3        1 MOL1        -0.1375
      12    H8      21.042251   17.485556   23.423222 H          1 MOL1         0.0976
      13    H9      19.395918   17.061450   23.838399 H          1 MOL1         0.0976
      14    C4      19.868606   19.144865   24.214203 C.3        1 MOL1        -0.1375
      15    H10     18.806970   19.412977   24.299913 H          1 MOL1         0.0976
      16    H11     20.203100   18.934892   25.239481 H          1 MOL1         0.0976
      17    C5      20.652390   20.367832   23.673598 C.3        1 MOL1        -0.1350
      18    H12     20.469227   21.223037   24.339004 H          1 MOL1         0.0976
      19    H13     20.263404   20.663822   22.690136 H          1 MOL1         0.0976
      20    C6      22.176219   20.127139   23.581245 C.3        1 MOL1        -0.2365
      21    H14     22.586026   19.817448   24.551342 H          1 MOL1         0.0987
      22    H15     22.693050   21.046224   23.276269 H          1 MOL1         0.0987
      23    H16     22.417101   19.352061   22.843147 H          1 MOL1         0.0987
@<TRIPOS>BOND
    1     1     2    1
    2     1     3    1
    3     1     4    1
    4     1     5    1
    5     5     6    1
    6     5     7    1
    7     5     8    1
    8     8     9    1
    9     8    10    1
   10     8    11    1
   11    11    12    1
   12    11    13    1
   13    11    14    1
   14    14    15    1
   15    14    16    1
   16    14    17    1
   17    17    18    1
   18    17    19    1
   19    17    20    1
   20    20    21    1
   21    20    22    1
   22    20    23    1
@<TRIPOS>SUBSTRUCTURE
       1 MOL1            1 RESIDUE      1      MOL     
@<SCITEGIC>MOL_PROPERTY
VConf Rank
SciTegic.value.IntegerValue
108

@<SCITEGIC>MOL_PROPERTY
Conf_Id
SciTegic.value.IntegerValue
26

@<SCITEGIC>MOL_PROPERTY
Delta U+W
SciTegic.value.DoubleValue
1.076

@<SCITEGIC>MOL_PROPERTY
U+W
SciTegic.value.DoubleValue
-7.306

@<SCITEGIC>MOL_PROPERTY
Grad RMS
SciTegic.value.DoubleValue
0.000000

@<SCITEGIC>MOL_PROPERTY
U
SciTegic.value.DoubleValue
48.641

@<SCITEGIC>MOL_PROPERTY
W
SciTegic.value.DoubleValue
-55.947

@<SCITEGIC>MOL_PROPERTY
W(PB)
SciTegic.value.DoubleValue
-58.031

@<SCITEGIC>MOL_PROPERTY
W(SA)
SciTegic.value.DoubleValue
2.084

@<SCITEGIC>MOL_PROPERTY
Valence
SciTegic.value.DoubleValue
2.922

@<SCITEGIC>MOL_PROPERTY
Coulomb
SciTegic.value.DoubleValue
45.269

@<SCITEGIC>MOL_PROPERTY
VdW
SciTegic.value.DoubleValue
0.449

@<SCITEGIC>MOL_PROPERTY
VdW6
SciTegic.value.DoubleValue
-7.045

@<SCITEGIC>MOL_PROPERTY
VdW12
SciTegic.value.DoubleValue
7.494

@<SCITEGIC>MOL_PROPERTY
Bond
SciTegic.value.DoubleValue
0.220

@<SCITEGIC>MOL_PROPERTY
Angle
SciTegic.value.DoubleValue
1.205

@<SCITEGIC>MOL_PROPERTY
Pdih
SciTegic.value.DoubleValue
1.497

@<SCITEGIC>MOL_PROPERTY
Idih
SciTegic.value.DoubleValue
0.000

@<SCITEGIC>MOL_PROPERTY
Tether
SciTegic.value.DoubleValue
0.000

@<TRIPOS>MOLECULE
guest-2_confgen4.mol2 : confsearch ligand conformer 109
          23          22           1
SMALL
USER_CHARGES
 
@<TRIPOS>ATOM
       1    N1      19.164567   20.112605   25.468959 N.4        1 MOL1        -0.5940
       2    H1      19.903859   20.684461   25.889922 H          1 MOL1         0.3649
       3    H2      18.642296   19.685444   26.241438 H          1 MOL1         0.3649
       4    H3      18.521712   20.753494   24.992869 H          1 MOL1         0.3649
       5    C1      19.726080   19.069386   24.524485 C.3        1 MOL1         0.0207
       6    H4      18.889740   18.480694   24.138596 H          1 MOL1         0.0950
       7    H5      20.376652   18.406434   25.101200 H          1 MOL1         0.0950
       8    C2      20.516631   19.679143   23.351862 C.3        1 MOL1        -0.1415
       9    H6      19.868139   20.354942   22.779860 H          1 MOL1         0.0976
      10    H7      21.331044   20.298154   23.750968 H          1 MOL1         0.0976
      11    C3      21.119502   18.603779   22.414204 C.3        1 MOL1        -0.1375
      12    H8      21.856424   18.014846   22.977600 H          1 MOL1         0.0976
      13    H9      21.686482   19.100738   21.615758 H          1 MOL1         0.0976
      14    C4      20.083969   17.631412   21.787361 C.3        1 MOL1        -0.1375
      15    H10     20.615952   16.927126   21.133035 H          1 MOL1         0.0976
      16    H11     19.635227   17.016365   22.578973 H          1 MOL1         0.0976
      17    C5      18.950570   18.308770   20.975686 C.3        1 MOL1        -0.1350
      18    H12     18.336997   18.939157   21.633152 H          1 MOL1         0.0976
      19    H13     18.277836   17.527726   20.594776 H          1 MOL1         0.0976
      20    C6      19.466553   19.145523   19.783157 C.3        1 MOL1        -0.2365
      21    H14     20.056621   20.006424   20.121133 H          1 MOL1         0.0987
      22    H15     18.626174   19.532120   19.192271 H          1 MOL1         0.0987
      23    H16     20.093948   18.538524   19.117674 H          1 MOL1         0.0987
@<TRIPOS>BOND
    1     1     2    1
    2     1     3    1
    3     1     4    1
    4     1     5    1
    5     5     6    1
    6     5     7    1
    7     5     8    1
    8     8     9    1
    9     8    10    1
   10     8    11    1
   11    11    12    1
   12    11    13    1
   13    11    14    1
   14    14    15    1
   15    14    16    1
   16    14    17    1
   17    17    18    1
   18    17    19    1
   19    17    20    1
   20    20    21    1
   21    20    22    1
   22    20    23    1
@<TRIPOS>SUBSTRUCTURE
       1 MOL1            1 RESIDUE      1      MOL     
@<SCITEGIC>MOL_PROPERTY
VConf Rank
SciTegic.value.IntegerValue
109

@<SCITEGIC>MOL_PROPERTY
Conf_Id
SciTegic.value.IntegerValue
90

@<SCITEGIC>MOL_PROPERTY
Delta U+W
SciTegic.value.DoubleValue
1.131

@<SCITEGIC>MOL_PROPERTY
U+W
SciTegic.value.DoubleValue
-7.251

@<SCITEGIC>MOL_PROPERTY
Grad RMS
SciTegic.value.DoubleValue
0.000000

@<SCITEGIC>MOL_PROPERTY
U
SciTegic.value.DoubleValue
48.641

@<SCITEGIC>MOL_PROPERTY
W
SciTegic.value.DoubleValue
-55.892

@<SCITEGIC>MOL_PROPERTY
W(PB)
SciTegic.value.DoubleValue
-57.962

@<SCITEGIC>MOL_PROPERTY
W(SA)
SciTegic.value.DoubleValue
2.070

@<SCITEGIC>MOL_PROPERTY
Valence
SciTegic.value.DoubleValue
2.922

@<SCITEGIC>MOL_PROPERTY
Coulomb
SciTegic.value.DoubleValue
45.269

@<SCITEGIC>MOL_PROPERTY
VdW
SciTegic.value.DoubleValue
0.450

@<SCITEGIC>MOL_PROPERTY
VdW6
SciTegic.value.DoubleValue
-7.045

@<SCITEGIC>MOL_PROPERTY
VdW12
SciTegic.value.DoubleValue
7.495

@<SCITEGIC>MOL_PROPERTY
Bond
SciTegic.value.DoubleValue
0.220

@<SCITEGIC>MOL_PROPERTY
Angle
SciTegic.value.DoubleValue
1.205

@<SCITEGIC>MOL_PROPERTY
Pdih
SciTegic.value.DoubleValue
1.497

@<SCITEGIC>MOL_PROPERTY
Idih
SciTegic.value.DoubleValue
0.000

@<SCITEGIC>MOL_PROPERTY
Tether
SciTegic.value.DoubleValue
0.000

@<TRIPOS>MOLECULE
guest-2_confgen4.mol2 : confsearch ligand conformer 110
          23          22           1
SMALL
USER_CHARGES
 
@<TRIPOS>ATOM
       1    N1      20.252179   17.876982   20.208629 N.4        1 MOL1        -0.5940
       2    H1      21.012646   17.886072   19.520545 H          1 MOL1         0.3649
       3    H2      20.012146   18.853360   20.405336 H          1 MOL1         0.3649
       4    H3      19.440008   17.450689   19.751217 H          1 MOL1         0.3649
       5    C1      20.642820   17.132439   21.470156 C.3        1 MOL1         0.0207
       6    H4      21.528688   17.616751   21.888959 H          1 MOL1         0.0950
       7    H5      20.917173   16.113442   21.183984 H          1 MOL1         0.0950
       8    C2      19.524876   17.082412   22.531564 C.3        1 MOL1        -0.1415
       9    H6      18.657661   16.552383   22.115876 H          1 MOL1         0.0976
      10    H7      19.872809   16.479983   23.381190 H          1 MOL1         0.0976
      11    C3      19.078018   18.475486   23.041708 C.3        1 MOL1        -0.1375
      12    H8      18.273910   18.337301   23.777525 H          1 MOL1         0.0976
      13    H9      18.639473   19.045401   22.212866 H          1 MOL1         0.0976
      14    C4      20.230159   19.281076   23.693682 C.3        1 MOL1        -0.1375
      15    H10     20.710621   18.660630   24.462753 H          1 MOL1         0.0976
      16    H11     21.004888   19.505422   22.948434 H          1 MOL1         0.0976
      17    C5      19.760497   20.601619   24.350170 C.3        1 MOL1        -0.1350
      18    H12     20.611137   21.055239   24.877879 H          1 MOL1         0.0976
      19    H13     19.002672   20.387250   25.116674 H          1 MOL1         0.0976
      20    C6      19.200016   21.625066   23.336487 C.3        1 MOL1        -0.2365
      21    H14     19.929668   21.836586   22.544146 H          1 MOL1         0.0987
      22    H15     18.965595   22.572971   23.837943 H          1 MOL1         0.0987
      23    H16     18.276587   21.263844   22.867224 H          1 MOL1         0.0987
@<TRIPOS>BOND
    1     1     2    1
    2     1     3    1
    3     1     4    1
    4     1     5    1
    5     5     6    1
    6     5     7    1
    7     5     8    1
    8     8     9    1
    9     8    10    1
   10     8    11    1
   11    11    12    1
   12    11    13    1
   13    11    14    1
   14    14    15    1
   15    14    16    1
   16    14    17    1
   17    17    18    1
   18    17    19    1
   19    17    20    1
   20    20    21    1
   21    20    22    1
   22    20    23    1
@<TRIPOS>SUBSTRUCTURE
       1 MOL1            1 RESIDUE      1      MOL     
@<SCITEGIC>MOL_PROPERTY
VConf Rank
SciTegic.value.IntegerValue
110

@<SCITEGIC>MOL_PROPERTY
Conf_Id
SciTegic.value.IntegerValue
85

@<SCITEGIC>MOL_PROPERTY
Delta U+W
SciTegic.value.DoubleValue
1.193

@<SCITEGIC>MOL_PROPERTY
U+W
SciTegic.value.DoubleValue
-7.189

@<SCITEGIC>MOL_PROPERTY
Grad RMS
SciTegic.value.DoubleValue
0.000000

@<SCITEGIC>MOL_PROPERTY
U
SciTegic.value.DoubleValue
48.775

@<SCITEGIC>MOL_PROPERTY
W
SciTegic.value.DoubleValue
-55.965

@<SCITEGIC>MOL_PROPERTY
W(PB)
SciTegic.value.DoubleValue
-58.038

@<SCITEGIC>MOL_PROPERTY
W(SA)
SciTegic.value.DoubleValue
2.073

@<SCITEGIC>MOL_PROPERTY
Valence
SciTegic.value.DoubleValue
2.602

@<SCITEGIC>MOL_PROPERTY
Coulomb
SciTegic.value.DoubleValue
45.581

@<SCITEGIC>MOL_PROPERTY
VdW
SciTegic.value.DoubleValue
0.592

@<SCITEGIC>MOL_PROPERTY
VdW6
SciTegic.value.DoubleValue
-6.616

@<SCITEGIC>MOL_PROPERTY
VdW12
SciTegic.value.DoubleValue
7.208

@<SCITEGIC>MOL_PROPERTY
Bond
SciTegic.value.DoubleValue
0.196

@<SCITEGIC>MOL_PROPERTY
Angle
SciTegic.value.DoubleValue
0.832

@<SCITEGIC>MOL_PROPERTY
Pdih
SciTegic.value.DoubleValue
1.574

@<SCITEGIC>MOL_PROPERTY
Idih
SciTegic.value.DoubleValue
0.000

@<SCITEGIC>MOL_PROPERTY
Tether
SciTegic.value.DoubleValue
0.000

@<TRIPOS>MOLECULE
guest-2_confgen4.mol2 : confsearch ligand conformer 111
          23          22           1
SMALL
USER_CHARGES
 
@<TRIPOS>ATOM
       1    N1      18.098809   18.568382   21.325214 N.4        1 MOL1        -0.5940
       2    H1      18.777752   17.990830   21.831318 H          1 MOL1         0.3649
       3    H2      18.020917   18.189861   20.374973 H          1 MOL1         0.3649
       4    H3      17.187525   18.434795   21.775470 H          1 MOL1         0.3649
       5    C1      18.512218   20.027389   21.317876 C.3        1 MOL1         0.0207
       6    H4      17.743410   20.574311   20.765317 H          1 MOL1         0.0950
       7    H5      19.454379   20.121824   20.771485 H          1 MOL1         0.0950
       8    C2      18.657286   20.645284   22.723535 C.3        1 MOL1        -0.1415
       9    H6      18.557851   21.734088   22.621279 H          1 MOL1         0.0976
      10    H7      17.818541   20.327317   23.356997 H          1 MOL1         0.0976
      11    C3      20.005485   20.357764   23.437540 C.3        1 MOL1        -0.1375
      12    H8      19.992670   20.899325   24.393601 H          1 MOL1         0.0976
      13    H9      20.834404   20.795114   22.863878 H          1 MOL1         0.0976
      14    C4      20.292349   18.863851   23.736193 C.3        1 MOL1        -0.1375
      15    H10     20.814203   18.794913   24.700898 H          1 MOL1         0.0976
      16    H11     19.350091   18.316298   23.870586 H          1 MOL1         0.0976
      17    C5      21.183131   18.188292   22.665106 C.3        1 MOL1        -0.1350
      18    H12     22.178222   18.655016   22.674980 H          1 MOL1         0.0976
      19    H13     20.783043   18.352143   21.657455 H          1 MOL1         0.0976
      20    C6      21.331480   16.673273   22.919147 C.3        1 MOL1        -0.2365
      21    H14     21.780668   16.481140   23.902348 H          1 MOL1         0.0987
      22    H15     21.977696   16.214500   22.159469 H          1 MOL1         0.0987
      23    H16     20.358675   16.166129   22.884227 H          1 MOL1         0.0987
@<TRIPOS>BOND
    1     1     2    1
    2     1     3    1
    3     1     4    1
    4     1     5    1
    5     5     6    1
    6     5     7    1
    7     5     8    1
    8     8     9    1
    9     8    10    1
   10     8    11    1
   11    11    12    1
   12    11    13    1
   13    11    14    1
   14    14    15    1
   15    14    16    1
   16    14    17    1
   17    17    18    1
   18    17    19    1
   19    17    20    1
   20    20    21    1
   21    20    22    1
   22    20    23    1
@<TRIPOS>SUBSTRUCTURE
       1 MOL1            1 RESIDUE      1      MOL     
@<SCITEGIC>MOL_PROPERTY
VConf Rank
SciTegic.value.IntegerValue
111

@<SCITEGIC>MOL_PROPERTY
Conf_Id
SciTegic.value.IntegerValue
82

@<SCITEGIC>MOL_PROPERTY
Delta U+W
SciTegic.value.DoubleValue
5.994

@<SCITEGIC>MOL_PROPERTY
U+W
SciTegic.value.DoubleValue
-2.388

@<SCITEGIC>MOL_PROPERTY
Grad RMS
SciTegic.value.DoubleValue
0.000000

@<SCITEGIC>MOL_PROPERTY
U
SciTegic.value.DoubleValue
52.836

@<SCITEGIC>MOL_PROPERTY
W
SciTegic.value.DoubleValue
-55.224

@<SCITEGIC>MOL_PROPERTY
W(PB)
SciTegic.value.DoubleValue
-57.261

@<SCITEGIC>MOL_PROPERTY
W(SA)
SciTegic.value.DoubleValue
2.037

@<SCITEGIC>MOL_PROPERTY
Valence
SciTegic.value.DoubleValue
5.785

@<SCITEGIC>MOL_PROPERTY
Coulomb
SciTegic.value.DoubleValue
46.744

@<SCITEGIC>MOL_PROPERTY
VdW
SciTegic.value.DoubleValue
0.307

@<SCITEGIC>MOL_PROPERTY
VdW6
SciTegic.value.DoubleValue
-7.672

@<SCITEGIC>MOL_PROPERTY
VdW12
SciTegic.value.DoubleValue
7.979

@<SCITEGIC>MOL_PROPERTY
Bond
SciTegic.value.DoubleValue
0.217

@<SCITEGIC>MOL_PROPERTY
Angle
SciTegic.value.DoubleValue
1.470

@<SCITEGIC>MOL_PROPERTY
Pdih
SciTegic.value.DoubleValue
4.098

@<SCITEGIC>MOL_PROPERTY
Idih
SciTegic.value.DoubleValue
0.000

@<SCITEGIC>MOL_PROPERTY
Tether
SciTegic.value.DoubleValue
0.000

@<TRIPOS>MOLECULE
guest-2_confgen4.mol2 : confsearch ligand conformer 112
          23          22           1
SMALL
USER_CHARGES
 
@<TRIPOS>ATOM
       1    N1      19.509185   19.849037   24.408318 N.4        1 MOL1        -0.5940
       2    H1      19.612309   19.252635   25.235774 H          1 MOL1         0.3649
       3    H2      19.542679   20.821024   24.734540 H          1 MOL1         0.3649
       4    H3      20.331425   19.695253   23.815910 H          1 MOL1         0.3649
       5    C1      18.225237   19.550779   23.658533 C.3        1 MOL1         0.0207
       6    H4      18.133336   20.254812   22.827258 H          1 MOL1         0.0950
       7    H5      17.400290   19.735273   24.352027 H          1 MOL1         0.0950
       8    C2      18.127232   18.103964   23.133331 C.3        1 MOL1        -0.1415
       9    H6      18.473534   17.404542   23.905831 H          1 MOL1         0.0976
      10    H7      17.064086   17.876108   22.979578 H          1 MOL1         0.0976
      11    C3      18.867908   17.833126   21.796109 C.3        1 MOL1        -0.1375
      12    H8      18.427941   18.441572   20.993805 H          1 MOL1         0.0976
      13    H9      18.668285   16.789541   21.515780 H          1 MOL1         0.0976
      14    C4      20.404622   18.033412   21.836816 C.3        1 MOL1        -0.1375
      15    H10     20.785785   17.838383   22.847956 H          1 MOL1         0.0976
      16    H11     20.872418   17.275117   21.193471 H          1 MOL1         0.0976
      17    C5      20.851312   19.426698   21.330530 C.3        1 MOL1        -0.1350
      18    H12     20.303496   20.227395   21.841475 H          1 MOL1         0.0976
      19    H13     20.601249   19.521777   20.264433 H          1 MOL1         0.0976
      20    C6      22.368188   19.642045   21.516375 C.3        1 MOL1        -0.2365
      21    H14     22.651832   19.586787   22.575271 H          1 MOL1         0.0987
      22    H15     22.668716   20.627953   21.138423 H          1 MOL1         0.0987
      23    H16     22.943373   18.883355   20.969639 H          1 MOL1         0.0987
@<TRIPOS>BOND
    1     1     2    1
    2     1     3    1
    3     1     4    1
    4     1     5    1
    5     5     6    1
    6     5     7    1
    7     5     8    1
    8     8     9    1
    9     8    10    1
   10     8    11    1
   11    11    12    1
   12    11    13    1
   13    11    14    1
   14    14    15    1
   15    14    16    1
   16    14    17    1
   17    17    18    1
   18    17    19    1
   19    17    20    1
   20    20    21    1
   21    20    22    1
   22    20    23    1
@<TRIPOS>SUBSTRUCTURE
       1 MOL1            1 RESIDUE      1      MOL     
@<SCITEGIC>MOL_PROPERTY
VConf Rank
SciTegic.value.IntegerValue
112

@<SCITEGIC>MOL_PROPERTY
Conf_Id
SciTegic.value.IntegerValue
5

@<SCITEGIC>MOL_PROPERTY
Delta U+W
SciTegic.value.DoubleValue
6.087

@<SCITEGIC>MOL_PROPERTY
U+W
SciTegic.value.DoubleValue
-2.295

@<SCITEGIC>MOL_PROPERTY
Grad RMS
SciTegic.value.DoubleValue
0.000000

@<SCITEGIC>MOL_PROPERTY
U
SciTegic.value.DoubleValue
52.836

@<SCITEGIC>MOL_PROPERTY
W
SciTegic.value.DoubleValue
-55.131

@<SCITEGIC>MOL_PROPERTY
W(PB)
SciTegic.value.DoubleValue
-57.202

@<SCITEGIC>MOL_PROPERTY
W(SA)
SciTegic.value.DoubleValue
2.071

@<SCITEGIC>MOL_PROPERTY
Valence
SciTegic.value.DoubleValue
5.785

@<SCITEGIC>MOL_PROPERTY
Coulomb
SciTegic.value.DoubleValue
46.744

@<SCITEGIC>MOL_PROPERTY
VdW
SciTegic.value.DoubleValue
0.307

@<SCITEGIC>MOL_PROPERTY
VdW6
SciTegic.value.DoubleValue
-7.672

@<SCITEGIC>MOL_PROPERTY
VdW12
SciTegic.value.DoubleValue
7.980

@<SCITEGIC>MOL_PROPERTY
Bond
SciTegic.value.DoubleValue
0.217

@<SCITEGIC>MOL_PROPERTY
Angle
SciTegic.value.DoubleValue
1.470

@<SCITEGIC>MOL_PROPERTY
Pdih
SciTegic.value.DoubleValue
4.098

@<SCITEGIC>MOL_PROPERTY
Idih
SciTegic.value.DoubleValue
0.000

@<SCITEGIC>MOL_PROPERTY
Tether
SciTegic.value.DoubleValue
0.000

@<TRIPOS>MOLECULE
guest-2_confgen4.mol2 : confsearch ligand conformer 113
          23          22           1
SMALL
USER_CHARGES
 
@<TRIPOS>ATOM
       1    N1      17.138435   18.320899   19.889753 N.4        1 MOL1        -0.5940
       2    H1      16.415507   17.959956   20.520608 H          1 MOL1         0.3649
       3    H2      17.039653   17.814890   19.003023 H          1 MOL1         0.3649
       4    H3      16.910280   19.302061   19.699621 H          1 MOL1         0.3649
       5    C1      18.527806   18.166237   20.474241 C.3        1 MOL1         0.0207
       6    H4      19.246294   18.541822   19.740616 H          1 MOL1         0.0950
       7    H5      18.714489   17.099227   20.623017 H          1 MOL1         0.0950
       8    C2      18.708942   18.914567   21.806821 C.3        1 MOL1        -0.1415
       9    H6      18.504643   19.983045   21.656099 H          1 MOL1         0.0976
      10    H7      17.974633   18.545607   22.535351 H          1 MOL1         0.0976
      11    C3      20.136283   18.731843   22.368508 C.3        1 MOL1        -0.1375
      12    H8      20.868143   19.097229   21.634564 H          1 MOL1         0.0976
      13    H9      20.338665   17.661334   22.512919 H          1 MOL1         0.0976
      14    C4      20.329439   19.479612   23.707364 C.3        1 MOL1        -0.1375
      15    H10     20.127255   20.550044   23.563103 H          1 MOL1         0.0976
      16    H11     19.597742   19.114367   24.441346 H          1 MOL1         0.0976
      17    C5      21.757010   19.296580   24.268880 C.3        1 MOL1        -0.1350
      18    H12     22.492730   19.662819   23.539114 H          1 MOL1         0.0976
      19    H13     21.963256   18.227277   24.417290 H          1 MOL1         0.0976
      20    C6      21.946098   20.044638   25.605728 C.3        1 MOL1        -0.2365
      21    H14     22.965150   19.902938   25.988478 H          1 MOL1         0.0987
      22    H15     21.246147   19.675939   26.366884 H          1 MOL1         0.0987
      23    H16     21.779731   21.122695   25.481854 H          1 MOL1         0.0987
@<TRIPOS>BOND
    1     1     2    1
    2     1     3    1
    3     1     4    1
    4     1     5    1
    5     5     6    1
    6     5     7    1
    7     5     8    1
    8     8     9    1
    9     8    10    1
   10     8    11    1
   11    11    12    1
   12    11    13    1
   13    11    14    1
   14    14    15    1
   15    14    16    1
   16    14    17    1
   17    17    18    1
   18    17    19    1
   19    17    20    1
   20    20    21    1
   21    20    22    1
   22    20    23    1
@<TRIPOS>SUBSTRUCTURE
       1 MOL1            1 RESIDUE      1      MOL     
@<SCITEGIC>MOL_PROPERTY
VConf Rank
SciTegic.value.IntegerValue
113

@<SCITEGIC>MOL_PROPERTY
Conf_Id
SciTegic.value.IntegerValue
40

@<SCITEGIC>MOL_PROPERTY
Delta U+W
SciTegic.value.DoubleValue
0.000

@<SCITEGIC>MOL_PROPERTY
U+W
SciTegic.value.DoubleValue
-8.382

@<SCITEGIC>MOL_PROPERTY
Grad RMS
SciTegic.value.DoubleValue
0.000000

@<SCITEGIC>MOL_PROPERTY
U
SciTegic.value.DoubleValue
46.604

@<SCITEGIC>MOL_PROPERTY
W
SciTegic.value.DoubleValue
-54.986

@<SCITEGIC>MOL_PROPERTY
W(PB)
SciTegic.value.DoubleValue
-57.162

@<SCITEGIC>MOL_PROPERTY
W(SA)
SciTegic.value.DoubleValue
2.176

@<SCITEGIC>MOL_PROPERTY
Valence
SciTegic.value.DoubleValue
1.727

@<SCITEGIC>MOL_PROPERTY
Coulomb
SciTegic.value.DoubleValue
44.434

@<SCITEGIC>MOL_PROPERTY
VdW
SciTegic.value.DoubleValue
0.443

@<SCITEGIC>MOL_PROPERTY
VdW6
SciTegic.value.DoubleValue
-4.623

@<SCITEGIC>MOL_PROPERTY
VdW12
SciTegic.value.DoubleValue
5.066

@<SCITEGIC>MOL_PROPERTY
Bond
SciTegic.value.DoubleValue
0.112

@<SCITEGIC>MOL_PROPERTY
Angle
SciTegic.value.DoubleValue
0.386

@<SCITEGIC>MOL_PROPERTY
Pdih
SciTegic.value.DoubleValue
1.228

@<SCITEGIC>MOL_PROPERTY
Idih
SciTegic.value.DoubleValue
0.000

@<SCITEGIC>MOL_PROPERTY
Tether
SciTegic.value.DoubleValue
0.000

@<TRIPOS>MOLECULE
guest-2_confgen4.mol2 : confsearch ligand conformer 114
          23          22           1
SMALL
USER_CHARGES
 
@<TRIPOS>ATOM
       1    N1      19.695861   20.394378   19.311707 N.4        1 MOL1        -0.5940
       2    H1      19.637616   21.417001   19.352801 H          1 MOL1         0.3649
       3    H2      18.766033   20.049652   19.052058 H          1 MOL1         0.3649
       4    H3      20.326685   20.162918   18.536777 H          1 MOL1         0.3649
       5    C1      20.172937   19.802101   20.622199 C.3        1 MOL1         0.0207
       6    H4      21.176160   20.188296   20.821717 H          1 MOL1         0.0950
       7    H5      20.240095   18.718659   20.495062 H          1 MOL1         0.0950
       8    C2      19.245443   20.132891   21.806878 C.3        1 MOL1        -0.1415
       9    H6      19.150032   21.223558   21.892255 H          1 MOL1         0.0976
      10    H7      18.237903   19.744152   21.607556 H          1 MOL1         0.0976
      11    C3      19.763944   19.568952   23.151033 C.3        1 MOL1        -0.1375
      12    H8      19.114269   19.942190   23.953266 H          1 MOL1         0.0976
      13    H9      20.768043   19.967196   23.352420 H          1 MOL1         0.0976
      14    C4      19.797930   18.019742   23.187995 C.3        1 MOL1        -0.1375
      15    H10     18.789571   17.622577   23.007180 H          1 MOL1         0.0976
      16    H11     20.428164   17.646449   22.370093 H          1 MOL1         0.0976
      17    C5      20.346877   17.447302   24.517467 C.3        1 MOL1        -0.1350
      18    H12     21.359910   17.833100   24.698357 H          1 MOL1         0.0976
      19    H13     20.447124   16.357528   24.416389 H          1 MOL1         0.0976
      20    C6      19.448448   17.751708   25.737940 C.3        1 MOL1        -0.2365
      21    H14     19.417352   18.825683   25.959000 H          1 MOL1         0.0987
      22    H15     19.830732   17.242813   26.632274 H          1 MOL1         0.0987
      23    H16     18.420863   17.404826   25.568373 H          1 MOL1         0.0987
@<TRIPOS>BOND
    1     1     2    1
    2     1     3    1
    3     1     4    1
    4     1     5    1
    5     5     6    1
    6     5     7    1
    7     5     8    1
    8     8     9    1
    9     8    10    1
   10     8    11    1
   11    11    12    1
   12    11    13    1
   13    11    14    1
   14    14    15    1
   15    14    16    1
   16    14    17    1
   17    17    18    1
   18    17    19    1
   19    17    20    1
   20    20    21    1
   21    20    22    1
   22    20    23    1
@<TRIPOS>SUBSTRUCTURE
       1 MOL1            1 RESIDUE      1      MOL     
@<SCITEGIC>MOL_PROPERTY
VConf Rank
SciTegic.value.IntegerValue
114

@<SCITEGIC>MOL_PROPERTY
Conf_Id
SciTegic.value.IntegerValue
65

@<SCITEGIC>MOL_PROPERTY
Delta U+W
SciTegic.value.DoubleValue
1.004

@<SCITEGIC>MOL_PROPERTY
U+W
SciTegic.value.DoubleValue
-7.378

@<SCITEGIC>MOL_PROPERTY
Grad RMS
SciTegic.value.DoubleValue
0.000000

@<SCITEGIC>MOL_PROPERTY
U
SciTegic.value.DoubleValue
48.047

@<SCITEGIC>MOL_PROPERTY
W
SciTegic.value.DoubleValue
-55.425

@<SCITEGIC>MOL_PROPERTY
W(PB)
SciTegic.value.DoubleValue
-57.542

@<SCITEGIC>MOL_PROPERTY
W(SA)
SciTegic.value.DoubleValue
2.116

@<SCITEGIC>MOL_PROPERTY
Valence
SciTegic.value.DoubleValue
2.583

@<SCITEGIC>MOL_PROPERTY
Coulomb
SciTegic.value.DoubleValue
44.791

@<SCITEGIC>MOL_PROPERTY
VdW
SciTegic.value.DoubleValue
0.673

@<SCITEGIC>MOL_PROPERTY
VdW6
SciTegic.value.DoubleValue
-5.788

@<SCITEGIC>MOL_PROPERTY
VdW12
SciTegic.value.DoubleValue
6.462

@<SCITEGIC>MOL_PROPERTY
Bond
SciTegic.value.DoubleValue
0.177

@<SCITEGIC>MOL_PROPERTY
Angle
SciTegic.value.DoubleValue
0.787

@<SCITEGIC>MOL_PROPERTY
Pdih
SciTegic.value.DoubleValue
1.619

@<SCITEGIC>MOL_PROPERTY
Idih
SciTegic.value.DoubleValue
0.000

@<SCITEGIC>MOL_PROPERTY
Tether
SciTegic.value.DoubleValue
0.000

@<TRIPOS>MOLECULE
guest-2_confgen4.mol2 : confsearch ligand conformer 115
          23          22           1
SMALL
USER_CHARGES
 
@<TRIPOS>ATOM
       1    N1      17.601740   16.177010   22.607936 N.4        1 MOL1        -0.5940
       2    H1      17.117587   16.098671   21.707770 H          1 MOL1         0.3649
       3    H2      16.924157   15.920236   23.333867 H          1 MOL1         0.3649
       4    H3      18.335580   15.461332   22.618833 H          1 MOL1         0.3649
       5    C1      18.163804   17.566676   22.828585 C.3        1 MOL1         0.0207
       6    H4      18.635205   17.584390   23.814479 H          1 MOL1         0.0950
       7    H5      17.328229   18.271799   22.833645 H          1 MOL1         0.0950
       8    C2      19.185568   17.981963   21.753099 C.3        1 MOL1        -0.1415
       9    H6      20.025669   17.274721   21.748373 H          1 MOL1         0.0976
      10    H7      18.711815   17.913453   20.764762 H          1 MOL1         0.0976
      11    C3      19.718003   19.420572   21.954422 C.3        1 MOL1        -0.1375
      12    H8      18.876257   20.126831   21.948857 H          1 MOL1         0.0976
      13    H9      20.346105   19.677933   21.091742 H          1 MOL1         0.0976
      14    C4      20.534706   19.589536   23.260953 C.3        1 MOL1        -0.1375
      15    H10     19.913526   19.308304   24.121505 H          1 MOL1         0.0976
      16    H11     21.388169   18.897581   23.256536 H          1 MOL1         0.0976
      17    C5      21.043245   21.034130   23.486911 C.3        1 MOL1        -0.1350
      18    H12     21.505861   21.092512   24.482125 H          1 MOL1         0.0976
      19    H13     20.192510   21.729685   23.502779 H          1 MOL1         0.0976
      20    C6      22.074456   21.497197   22.432605 C.3        1 MOL1        -0.2365
      21    H14     21.624555   21.577651   21.435422 H          1 MOL1         0.0987
      22    H15     22.919973   20.799575   22.373984 H          1 MOL1         0.0987
      23    H16     22.473168   22.485894   22.694235 H          1 MOL1         0.0987
@<TRIPOS>BOND
    1     1     2    1
    2     1     3    1
    3     1     4    1
    4     1     5    1
    5     5     6    1
    6     5     7    1
    7     5     8    1
    8     8     9    1
    9     8    10    1
   10     8    11    1
   11    11    12    1
   12    11    13    1
   13    11    14    1
   14    14    15    1
   15    14    16    1
   16    14    17    1
   17    17    18    1
   18    17    19    1
   19    17    20    1
   20    20    21    1
   21    20    22    1
   22    20    23    1
@<TRIPOS>SUBSTRUCTURE
       1 MOL1            1 RESIDUE      1      MOL     
@<SCITEGIC>MOL_PROPERTY
VConf Rank
SciTegic.value.IntegerValue
115

@<SCITEGIC>MOL_PROPERTY
Conf_Id
SciTegic.value.IntegerValue
92

@<SCITEGIC>MOL_PROPERTY
Delta U+W
SciTegic.value.DoubleValue
0.973

@<SCITEGIC>MOL_PROPERTY
U+W
SciTegic.value.DoubleValue
-7.409

@<SCITEGIC>MOL_PROPERTY
Grad RMS
SciTegic.value.DoubleValue
0.000000

@<SCITEGIC>MOL_PROPERTY
U
SciTegic.value.DoubleValue
48.047

@<SCITEGIC>MOL_PROPERTY
W
SciTegic.value.DoubleValue
-55.456

@<SCITEGIC>MOL_PROPERTY
W(PB)
SciTegic.value.DoubleValue
-57.595

@<SCITEGIC>MOL_PROPERTY
W(SA)
SciTegic.value.DoubleValue
2.138

@<SCITEGIC>MOL_PROPERTY
Valence
SciTegic.value.DoubleValue
2.583

@<SCITEGIC>MOL_PROPERTY
Coulomb
SciTegic.value.DoubleValue
44.791

@<SCITEGIC>MOL_PROPERTY
VdW
SciTegic.value.DoubleValue
0.674

@<SCITEGIC>MOL_PROPERTY
VdW6
SciTegic.value.DoubleValue
-5.789

@<SCITEGIC>MOL_PROPERTY
VdW12
SciTegic.value.DoubleValue
6.462

@<SCITEGIC>MOL_PROPERTY
Bond
SciTegic.value.DoubleValue
0.177

@<SCITEGIC>MOL_PROPERTY
Angle
SciTegic.value.DoubleValue
0.787

@<SCITEGIC>MOL_PROPERTY
Pdih
SciTegic.value.DoubleValue
1.619

@<SCITEGIC>MOL_PROPERTY
Idih
SciTegic.value.DoubleValue
0.000

@<SCITEGIC>MOL_PROPERTY
Tether
SciTegic.value.DoubleValue
0.000

@<TRIPOS>MOLECULE
guest-2_confgen4.mol2 : confsearch ligand conformer 116
          23          22           1
SMALL
USER_CHARGES
 
@<TRIPOS>ATOM
       1    N1      22.424030   19.724369   20.422318 N.4        1 MOL1        -0.5940
       2    H1      22.360179   20.494646   19.748056 H          1 MOL1         0.3649
       3    H2      22.846057   18.931111   19.928873 H          1 MOL1         0.3649
       4    H3      23.088037   20.016678   21.146535 H          1 MOL1         0.3649
       5    C1      21.070362   19.372420   21.004977 C.3        1 MOL1         0.0207
       6    H4      20.407993   19.099387   20.179060 H          1 MOL1         0.0950
       7    H5      20.669443   20.268236   21.486092 H          1 MOL1         0.0950
       8    C2      21.133090   18.217437   22.022296 C.3        1 MOL1        -0.1415
       9    H6      21.578509   17.337665   21.539027 H          1 MOL1         0.0976
      10    H7      21.799052   18.491422   22.851405 H          1 MOL1         0.0976
      11    C3      19.741386   17.833858   22.578228 C.3        1 MOL1        -0.1375
      12    H8      19.850562   16.949382   23.221061 H          1 MOL1         0.0976
      13    H9      19.085063   17.535614   21.748807 H          1 MOL1         0.0976
      14    C4      19.075232   18.972178   23.388123 C.3        1 MOL1        -0.1375
      15    H10     19.748287   19.290415   24.196294 H          1 MOL1         0.0976
      16    H11     18.915007   19.847266   22.744224 H          1 MOL1         0.0976
      17    C5      17.722078   18.532162   23.989896 C.3        1 MOL1        -0.1350
      18    H12     17.871702   17.661280   24.643454 H          1 MOL1         0.0976
      19    H13     17.044918   18.212031   23.185564 H          1 MOL1         0.0976
      20    C6      17.057979   19.668556   24.796211 C.3        1 MOL1        -0.2365
      21    H14     17.697818   19.987566   25.629317 H          1 MOL1         0.0987
      22    H15     16.099223   19.337112   25.215706 H          1 MOL1         0.0987
      23    H16     16.863389   20.542239   24.160574 H          1 MOL1         0.0987
@<TRIPOS>BOND
    1     1     2    1
    2     1     3    1
    3     1     4    1
    4     1     5    1
    5     5     6    1
    6     5     7    1
    7     5     8    1
    8     8     9    1
    9     8    10    1
   10     8    11    1
   11    11    12    1
   12    11    13    1
   13    11    14    1
   14    14    15    1
   15    14    16    1
   16    14    17    1
   17    17    18    1
   18    17    19    1
   19    17    20    1
   20    20    21    1
   21    20    22    1
   22    20    23    1
@<TRIPOS>SUBSTRUCTURE
       1 MOL1            1 RESIDUE      1      MOL     
@<SCITEGIC>MOL_PROPERTY
VConf Rank
SciTegic.value.IntegerValue
116

@<SCITEGIC>MOL_PROPERTY
Conf_Id
SciTegic.value.IntegerValue
42

@<SCITEGIC>MOL_PROPERTY
Delta U+W
SciTegic.value.DoubleValue
0.365

@<SCITEGIC>MOL_PROPERTY
U+W
SciTegic.value.DoubleValue
-8.017

@<SCITEGIC>MOL_PROPERTY
Grad RMS
SciTegic.value.DoubleValue
0.000000

@<SCITEGIC>MOL_PROPERTY
U
SciTegic.value.DoubleValue
47.375

@<SCITEGIC>MOL_PROPERTY
W
SciTegic.value.DoubleValue
-55.392

@<SCITEGIC>MOL_PROPERTY
W(PB)
SciTegic.value.DoubleValue
-57.543

@<SCITEGIC>MOL_PROPERTY
W(SA)
SciTegic.value.DoubleValue
2.152

@<SCITEGIC>MOL_PROPERTY
Valence
SciTegic.value.DoubleValue
2.032

@<SCITEGIC>MOL_PROPERTY
Coulomb
SciTegic.value.DoubleValue
44.843

@<SCITEGIC>MOL_PROPERTY
VdW
SciTegic.value.DoubleValue
0.499

@<SCITEGIC>MOL_PROPERTY
VdW6
SciTegic.value.DoubleValue
-5.218

@<SCITEGIC>MOL_PROPERTY
VdW12
SciTegic.value.DoubleValue
5.717

@<SCITEGIC>MOL_PROPERTY
Bond
SciTegic.value.DoubleValue
0.135

@<SCITEGIC>MOL_PROPERTY
Angle
SciTegic.value.DoubleValue
0.514

@<SCITEGIC>MOL_PROPERTY
Pdih
SciTegic.value.DoubleValue
1.383

@<SCITEGIC>MOL_PROPERTY
Idih
SciTegic.value.DoubleValue
0.000

@<SCITEGIC>MOL_PROPERTY
Tether
SciTegic.value.DoubleValue
0.000

@<TRIPOS>MOLECULE
guest-2_confgen4.mol2 : confsearch ligand conformer 117
          23          22           1
SMALL
USER_CHARGES
 
@<TRIPOS>ATOM
       1    N1      20.685105   21.648630   21.157035 N.4        1 MOL1        -0.5940
       2    H1      19.958365   22.217655   21.602785 H          1 MOL1         0.3649
       3    H2      21.038467   22.187050   20.358795 H          1 MOL1         0.3649
       4    H3      21.456511   21.564435   21.825798 H          1 MOL1         0.3649
       5    C1      20.157216   20.292288   20.731293 C.3        1 MOL1         0.0207
       6    H4      20.970886   19.748026   20.244322 H          1 MOL1         0.0950
       7    H5      19.370534   20.461980   19.991086 H          1 MOL1         0.0950
       8    C2      19.591478   19.450834   21.891951 C.3        1 MOL1        -0.1415
       9    H6      18.793218   20.010864   22.396725 H          1 MOL1         0.0976
      10    H7      19.130414   18.553493   21.461467 H          1 MOL1         0.0976
      11    C3      20.677633   19.032080   22.912598 C.3        1 MOL1        -0.1375
      12    H8      21.210314   19.924645   23.266025 H          1 MOL1         0.0976
      13    H9      21.428565   18.407636   22.409034 H          1 MOL1         0.0976
      14    C4      20.132167   18.280089   24.154385 C.3        1 MOL1        -0.1375
      15    H10     20.984146   18.078249   24.818372 H          1 MOL1         0.0976
      16    H11     19.460591   18.934408   24.727165 H          1 MOL1         0.0976
      17    C5      19.432249   16.931332   23.845499 C.3        1 MOL1        -0.1350
      18    H12     19.660069   16.225026   24.656179 H          1 MOL1         0.0976
      19    H13     19.848008   16.485177   22.931339 H          1 MOL1         0.0976
      20    C6      17.893978   17.049217   23.735558 C.3        1 MOL1        -0.2365
      21    H14     17.462144   17.423497   24.672837 H          1 MOL1         0.0987
      22    H15     17.447245   16.067307   23.532589 H          1 MOL1         0.0987
      23    H16     17.587953   17.725902   22.930223 H          1 MOL1         0.0987
@<TRIPOS>BOND
    1     1     2    1
    2     1     3    1
    3     1     4    1
    4     1     5    1
    5     5     6    1
    6     5     7    1
    7     5     8    1
    8     8     9    1
    9     8    10    1
   10     8    11    1
   11    11    12    1
   12    11    13    1
   13    11    14    1
   14    14    15    1
   15    14    16    1
   16    14    17    1
   17    17    18    1
   18    17    19    1
   19    17    20    1
   20    20    21    1
   21    20    22    1
   22    20    23    1
@<TRIPOS>SUBSTRUCTURE
       1 MOL1            1 RESIDUE      1      MOL     
@<SCITEGIC>MOL_PROPERTY
VConf Rank
SciTegic.value.IntegerValue
117

@<SCITEGIC>MOL_PROPERTY
Conf_Id
SciTegic.value.IntegerValue
3

@<SCITEGIC>MOL_PROPERTY
Delta U+W
SciTegic.value.DoubleValue
3.283

@<SCITEGIC>MOL_PROPERTY
U+W
SciTegic.value.DoubleValue
-5.099

@<SCITEGIC>MOL_PROPERTY
Grad RMS
SciTegic.value.DoubleValue
0.000000

@<SCITEGIC>MOL_PROPERTY
U
SciTegic.value.DoubleValue
50.701

@<SCITEGIC>MOL_PROPERTY
W
SciTegic.value.DoubleValue
-55.800

@<SCITEGIC>MOL_PROPERTY
W(PB)
SciTegic.value.DoubleValue
-57.867

@<SCITEGIC>MOL_PROPERTY
W(SA)
SciTegic.value.DoubleValue
2.067

@<SCITEGIC>MOL_PROPERTY
Valence
SciTegic.value.DoubleValue
4.880

@<SCITEGIC>MOL_PROPERTY
Coulomb
SciTegic.value.DoubleValue
45.095

@<SCITEGIC>MOL_PROPERTY
VdW
SciTegic.value.DoubleValue
0.726

@<SCITEGIC>MOL_PROPERTY
VdW6
SciTegic.value.DoubleValue
-6.620

@<SCITEGIC>MOL_PROPERTY
VdW12
SciTegic.value.DoubleValue
7.346

@<SCITEGIC>MOL_PROPERTY
Bond
SciTegic.value.DoubleValue
0.222

@<SCITEGIC>MOL_PROPERTY
Angle
SciTegic.value.DoubleValue
1.260

@<SCITEGIC>MOL_PROPERTY
Pdih
SciTegic.value.DoubleValue
3.398

@<SCITEGIC>MOL_PROPERTY
Idih
SciTegic.value.DoubleValue
0.000

@<SCITEGIC>MOL_PROPERTY
Tether
SciTegic.value.DoubleValue
0.000

@<TRIPOS>MOLECULE
guest-2_confgen4.mol2 : confsearch ligand conformer 118
          23          22           1
SMALL
USER_CHARGES
 
@<TRIPOS>ATOM
       1    N1      21.340125   20.487601   20.570213 N.4        1 MOL1        -0.5940
       2    H1      20.854788   20.580552   19.672236 H          1 MOL1         0.3649
       3    H2      22.233862   20.982508   20.480015 H          1 MOL1         0.3649
       4    H3      20.785742   20.992452   21.268343 H          1 MOL1         0.3649
       5    C1      21.536955   19.034804   20.956130 C.3        1 MOL1         0.0207
       6    H4      22.084195   19.006182   21.901751 H          1 MOL1         0.0950
       7    H5      22.162059   18.568819   20.189560 H          1 MOL1         0.0950
       8    C2      20.218955   18.244772   21.090304 C.3        1 MOL1        -0.1415
       9    H6      19.705339   18.238446   20.119756 H          1 MOL1         0.0976
      10    H7      20.457718   17.197005   21.316216 H          1 MOL1         0.0976
      11    C3      19.256786   18.794019   22.173911 C.3        1 MOL1        -0.1375
      12    H8      18.341995   18.187663   22.154816 H          1 MOL1         0.0976
      13    H9      18.950575   19.817103   21.918407 H          1 MOL1         0.0976
      14    C4      19.865197   18.768969   23.599266 C.3        1 MOL1        -0.1375
      15    H10     20.145596   17.740176   23.864083 H          1 MOL1         0.0976
      16    H11     20.793286   19.355317   23.613500 H          1 MOL1         0.0976
      17    C5      18.919270   19.341057   24.682957 C.3        1 MOL1        -0.1350
      18    H12     18.643986   20.374210   24.428914 H          1 MOL1         0.0976
      19    H13     19.466456   19.394556   25.634581 H          1 MOL1         0.0976
      20    C6      17.640451   18.498504   24.892892 C.3        1 MOL1        -0.2365
      21    H14     17.888608   17.452644   25.115606 H          1 MOL1         0.0987
      22    H15     16.993773   18.517914   24.007072 H          1 MOL1         0.0987
      23    H16     17.056243   18.891094   25.735215 H          1 MOL1         0.0987
@<TRIPOS>BOND
    1     1     2    1
    2     1     3    1
    3     1     4    1
    4     1     5    1
    5     5     6    1
    6     5     7    1
    7     5     8    1
    8     8     9    1
    9     8    10    1
   10     8    11    1
   11    11    12    1
   12    11    13    1
   13    11    14    1
   14    14    15    1
   15    14    16    1
   16    14    17    1
   17    17    18    1
   18    17    19    1
   19    17    20    1
   20    20    21    1
   21    20    22    1
   22    20    23    1
@<TRIPOS>SUBSTRUCTURE
       1 MOL1            1 RESIDUE      1      MOL     
@<SCITEGIC>MOL_PROPERTY
VConf Rank
SciTegic.value.IntegerValue
118

@<SCITEGIC>MOL_PROPERTY
Conf_Id
SciTegic.value.IntegerValue
83

@<SCITEGIC>MOL_PROPERTY
Delta U+W
SciTegic.value.DoubleValue
1.229

@<SCITEGIC>MOL_PROPERTY
U+W
SciTegic.value.DoubleValue
-7.154

@<SCITEGIC>MOL_PROPERTY
Grad RMS
SciTegic.value.DoubleValue
0.000000

@<SCITEGIC>MOL_PROPERTY
U
SciTegic.value.DoubleValue
48.727

@<SCITEGIC>MOL_PROPERTY
W
SciTegic.value.DoubleValue
-55.880

@<SCITEGIC>MOL_PROPERTY
W(PB)
SciTegic.value.DoubleValue
-57.960

@<SCITEGIC>MOL_PROPERTY
W(SA)
SciTegic.value.DoubleValue
2.080

@<SCITEGIC>MOL_PROPERTY
Valence
SciTegic.value.DoubleValue
2.671

@<SCITEGIC>MOL_PROPERTY
Coulomb
SciTegic.value.DoubleValue
45.371

@<SCITEGIC>MOL_PROPERTY
VdW
SciTegic.value.DoubleValue
0.684

@<SCITEGIC>MOL_PROPERTY
VdW6
SciTegic.value.DoubleValue
-6.511

@<SCITEGIC>MOL_PROPERTY
VdW12
SciTegic.value.DoubleValue
7.195

@<SCITEGIC>MOL_PROPERTY
Bond
SciTegic.value.DoubleValue
0.203

@<SCITEGIC>MOL_PROPERTY
Angle
SciTegic.value.DoubleValue
0.915

@<SCITEGIC>MOL_PROPERTY
Pdih
SciTegic.value.DoubleValue
1.554

@<SCITEGIC>MOL_PROPERTY
Idih
SciTegic.value.DoubleValue
0.000

@<SCITEGIC>MOL_PROPERTY
Tether
SciTegic.value.DoubleValue
0.000

@<TRIPOS>MOLECULE
guest-2_confgen4.mol2 : confsearch ligand conformer 119
          23          22           1
SMALL
USER_CHARGES
 
@<TRIPOS>ATOM
       1    N1      18.064567   19.351867   20.206484 N.4        1 MOL1        -0.5940
       2    H1      18.382473   20.102835   19.585569 H          1 MOL1         0.3649
       3    H2      17.802888   19.785108   21.097230 H          1 MOL1         0.3649
       4    H3      17.207487   18.966534   19.795670 H          1 MOL1         0.3649
       5    C1      19.127893   18.287533   20.393097 C.3        1 MOL1         0.0207
       6    H4      19.332248   17.846269   19.413785 H          1 MOL1         0.0950
       7    H5      18.716216   17.505947   21.036632 H          1 MOL1         0.0950
       8    C2      20.442508   18.823367   20.996378 C.3        1 MOL1        -0.1415
       9    H6      21.168904   18.001236   21.044419 H          1 MOL1         0.0976
      10    H7      20.870897   19.569820   20.314401 H          1 MOL1         0.0976
      11    C3      20.285995   19.449085   22.405502 C.3        1 MOL1        -0.1375
      12    H8      19.619742   20.320518   22.355915 H          1 MOL1         0.0976
      13    H9      21.266236   19.831494   22.718179 H          1 MOL1         0.0976
      14    C4      19.759836   18.445902   23.463430 C.3        1 MOL1        -0.1375
      15    H10     18.790595   18.044460   23.139748 H          1 MOL1         0.0976
      16    H11     20.442508   17.587717   23.531597 H          1 MOL1         0.0976
      17    C5      19.575642   19.071406   24.867446 C.3        1 MOL1        -0.1350
      18    H12     19.093285   18.331501   25.521461 H          1 MOL1         0.0976
      19    H13     18.884985   19.924110   24.807308 H          1 MOL1         0.0976
      20    C6      20.902055   19.521310   25.521325 C.3        1 MOL1        -0.2365
      21    H14     21.622413   18.694055   25.563062 H          1 MOL1         0.0987
      22    H15     20.726152   19.864791   26.548950 H          1 MOL1         0.0987
      23    H16     21.362412   20.351453   24.971618 H          1 MOL1         0.0987
@<TRIPOS>BOND
    1     1     2    1
    2     1     3    1
    3     1     4    1
    4     1     5    1
    5     5     6    1
    6     5     7    1
    7     5     8    1
    8     8     9    1
    9     8    10    1
   10     8    11    1
   11    11    12    1
   12    11    13    1
   13    11    14    1
   14    14    15    1
   15    14    16    1
   16    14    17    1
   17    17    18    1
   18    17    19    1
   19    17    20    1
   20    20    21    1
   21    20    22    1
   22    20    23    1
@<TRIPOS>SUBSTRUCTURE
       1 MOL1            1 RESIDUE      1      MOL     
@<SCITEGIC>MOL_PROPERTY
VConf Rank
SciTegic.value.IntegerValue
119

@<SCITEGIC>MOL_PROPERTY
Conf_Id
SciTegic.value.IntegerValue
50

@<SCITEGIC>MOL_PROPERTY
Delta U+W
SciTegic.value.DoubleValue
1.252

@<SCITEGIC>MOL_PROPERTY
U+W
SciTegic.value.DoubleValue
-7.130

@<SCITEGIC>MOL_PROPERTY
Grad RMS
SciTegic.value.DoubleValue
0.000000

@<SCITEGIC>MOL_PROPERTY
U
SciTegic.value.DoubleValue
48.727

@<SCITEGIC>MOL_PROPERTY
W
SciTegic.value.DoubleValue
-55.857

@<SCITEGIC>MOL_PROPERTY
W(PB)
SciTegic.value.DoubleValue
-57.937

@<SCITEGIC>MOL_PROPERTY
W(SA)
SciTegic.value.DoubleValue
2.080

@<SCITEGIC>MOL_PROPERTY
Valence
SciTegic.value.DoubleValue
2.671

@<SCITEGIC>MOL_PROPERTY
Coulomb
SciTegic.value.DoubleValue
45.371

@<SCITEGIC>MOL_PROPERTY
VdW
SciTegic.value.DoubleValue
0.684

@<SCITEGIC>MOL_PROPERTY
VdW6
SciTegic.value.DoubleValue
-6.511

@<SCITEGIC>MOL_PROPERTY
VdW12
SciTegic.value.DoubleValue
7.196

@<SCITEGIC>MOL_PROPERTY
Bond
SciTegic.value.DoubleValue
0.203

@<SCITEGIC>MOL_PROPERTY
Angle
SciTegic.value.DoubleValue
0.915

@<SCITEGIC>MOL_PROPERTY
Pdih
SciTegic.value.DoubleValue
1.554

@<SCITEGIC>MOL_PROPERTY
Idih
SciTegic.value.DoubleValue
0.000

@<SCITEGIC>MOL_PROPERTY
Tether
SciTegic.value.DoubleValue
0.000

@<TRIPOS>MOLECULE
guest-2_confgen4.mol2 : confsearch ligand conformer 120
          23          22           1
SMALL
USER_CHARGES
 
@<TRIPOS>ATOM
       1    N1      18.014810   16.580890   21.706081 N.4        1 MOL1        -0.5940
       2    H1      18.949866   16.315039   21.382777 H          1 MOL1         0.3649
       3    H2      17.345574   16.215423   21.020162 H          1 MOL1         0.3649
       4    H3      17.844494   16.081613   22.584910 H          1 MOL1         0.3649
       5    C1      17.883581   18.081964   21.875778 C.3        1 MOL1         0.0207
       6    H4      16.854738   18.292180   22.180516 H          1 MOL1         0.0950
       7    H5      18.052467   18.549634   20.902035 H          1 MOL1         0.0950
       8    C2      18.855089   18.678477   22.912650 C.3        1 MOL1        -0.1415
       9    H6      18.609402   19.738430   23.042266 H          1 MOL1         0.0976
      10    H7      18.685143   18.202098   23.887303 H          1 MOL1         0.0976
      11    C3      20.340690   18.518372   22.500299 C.3        1 MOL1        -0.1375
      12    H8      20.500046   18.907707   21.485223 H          1 MOL1         0.0976
      13    H9      20.576758   17.446782   22.456085 H          1 MOL1         0.0976
      14    C4      21.329367   19.190660   23.488556 C.3        1 MOL1        -0.1375
      15    H10     20.908625   19.198297   24.503500 H          1 MOL1         0.0976
      16    H11     22.231808   18.566476   23.547609 H          1 MOL1         0.0976
      17    C5      21.777172   20.619205   23.086141 C.3        1 MOL1        -0.1350
      18    H12     22.288324   20.584741   22.113871 H          1 MOL1         0.0976
      19    H13     22.526583   20.966645   23.811043 H          1 MOL1         0.0976
      20    C6      20.631123   21.652617   23.025629 C.3        1 MOL1        -0.2365
      21    H14     20.062702   21.669491   23.964484 H          1 MOL1         0.0987
      22    H15     19.940579   21.434373   22.201741 H          1 MOL1         0.0987
      23    H16     21.032299   22.660532   22.858137 H          1 MOL1         0.0987
@<TRIPOS>BOND
    1     1     2    1
    2     1     3    1
    3     1     4    1
    4     1     5    1
    5     5     6    1
    6     5     7    1
    7     5     8    1
    8     8     9    1
    9     8    10    1
   10     8    11    1
   11    11    12    1
   12    11    13    1
   13    11    14    1
   14    14    15    1
   15    14    16    1
   16    14    17    1
   17    17    18    1
   18    17    19    1
   19    17    20    1
   20    20    21    1
   21    20    22    1
   22    20    23    1
@<TRIPOS>SUBSTRUCTURE
       1 MOL1            1 RESIDUE      1      MOL     
@<SCITEGIC>MOL_PROPERTY
VConf Rank
SciTegic.value.IntegerValue
120

@<SCITEGIC>MOL_PROPERTY
Conf_Id
SciTegic.value.IntegerValue
55

@<SCITEGIC>MOL_PROPERTY
Delta U+W
SciTegic.value.DoubleValue
3.232

@<SCITEGIC>MOL_PROPERTY
U+W
SciTegic.value.DoubleValue
-5.150

@<SCITEGIC>MOL_PROPERTY
Grad RMS
SciTegic.value.DoubleValue
0.000000

@<SCITEGIC>MOL_PROPERTY
U
SciTegic.value.DoubleValue
50.625

@<SCITEGIC>MOL_PROPERTY
W
SciTegic.value.DoubleValue
-55.776

@<SCITEGIC>MOL_PROPERTY
W(PB)
SciTegic.value.DoubleValue
-57.839

@<SCITEGIC>MOL_PROPERTY
W(SA)
SciTegic.value.DoubleValue
2.064

@<SCITEGIC>MOL_PROPERTY
Valence
SciTegic.value.DoubleValue
4.837

@<SCITEGIC>MOL_PROPERTY
Coulomb
SciTegic.value.DoubleValue
45.097

@<SCITEGIC>MOL_PROPERTY
VdW
SciTegic.value.DoubleValue
0.692

@<SCITEGIC>MOL_PROPERTY
VdW6
SciTegic.value.DoubleValue
-6.655

@<SCITEGIC>MOL_PROPERTY
VdW12
SciTegic.value.DoubleValue
7.347

@<SCITEGIC>MOL_PROPERTY
Bond
SciTegic.value.DoubleValue
0.223

@<SCITEGIC>MOL_PROPERTY
Angle
SciTegic.value.DoubleValue
1.167

@<SCITEGIC>MOL_PROPERTY
Pdih
SciTegic.value.DoubleValue
3.447

@<SCITEGIC>MOL_PROPERTY
Idih
SciTegic.value.DoubleValue
0.000

@<SCITEGIC>MOL_PROPERTY
Tether
SciTegic.value.DoubleValue
0.000

@<TRIPOS>MOLECULE
guest-2_confgen4.mol2 : confsearch ligand conformer 121
          23          22           1
SMALL
USER_CHARGES
 
@<TRIPOS>ATOM
       1    N1      16.902080   18.553305   21.628688 N.4        1 MOL1        -0.5940
       2    H1      16.389253   17.690545   21.837211 H          1 MOL1         0.3649
       3    H2      16.604611   18.858213   20.695660 H          1 MOL1         0.3649
       4    H3      16.577919   19.264303   22.292133 H          1 MOL1         0.3649
       5    C1      18.401823   18.351348   21.703724 C.3        1 MOL1         0.0207
       6    H4      18.879133   19.295721   21.435999 H          1 MOL1         0.0950
       7    H5      18.678293   17.605356   20.953750 H          1 MOL1         0.0950
       8    C2      18.878158   17.885726   23.093719 C.3        1 MOL1        -0.1415
       9    H6      18.566730   18.603080   23.864614 H          1 MOL1         0.0976
      10    H7      18.371616   16.939866   23.327776 H          1 MOL1         0.0976
      11    C3      20.408964   17.656002   23.166678 C.3        1 MOL1        -0.1375
      12    H8      20.769630   17.220926   22.224217 H          1 MOL1         0.0976
      13    H9      20.604033   16.897503   23.937473 H          1 MOL1         0.0976
      14    C4      21.242872   18.913046   23.527110 C.3        1 MOL1        -0.1375
      15    H10     20.944544   19.277866   24.519683 H          1 MOL1         0.0976
      16    H11     22.295206   18.610137   23.618107 H          1 MOL1         0.0976
      17    C5      21.141386   20.068312   22.504582 C.3        1 MOL1        -0.1350
      18    H12     20.127467   20.488760   22.514894 H          1 MOL1         0.0976
      19    H13     21.326689   19.687536   21.490506 H          1 MOL1         0.0976
      20    C6      22.146454   21.196827   22.819182 C.3        1 MOL1        -0.2365
      21    H14     23.179816   20.828166   22.780871 H          1 MOL1         0.0987
      22    H15     21.969533   21.615409   23.818551 H          1 MOL1         0.0987
      23    H16     22.053428   22.012835   22.090822 H          1 MOL1         0.0987
@<TRIPOS>BOND
    1     1     2    1
    2     1     3    1
    3     1     4    1
    4     1     5    1
    5     5     6    1
    6     5     7    1
    7     5     8    1
    8     8     9    1
    9     8    10    1
   10     8    11    1
   11    11    12    1
   12    11    13    1
   13    11    14    1
   14    14    15    1
   15    14    16    1
   16    14    17    1
   17    17    18    1
   18    17    19    1
   19    17    20    1
   20    20    21    1
   21    20    22    1
   22    20    23    1
@<TRIPOS>SUBSTRUCTURE
       1 MOL1            1 RESIDUE      1      MOL     
@<SCITEGIC>MOL_PROPERTY
VConf Rank
SciTegic.value.IntegerValue
121

@<SCITEGIC>MOL_PROPERTY
Conf_Id
SciTegic.value.IntegerValue
93

@<SCITEGIC>MOL_PROPERTY
Delta U+W
SciTegic.value.DoubleValue
2.589

@<SCITEGIC>MOL_PROPERTY
U+W
SciTegic.value.DoubleValue
-5.793

@<SCITEGIC>MOL_PROPERTY
Grad RMS
SciTegic.value.DoubleValue
0.000000

@<SCITEGIC>MOL_PROPERTY
U
SciTegic.value.DoubleValue
50.122

@<SCITEGIC>MOL_PROPERTY
W
SciTegic.value.DoubleValue
-55.915

@<SCITEGIC>MOL_PROPERTY
W(PB)
SciTegic.value.DoubleValue
-58.031

@<SCITEGIC>MOL_PROPERTY
W(SA)
SciTegic.value.DoubleValue
2.115

@<SCITEGIC>MOL_PROPERTY
Valence
SciTegic.value.DoubleValue
4.132

@<SCITEGIC>MOL_PROPERTY
Coulomb
SciTegic.value.DoubleValue
45.536

@<SCITEGIC>MOL_PROPERTY
VdW
SciTegic.value.DoubleValue
0.454

@<SCITEGIC>MOL_PROPERTY
VdW6
SciTegic.value.DoubleValue
-6.262

@<SCITEGIC>MOL_PROPERTY
VdW12
SciTegic.value.DoubleValue
6.715

@<SCITEGIC>MOL_PROPERTY
Bond
SciTegic.value.DoubleValue
0.182

@<SCITEGIC>MOL_PROPERTY
Angle
SciTegic.value.DoubleValue
1.157

@<SCITEGIC>MOL_PROPERTY
Pdih
SciTegic.value.DoubleValue
2.794

@<SCITEGIC>MOL_PROPERTY
Idih
SciTegic.value.DoubleValue
0.000

@<SCITEGIC>MOL_PROPERTY
Tether
SciTegic.value.DoubleValue
0.000

@<TRIPOS>MOLECULE
guest-2_confgen4.mol2 : confsearch ligand conformer 122
          23          22           1
SMALL
USER_CHARGES
 
@<TRIPOS>ATOM
       1    N1      22.400388   20.536889   22.941161 N.4        1 MOL1        -0.5940
       2    H1      22.713903   19.834837   23.619089 H          1 MOL1         0.3649
       3    H2      22.419193   21.443558   23.420323 H          1 MOL1         0.3649
       4    H3      23.107724   20.577273   22.200302 H          1 MOL1         0.3649
       5    C1      21.024617   20.218415   22.392092 C.3        1 MOL1         0.0207
       6    H4      20.744598   21.019110   21.702254 H          1 MOL1         0.0950
       7    H5      20.321985   20.227977   23.227291 H          1 MOL1         0.0950
       8    C2      20.967223   18.863507   21.659481 C.3        1 MOL1        -0.1415
       9    H6      21.690684   18.892244   20.833771 H          1 MOL1         0.0976
      10    H7      21.290925   18.053960   22.327099 H          1 MOL1         0.0976
      11    C3      19.566857   18.545956   21.076730 C.3        1 MOL1        -0.1375
      12    H8      19.700612   17.892469   20.203481 H          1 MOL1         0.0976
      13    H9      19.102295   19.464393   20.691686 H          1 MOL1         0.0976
      14    C4      18.599149   17.827992   22.053225 C.3        1 MOL1        -0.1375
      15    H10     17.674287   17.594847   21.507594 H          1 MOL1         0.0976
      16    H11     19.029122   16.861325   22.349823 H          1 MOL1         0.0976
      17    C5      18.241864   18.640177   23.319402 C.3        1 MOL1        -0.1350
      18    H12     17.918350   19.651485   23.036079 H          1 MOL1         0.0976
      19    H13     19.128842   18.748119   23.957002 H          1 MOL1         0.0976
      20    C6      17.126162   17.956456   24.138191 C.3        1 MOL1        -0.2365
      21    H14     16.892858   18.540018   25.038222 H          1 MOL1         0.0987
      22    H15     17.430899   16.951382   24.457895 H          1 MOL1         0.0987
      23    H16     16.204161   17.863213   23.549605 H          1 MOL1         0.0987
@<TRIPOS>BOND
    1     1     2    1
    2     1     3    1
    3     1     4    1
    4     1     5    1
    5     5     6    1
    6     5     7    1
    7     5     8    1
    8     8     9    1
    9     8    10    1
   10     8    11    1
   11    11    12    1
   12    11    13    1
   13    11    14    1
   14    14    15    1
   15    14    16    1
   16    14    17    1
   17    17    18    1
   18    17    19    1
   19    17    20    1
   20    20    21    1
   21    20    22    1
   22    20    23    1
@<TRIPOS>SUBSTRUCTURE
       1 MOL1            1 RESIDUE      1      MOL     
@<SCITEGIC>MOL_PROPERTY
VConf Rank
SciTegic.value.IntegerValue
122

@<SCITEGIC>MOL_PROPERTY
Conf_Id
SciTegic.value.IntegerValue
70

@<SCITEGIC>MOL_PROPERTY
Delta U+W
SciTegic.value.DoubleValue
2.599

@<SCITEGIC>MOL_PROPERTY
U+W
SciTegic.value.DoubleValue
-5.783

@<SCITEGIC>MOL_PROPERTY
Grad RMS
SciTegic.value.DoubleValue
0.000000

@<SCITEGIC>MOL_PROPERTY
U
SciTegic.value.DoubleValue
50.122

@<SCITEGIC>MOL_PROPERTY
W
SciTegic.value.DoubleValue
-55.906

@<SCITEGIC>MOL_PROPERTY
W(PB)
SciTegic.value.DoubleValue
-58.010

@<SCITEGIC>MOL_PROPERTY
W(SA)
SciTegic.value.DoubleValue
2.105

@<SCITEGIC>MOL_PROPERTY
Valence
SciTegic.value.DoubleValue
4.132

@<SCITEGIC>MOL_PROPERTY
Coulomb
SciTegic.value.DoubleValue
45.536

@<SCITEGIC>MOL_PROPERTY
VdW
SciTegic.value.DoubleValue
0.454

@<SCITEGIC>MOL_PROPERTY
VdW6
SciTegic.value.DoubleValue
-6.262

@<SCITEGIC>MOL_PROPERTY
VdW12
SciTegic.value.DoubleValue
6.715

@<SCITEGIC>MOL_PROPERTY
Bond
SciTegic.value.DoubleValue
0.182

@<SCITEGIC>MOL_PROPERTY
Angle
SciTegic.value.DoubleValue
1.157

@<SCITEGIC>MOL_PROPERTY
Pdih
SciTegic.value.DoubleValue
2.794

@<SCITEGIC>MOL_PROPERTY
Idih
SciTegic.value.DoubleValue
0.000

@<SCITEGIC>MOL_PROPERTY
Tether
SciTegic.value.DoubleValue
0.000

@<TRIPOS>MOLECULE
guest-2_confgen4.mol2 : confsearch ligand conformer 123
          23          22           1
SMALL
USER_CHARGES
 
@<TRIPOS>ATOM
       1    N1      22.596029   19.231679   23.110904 N.4        1 MOL1        -0.5940
       2    H1      23.283818   18.486665   22.961213 H          1 MOL1         0.3649
       3    H2      23.061522   19.963101   23.658719 H          1 MOL1         0.3649
       4    H3      22.380294   19.633458   22.193572 H          1 MOL1         0.3649
       5    C1      21.349604   18.716090   23.802878 C.3        1 MOL1         0.0207
       6    H4      20.675152   19.561482   23.962160 H          1 MOL1         0.0950
       7    H5      21.647444   18.330189   24.781585 H          1 MOL1         0.0950
       8    C2      20.619279   17.609032   23.016220 C.3        1 MOL1        -0.1415
       9    H6      21.294272   16.751862   22.892293 H          1 MOL1         0.0976
      10    H7      19.778449   17.242303   23.618658 H          1 MOL1         0.0976
      11    C3      20.106362   18.059422   21.622997 C.3        1 MOL1        -0.1375
      12    H8      19.567964   17.222835   21.156680 H          1 MOL1         0.0976
      13    H9      20.965246   18.260448   20.968673 H          1 MOL1         0.0976
      14    C4      19.186040   19.307452   21.638088 C.3        1 MOL1        -0.1375
      15    H10     19.738434   20.178737   22.014405 H          1 MOL1         0.0976
      16    H11     18.911960   19.547933   20.601561 H          1 MOL1         0.0976
      17    C5      17.894210   19.112640   22.466409 C.3        1 MOL1        -0.1350
      18    H12     18.143314   18.941037   23.522079 H          1 MOL1         0.0976
      19    H13     17.359777   18.218795   22.115502 H          1 MOL1         0.0976
      20    C6      16.962555   20.339051   22.364832 C.3        1 MOL1        -0.2365
      21    H14     16.052988   20.185191   22.959835 H          1 MOL1         0.0987
      22    H15     16.658320   20.519220   21.325518 H          1 MOL1         0.0987
      23    H16     17.459782   21.244132   22.737387 H          1 MOL1         0.0987
@<TRIPOS>BOND
    1     1     2    1
    2     1     3    1
    3     1     4    1
    4     1     5    1
    5     5     6    1
    6     5     7    1
    7     5     8    1
    8     8     9    1
    9     8    10    1
   10     8    11    1
   11    11    12    1
   12    11    13    1
   13    11    14    1
   14    14    15    1
   15    14    16    1
   16    14    17    1
   17    17    18    1
   18    17    19    1
   19    17    20    1
   20    20    21    1
   21    20    22    1
   22    20    23    1
@<TRIPOS>SUBSTRUCTURE
       1 MOL1            1 RESIDUE      1      MOL     
@<SCITEGIC>MOL_PROPERTY
VConf Rank
SciTegic.value.IntegerValue
123

@<SCITEGIC>MOL_PROPERTY
Conf_Id
SciTegic.value.IntegerValue
72

@<SCITEGIC>MOL_PROPERTY
Delta U+W
SciTegic.value.DoubleValue
1.051

@<SCITEGIC>MOL_PROPERTY
U+W
SciTegic.value.DoubleValue
-7.331

@<SCITEGIC>MOL_PROPERTY
Grad RMS
SciTegic.value.DoubleValue
0.000000

@<SCITEGIC>MOL_PROPERTY
U
SciTegic.value.DoubleValue
48.590

@<SCITEGIC>MOL_PROPERTY
W
SciTegic.value.DoubleValue
-55.922

@<SCITEGIC>MOL_PROPERTY
W(PB)
SciTegic.value.DoubleValue
-58.012

@<SCITEGIC>MOL_PROPERTY
W(SA)
SciTegic.value.DoubleValue
2.090

@<SCITEGIC>MOL_PROPERTY
Valence
SciTegic.value.DoubleValue
2.601

@<SCITEGIC>MOL_PROPERTY
Coulomb
SciTegic.value.DoubleValue
45.520

@<SCITEGIC>MOL_PROPERTY
VdW
SciTegic.value.DoubleValue
0.469

@<SCITEGIC>MOL_PROPERTY
VdW6
SciTegic.value.DoubleValue
-6.867

@<SCITEGIC>MOL_PROPERTY
VdW12
SciTegic.value.DoubleValue
7.336

@<SCITEGIC>MOL_PROPERTY
Bond
SciTegic.value.DoubleValue
0.205

@<SCITEGIC>MOL_PROPERTY
Angle
SciTegic.value.DoubleValue
0.962

@<SCITEGIC>MOL_PROPERTY
Pdih
SciTegic.value.DoubleValue
1.434

@<SCITEGIC>MOL_PROPERTY
Idih
SciTegic.value.DoubleValue
0.000

@<SCITEGIC>MOL_PROPERTY
Tether
SciTegic.value.DoubleValue
0.000

@<TRIPOS>MOLECULE
guest-2_confgen4.mol2 : confsearch ligand conformer 124
          23          22           1
SMALL
USER_CHARGES
 
@<TRIPOS>ATOM
       1    N1      17.495252   17.529602   24.246992 N.4        1 MOL1        -0.5940
       2    H1      16.486128   17.476737   24.071404 H          1 MOL1         0.3649
       3    H2      17.619922   17.543845   25.264360 H          1 MOL1         0.3649
       4    H3      17.903610   16.653723   23.905316 H          1 MOL1         0.3649
       5    C1      18.119086   18.740999   23.584430 C.3        1 MOL1         0.0207
       6    H4      17.619496   19.632998   23.971856 H          1 MOL1         0.0950
       7    H5      17.922701   18.675251   22.511097 H          1 MOL1         0.0950
       8    C2      19.635721   18.849396   23.829147 C.3        1 MOL1        -0.1415
       9    H6      19.824052   18.877063   24.910579 H          1 MOL1         0.0976
      10    H7      20.136839   17.948682   23.452283 H          1 MOL1         0.0976
      11    C3      20.256953   20.111609   23.181111 C.3        1 MOL1        -0.1375
      12    H8      21.330529   20.141399   23.410230 H          1 MOL1         0.0976
      13    H9      19.827829   21.003241   23.658769 H          1 MOL1         0.0976
      14    C4      20.050554   20.224766   21.646394 C.3        1 MOL1        -0.1375
      15    H10     18.982291   20.361609   21.431011 H          1 MOL1         0.0976
      16    H11     20.542058   21.141815   21.293387 H          1 MOL1         0.0976
      17    C5      20.578873   19.024863   20.819756 C.3        1 MOL1        -0.1350
      18    H12     20.366805   19.210992   19.757647 H          1 MOL1         0.0976
      19    H13     20.027354   18.111669   21.080567 H          1 MOL1         0.0976
      20    C6      22.096131   18.784552   20.989148 C.3        1 MOL1        -0.2365
      21    H14     22.668251   19.689185   20.745719 H          1 MOL1         0.0987
      22    H15     22.435534   17.982550   20.320985 H          1 MOL1         0.0987
      23    H16     22.344195   18.486797   22.015484 H          1 MOL1         0.0987
@<TRIPOS>BOND
    1     1     2    1
    2     1     3    1
    3     1     4    1
    4     1     5    1
    5     5     6    1
    6     5     7    1
    7     5     8    1
    8     8     9    1
    9     8    10    1
   10     8    11    1
   11    11    12    1
   12    11    13    1
   13    11    14    1
   14    14    15    1
   15    14    16    1
   16    14    17    1
   17    17    18    1
   18    17    19    1
   19    17    20    1
   20    20    21    1
   21    20    22    1
   22    20    23    1
@<TRIPOS>SUBSTRUCTURE
       1 MOL1            1 RESIDUE      1      MOL     
@<SCITEGIC>MOL_PROPERTY
VConf Rank
SciTegic.value.IntegerValue
124

@<SCITEGIC>MOL_PROPERTY
Conf_Id
SciTegic.value.IntegerValue
26

@<SCITEGIC>MOL_PROPERTY
Delta U+W
SciTegic.value.DoubleValue
1.076

@<SCITEGIC>MOL_PROPERTY
U+W
SciTegic.value.DoubleValue
-7.306

@<SCITEGIC>MOL_PROPERTY
Grad RMS
SciTegic.value.DoubleValue
0.000000

@<SCITEGIC>MOL_PROPERTY
U
SciTegic.value.DoubleValue
48.641

@<SCITEGIC>MOL_PROPERTY
W
SciTegic.value.DoubleValue
-55.947

@<SCITEGIC>MOL_PROPERTY
W(PB)
SciTegic.value.DoubleValue
-58.031

@<SCITEGIC>MOL_PROPERTY
W(SA)
SciTegic.value.DoubleValue
2.084

@<SCITEGIC>MOL_PROPERTY
Valence
SciTegic.value.DoubleValue
2.922

@<SCITEGIC>MOL_PROPERTY
Coulomb
SciTegic.value.DoubleValue
45.269

@<SCITEGIC>MOL_PROPERTY
VdW
SciTegic.value.DoubleValue
0.449

@<SCITEGIC>MOL_PROPERTY
VdW6
SciTegic.value.DoubleValue
-7.045

@<SCITEGIC>MOL_PROPERTY
VdW12
SciTegic.value.DoubleValue
7.494

@<SCITEGIC>MOL_PROPERTY
Bond
SciTegic.value.DoubleValue
0.220

@<SCITEGIC>MOL_PROPERTY
Angle
SciTegic.value.DoubleValue
1.205

@<SCITEGIC>MOL_PROPERTY
Pdih
SciTegic.value.DoubleValue
1.497

@<SCITEGIC>MOL_PROPERTY
Idih
SciTegic.value.DoubleValue
0.000

@<SCITEGIC>MOL_PROPERTY
Tether
SciTegic.value.DoubleValue
0.000

@<TRIPOS>MOLECULE
guest-2_confgen4.mol2 : confsearch ligand conformer 125
          23          22           1
SMALL
USER_CHARGES
 
@<TRIPOS>ATOM
       1    N1      21.059850   16.131100   22.906450 N.4        1 MOL1        -0.5940
       2    H1      21.546449   15.957043   23.791723 H          1 MOL1         0.3649
       3    H2      21.498951   15.528785   22.201918 H          1 MOL1         0.3649
       4    H3      20.096277   15.801189   23.021977 H          1 MOL1         0.3649
       5    C1      21.113804   17.592464   22.510041 C.3        1 MOL1         0.0207
       6    H4      20.605056   17.698673   21.548361 H          1 MOL1         0.0950
       7    H5      22.163380   17.868021   22.376597 H          1 MOL1         0.0950
       8    C2      20.461648   18.524497   23.548224 C.3        1 MOL1        -0.1415
       9    H6      19.411441   18.240520   23.692637 H          1 MOL1         0.0976
      10    H7      20.955400   18.382614   24.518692 H          1 MOL1         0.0976
      11    C3      20.556697   20.019032   23.152762 C.3        1 MOL1        -0.1375
      12    H8      21.615006   20.313748   23.131877 H          1 MOL1         0.0976
      13    H9      20.095585   20.628993   23.940973 H          1 MOL1         0.0976
      14    C4      19.917615   20.372314   21.782534 C.3        1 MOL1        -0.1375
      15    H10     20.027553   21.452223   21.612603 H          1 MOL1         0.0976
      16    H11     20.487793   19.888132   20.978316 H          1 MOL1         0.0976
      17    C5      18.422067   19.993078   21.635096 C.3        1 MOL1        -0.1350
      18    H12     18.298654   18.903509   21.696157 H          1 MOL1         0.0976
      19    H13     18.086393   20.277558   20.628078 H          1 MOL1         0.0976
      20    C6      17.509902   20.680777   22.676030 C.3        1 MOL1        -0.2365
      21    H14     17.735924   20.342533   23.694885 H          1 MOL1         0.0987
      22    H15     16.455743   20.448647   22.476770 H          1 MOL1         0.0987
      23    H16     17.625786   21.771817   22.642237 H          1 MOL1         0.0987
@<TRIPOS>BOND
    1     1     2    1
    2     1     3    1
    3     1     4    1
    4     1     5    1
    5     5     6    1
    6     5     7    1
    7     5     8    1
    8     8     9    1
    9     8    10    1
   10     8    11    1
   11    11    12    1
   12    11    13    1
   13    11    14    1
   14    14    15    1
   15    14    16    1
   16    14    17    1
   17    17    18    1
   18    17    19    1
   19    17    20    1
   20    20    21    1
   21    20    22    1
   22    20    23    1
@<TRIPOS>SUBSTRUCTURE
       1 MOL1            1 RESIDUE      1      MOL     
@<SCITEGIC>MOL_PROPERTY
VConf Rank
SciTegic.value.IntegerValue
125

@<SCITEGIC>MOL_PROPERTY
Conf_Id
SciTegic.value.IntegerValue
90

@<SCITEGIC>MOL_PROPERTY
Delta U+W
SciTegic.value.DoubleValue
1.131

@<SCITEGIC>MOL_PROPERTY
U+W
SciTegic.value.DoubleValue
-7.251

@<SCITEGIC>MOL_PROPERTY
Grad RMS
SciTegic.value.DoubleValue
0.000000

@<SCITEGIC>MOL_PROPERTY
U
SciTegic.value.DoubleValue
48.641

@<SCITEGIC>MOL_PROPERTY
W
SciTegic.value.DoubleValue
-55.892

@<SCITEGIC>MOL_PROPERTY
W(PB)
SciTegic.value.DoubleValue
-57.962

@<SCITEGIC>MOL_PROPERTY
W(SA)
SciTegic.value.DoubleValue
2.070

@<SCITEGIC>MOL_PROPERTY
Valence
SciTegic.value.DoubleValue
2.922

@<SCITEGIC>MOL_PROPERTY
Coulomb
SciTegic.value.DoubleValue
45.269

@<SCITEGIC>MOL_PROPERTY
VdW
SciTegic.value.DoubleValue
0.450

@<SCITEGIC>MOL_PROPERTY
VdW6
SciTegic.value.DoubleValue
-7.045

@<SCITEGIC>MOL_PROPERTY
VdW12
SciTegic.value.DoubleValue
7.495

@<SCITEGIC>MOL_PROPERTY
Bond
SciTegic.value.DoubleValue
0.220

@<SCITEGIC>MOL_PROPERTY
Angle
SciTegic.value.DoubleValue
1.205

@<SCITEGIC>MOL_PROPERTY
Pdih
SciTegic.value.DoubleValue
1.497

@<SCITEGIC>MOL_PROPERTY
Idih
SciTegic.value.DoubleValue
0.000

@<SCITEGIC>MOL_PROPERTY
Tether
SciTegic.value.DoubleValue
0.000

@<TRIPOS>MOLECULE
guest-2_confgen4.mol2 : confsearch ligand conformer 126
          23          22           1
SMALL
USER_CHARGES
 
@<TRIPOS>ATOM
       1    N1      21.670170   20.491760   21.527462 N.4        1 MOL1        -0.5940
       2    H1      21.694211   21.366973   20.993351 H          1 MOL1         0.3649
       3    H2      21.051186   19.848734   21.024472 H          1 MOL1         0.3649
       4    H3      22.614247   20.094155   21.492774 H          1 MOL1         0.3649
       5    C1      21.205271   20.714483   22.953175 C.3        1 MOL1         0.0207
       6    H4      20.210555   21.166217   22.918625 H          1 MOL1         0.0950
       7    H5      21.887252   21.431944   23.417578 H          1 MOL1         0.0950
       8    C2      21.163805   19.426002   23.799926 C.3        1 MOL1        -0.1415
       9    H6      22.176547   19.006904   23.866998 H          1 MOL1         0.0976
      10    H7      20.872967   19.688169   24.825853 H          1 MOL1         0.0976
      11    C3      20.196765   18.345089   23.254910 C.3        1 MOL1        -0.1375
      12    H8      20.248337   17.466042   23.911971 H          1 MOL1         0.0976
      13    H9      20.540916   18.010039   22.268297 H          1 MOL1         0.0976
      14    C4      18.727791   18.831584   23.171780 C.3        1 MOL1        -0.1375
      15    H10     18.430365   19.241260   24.146957 H          1 MOL1         0.0976
      16    H11     18.641487   19.655270   22.450652 H          1 MOL1         0.0976
      17    C5      17.731757   17.712080   22.784458 C.3        1 MOL1        -0.1350
      18    H12     16.709685   18.110367   22.852077 H          1 MOL1         0.0976
      19    H13     17.790773   16.892526   23.514271 H          1 MOL1         0.0976
      20    C6      17.956769   17.156922   21.359571 C.3        1 MOL1        -0.2365
      21    H14     17.928792   17.961297   20.613156 H          1 MOL1         0.0987
      22    H15     17.173060   16.432923   21.101576 H          1 MOL1         0.0987
      23    H16     18.921537   16.641664   21.275057 H          1 MOL1         0.0987
@<TRIPOS>BOND
    1     1     2    1
    2     1     3    1
    3     1     4    1
    4     1     5    1
    5     5     6    1
    6     5     7    1
    7     5     8    1
    8     8     9    1
    9     8    10    1
   10     8    11    1
   11    11    12    1
   12    11    13    1
   13    11    14    1
   14    14    15    1
   15    14    16    1
   16    14    17    1
   17    17    18    1
   18    17    19    1
   19    17    20    1
   20    20    21    1
   21    20    22    1
   22    20    23    1
@<TRIPOS>SUBSTRUCTURE
       1 MOL1            1 RESIDUE      1      MOL     
@<SCITEGIC>MOL_PROPERTY
VConf Rank
SciTegic.value.IntegerValue
126

@<SCITEGIC>MOL_PROPERTY
Conf_Id
SciTegic.value.IntegerValue
85

@<SCITEGIC>MOL_PROPERTY
Delta U+W
SciTegic.value.DoubleValue
1.193

@<SCITEGIC>MOL_PROPERTY
U+W
SciTegic.value.DoubleValue
-7.189

@<SCITEGIC>MOL_PROPERTY
Grad RMS
SciTegic.value.DoubleValue
0.000000

@<SCITEGIC>MOL_PROPERTY
U
SciTegic.value.DoubleValue
48.775

@<SCITEGIC>MOL_PROPERTY
W
SciTegic.value.DoubleValue
-55.965

@<SCITEGIC>MOL_PROPERTY
W(PB)
SciTegic.value.DoubleValue
-58.038

@<SCITEGIC>MOL_PROPERTY
W(SA)
SciTegic.value.DoubleValue
2.073

@<SCITEGIC>MOL_PROPERTY
Valence
SciTegic.value.DoubleValue
2.602

@<SCITEGIC>MOL_PROPERTY
Coulomb
SciTegic.value.DoubleValue
45.581

@<SCITEGIC>MOL_PROPERTY
VdW
SciTegic.value.DoubleValue
0.592

@<SCITEGIC>MOL_PROPERTY
VdW6
SciTegic.value.DoubleValue
-6.616

@<SCITEGIC>MOL_PROPERTY
VdW12
SciTegic.value.DoubleValue
7.208

@<SCITEGIC>MOL_PROPERTY
Bond
SciTegic.value.DoubleValue
0.196

@<SCITEGIC>MOL_PROPERTY
Angle
SciTegic.value.DoubleValue
0.832

@<SCITEGIC>MOL_PROPERTY
Pdih
SciTegic.value.DoubleValue
1.574

@<SCITEGIC>MOL_PROPERTY
Idih
SciTegic.value.DoubleValue
0.000

@<SCITEGIC>MOL_PROPERTY
Tether
SciTegic.value.DoubleValue
0.000

@<TRIPOS>MOLECULE
guest-2_confgen4.mol2 : confsearch ligand conformer 127
          23          22           1
SMALL
USER_CHARGES
 
@<TRIPOS>ATOM
       1    N1      19.389311   17.056355   23.370102 N.4        1 MOL1        -0.5940
       2    H1      19.160375   18.021295   23.629237 H          1 MOL1         0.3649
       3    H2      19.756263   16.591796   24.207857 H          1 MOL1         0.3649
       4    H3      18.510052   16.587285   23.129495 H          1 MOL1         0.3649
       5    C1      20.380119   17.013275   22.222886 C.3        1 MOL1         0.0207
       6    H4      20.571327   15.958893   22.005565 H          1 MOL1         0.0950
       7    H5      21.318332   17.467024   22.553035 H          1 MOL1         0.0950
       8    C2      19.884187   17.709818   20.939299 C.3        1 MOL1        -0.1415
       9    H6      20.450901   17.295790   20.094755 H          1 MOL1         0.0976
      10    H7      18.835184   17.443106   20.754015 H          1 MOL1         0.0976
      11    C3      20.056038   19.252526   20.914185 C.3        1 MOL1        -0.1375
      12    H8      19.716908   19.604641   19.930055 H          1 MOL1         0.0976
      13    H9      21.122515   19.511974   20.966929 H          1 MOL1         0.0976
      14    C4      19.263931   20.025777   21.999500 C.3        1 MOL1        -0.1375
      15    H10     18.913267   20.973192   21.566858 H          1 MOL1         0.0976
      16    H11     18.355886   19.472175   22.272821 H          1 MOL1         0.0976
      17    C5      20.112124   20.360311   23.250801 C.3        1 MOL1        -0.1350
      18    H12     20.917061   21.053251   22.967880 H          1 MOL1         0.0976
      19    H13     20.608836   19.464813   23.642767 H          1 MOL1         0.0976
      20    C6      19.258046   21.003156   24.363963 C.3        1 MOL1        -0.2365
      21    H14     18.790626   21.932941   24.014127 H          1 MOL1         0.0987
      22    H15     19.878373   21.246898   25.236295 H          1 MOL1         0.0987
      23    H16     18.461145   20.325544   24.696465 H          1 MOL1         0.0987
@<TRIPOS>BOND
    1     1     2    1
    2     1     3    1
    3     1     4    1
    4     1     5    1
    5     5     6    1
    6     5     7    1
    7     5     8    1
    8     8     9    1
    9     8    10    1
   10     8    11    1
   11    11    12    1
   12    11    13    1
   13    11    14    1
   14    14    15    1
   15    14    16    1
   16    14    17    1
   17    17    18    1
   18    17    19    1
   19    17    20    1
   20    20    21    1
   21    20    22    1
   22    20    23    1
@<TRIPOS>SUBSTRUCTURE
       1 MOL1            1 RESIDUE      1      MOL     
@<SCITEGIC>MOL_PROPERTY
VConf Rank
SciTegic.value.IntegerValue
127

@<SCITEGIC>MOL_PROPERTY
Conf_Id
SciTegic.value.IntegerValue
82

@<SCITEGIC>MOL_PROPERTY
Delta U+W
SciTegic.value.DoubleValue
5.994

@<SCITEGIC>MOL_PROPERTY
U+W
SciTegic.value.DoubleValue
-2.388

@<SCITEGIC>MOL_PROPERTY
Grad RMS
SciTegic.value.DoubleValue
0.000000

@<SCITEGIC>MOL_PROPERTY
U
SciTegic.value.DoubleValue
52.836

@<SCITEGIC>MOL_PROPERTY
W
SciTegic.value.DoubleValue
-55.224

@<SCITEGIC>MOL_PROPERTY
W(PB)
SciTegic.value.DoubleValue
-57.261

@<SCITEGIC>MOL_PROPERTY
W(SA)
SciTegic.value.DoubleValue
2.037

@<SCITEGIC>MOL_PROPERTY
Valence
SciTegic.value.DoubleValue
5.785

@<SCITEGIC>MOL_PROPERTY
Coulomb
SciTegic.value.DoubleValue
46.744

@<SCITEGIC>MOL_PROPERTY
VdW
SciTegic.value.DoubleValue
0.307

@<SCITEGIC>MOL_PROPERTY
VdW6
SciTegic.value.DoubleValue
-7.672

@<SCITEGIC>MOL_PROPERTY
VdW12
SciTegic.value.DoubleValue
7.979

@<SCITEGIC>MOL_PROPERTY
Bond
SciTegic.value.DoubleValue
0.217

@<SCITEGIC>MOL_PROPERTY
Angle
SciTegic.value.DoubleValue
1.470

@<SCITEGIC>MOL_PROPERTY
Pdih
SciTegic.value.DoubleValue
4.098

@<SCITEGIC>MOL_PROPERTY
Idih
SciTegic.value.DoubleValue
0.000

@<SCITEGIC>MOL_PROPERTY
Tether
SciTegic.value.DoubleValue
0.000

@<TRIPOS>MOLECULE
guest-2_confgen4.mol2 : confsearch ligand conformer 128
          23          22           1
SMALL
USER_CHARGES
 
@<TRIPOS>ATOM
       1    N1      20.768770   20.630333   21.687054 N.4        1 MOL1        -0.5940
       2    H1      21.732717   20.518549   21.356408 H          1 MOL1         0.3649
       3    H2      20.389470   21.464346   21.225692 H          1 MOL1         0.3649
       4    H3      20.234267   19.823090   21.350394 H          1 MOL1         0.3649
       5    C1      20.703737   20.744061   23.197846 C.3        1 MOL1         0.0207
       6    H4      19.666474   20.926235   23.491146 H          1 MOL1         0.0950
       7    H5      21.294303   21.620636   23.477769 H          1 MOL1         0.0950
       8    C2      21.250333   19.509791   23.943855 C.3        1 MOL1        -0.1415
       9    H6      22.181438   19.171927   23.469762 H          1 MOL1         0.0976
      10    H7      21.530003   19.828872   24.956678 H          1 MOL1         0.0976
      11    C3      20.257751   18.323670   24.078065 C.3        1 MOL1        -0.1375
      12    H8      19.383957   18.630943   24.669280 H          1 MOL1         0.0976
      13    H9      20.755172   17.545040   24.672886 H          1 MOL1         0.0976
      14    C4      19.800569   17.686940   22.740596 C.3        1 MOL1        -0.1375
      15    H10     20.582046   17.804107   21.978172 H          1 MOL1         0.0976
      16    H11     19.692761   16.603379   22.888951 H          1 MOL1         0.0976
      17    C5      18.442675   18.234762   22.237489 C.3        1 MOL1        -0.1350
      18    H12     18.444597   19.330877   22.208974 H          1 MOL1         0.0976
      19    H13     17.652751   17.952099   22.947598 H          1 MOL1         0.0976
      20    C6      18.088036   17.684857   20.839754 C.3        1 MOL1        -0.2365
      21    H14     18.839638   17.975624   20.094558 H          1 MOL1         0.0987
      22    H15     17.116254   18.071704   20.506335 H          1 MOL1         0.0987
      23    H16     18.026721   16.588746   20.851922 H          1 MOL1         0.0987
@<TRIPOS>BOND
    1     1     2    1
    2     1     3    1
    3     1     4    1
    4     1     5    1
    5     5     6    1
    6     5     7    1
    7     5     8    1
    8     8     9    1
    9     8    10    1
   10     8    11    1
   11    11    12    1
   12    11    13    1
   13    11    14    1
   14    14    15    1
   15    14    16    1
   16    14    17    1
   17    17    18    1
   18    17    19    1
   19    17    20    1
   20    20    21    1
   21    20    22    1
   22    20    23    1
@<TRIPOS>SUBSTRUCTURE
       1 MOL1            1 RESIDUE      1      MOL     
@<SCITEGIC>MOL_PROPERTY
VConf Rank
SciTegic.value.IntegerValue
128

@<SCITEGIC>MOL_PROPERTY
Conf_Id
SciTegic.value.IntegerValue
5

@<SCITEGIC>MOL_PROPERTY
Delta U+W
SciTegic.value.DoubleValue
6.087

@<SCITEGIC>MOL_PROPERTY
U+W
SciTegic.value.DoubleValue
-2.295

@<SCITEGIC>MOL_PROPERTY
Grad RMS
SciTegic.value.DoubleValue
0.000000

@<SCITEGIC>MOL_PROPERTY
U
SciTegic.value.DoubleValue
52.836

@<SCITEGIC>MOL_PROPERTY
W
SciTegic.value.DoubleValue
-55.131

@<SCITEGIC>MOL_PROPERTY
W(PB)
SciTegic.value.DoubleValue
-57.202

@<SCITEGIC>MOL_PROPERTY
W(SA)
SciTegic.value.DoubleValue
2.071

@<SCITEGIC>MOL_PROPERTY
Valence
SciTegic.value.DoubleValue
5.785

@<SCITEGIC>MOL_PROPERTY
Coulomb
SciTegic.value.DoubleValue
46.744

@<SCITEGIC>MOL_PROPERTY
VdW
SciTegic.value.DoubleValue
0.307

@<SCITEGIC>MOL_PROPERTY
VdW6
SciTegic.value.DoubleValue
-7.672

@<SCITEGIC>MOL_PROPERTY
VdW12
SciTegic.value.DoubleValue
7.980

@<SCITEGIC>MOL_PROPERTY
Bond
SciTegic.value.DoubleValue
0.217

@<SCITEGIC>MOL_PROPERTY
Angle
SciTegic.value.DoubleValue
1.470

@<SCITEGIC>MOL_PROPERTY
Pdih
SciTegic.value.DoubleValue
4.098

@<SCITEGIC>MOL_PROPERTY
Idih
SciTegic.value.DoubleValue
0.000

@<SCITEGIC>MOL_PROPERTY
Tether
SciTegic.value.DoubleValue
0.000

@<TRIPOS>MOLECULE
guest-2_confgen4.mol2 : confsearch ligand conformer 129
          23          22           1
SMALL
USER_CHARGES
 
@<TRIPOS>ATOM
       1    N1      22.329799   16.611005   24.170003 N.4        1 MOL1        -0.5940
       2    H1      22.733939   16.281507   23.287401 H          1 MOL1         0.3649
       3    H2      22.367378   15.824151   24.826923 H          1 MOL1         0.3649
       4    H3      22.955994   17.335097   24.536682 H          1 MOL1         0.3649
       5    C1      20.916116   17.125005   23.987788 C.3        1 MOL1         0.0207
       6    H4      20.539009   17.430074   24.967696 H          1 MOL1         0.0950
       7    H5      20.300325   16.297581   23.624930 H          1 MOL1         0.0950
       8    C2      20.825341   18.307329   23.006745 C.3        1 MOL1        -0.1415
       9    H6      21.457945   19.129711   23.366746 H          1 MOL1         0.0976
      10    H7      21.220209   18.001233   22.028746 H          1 MOL1         0.0976
      11    C3      19.370090   18.800852   22.849063 C.3        1 MOL1        -0.1375
      12    H8      18.976926   19.101125   23.830420 H          1 MOL1         0.0976
      13    H9      18.739470   17.973863   22.493801 H          1 MOL1         0.0976
      14    C4      19.267187   19.988733   21.865523 C.3        1 MOL1        -0.1375
      15    H10     19.897572   20.815770   22.220683 H          1 MOL1         0.0976
      16    H11     19.660253   19.688651   20.884216 H          1 MOL1         0.0976
      17    C5      17.811636   20.481999   21.707985 C.3        1 MOL1        -0.1350
      18    H12     17.414623   20.785722   22.686814 H          1 MOL1         0.0976
      19    H13     17.177334   19.658709   21.350455 H          1 MOL1         0.0976
      20    C6      17.712857   21.668128   20.725208 C.3        1 MOL1        -0.2365
      21    H14     16.672490   22.004201   20.626531 H          1 MOL1         0.0987
      22    H15     18.071336   21.384686   19.727018 H          1 MOL1         0.0987
      23    H16     18.310502   22.520495   21.073804 H          1 MOL1         0.0987
@<TRIPOS>BOND
    1     1     2    1
    2     1     3    1
    3     1     4    1
    4     1     5    1
    5     5     6    1
    6     5     7    1
    7     5     8    1
    8     8     9    1
    9     8    10    1
   10     8    11    1
   11    11    12    1
   12    11    13    1
   13    11    14    1
   14    14    15    1
   15    14    16    1
   16    14    17    1
   17    17    18    1
   18    17    19    1
   19    17    20    1
   20    20    21    1
   21    20    22    1
   22    20    23    1
@<TRIPOS>SUBSTRUCTURE
       1 MOL1            1 RESIDUE      1      MOL     
@<SCITEGIC>MOL_PROPERTY
VConf Rank
SciTegic.value.IntegerValue
129

@<SCITEGIC>MOL_PROPERTY
Conf_Id
SciTegic.value.IntegerValue
40

@<SCITEGIC>MOL_PROPERTY
Delta U+W
SciTegic.value.DoubleValue
0.000

@<SCITEGIC>MOL_PROPERTY
U+W
SciTegic.value.DoubleValue
-8.382

@<SCITEGIC>MOL_PROPERTY
Grad RMS
SciTegic.value.DoubleValue
0.000000

@<SCITEGIC>MOL_PROPERTY
U
SciTegic.value.DoubleValue
46.604

@<SCITEGIC>MOL_PROPERTY
W
SciTegic.value.DoubleValue
-54.986

@<SCITEGIC>MOL_PROPERTY
W(PB)
SciTegic.value.DoubleValue
-57.162

@<SCITEGIC>MOL_PROPERTY
W(SA)
SciTegic.value.DoubleValue
2.176

@<SCITEGIC>MOL_PROPERTY
Valence
SciTegic.value.DoubleValue
1.727

@<SCITEGIC>MOL_PROPERTY
Coulomb
SciTegic.value.DoubleValue
44.434

@<SCITEGIC>MOL_PROPERTY
VdW
SciTegic.value.DoubleValue
0.443

@<SCITEGIC>MOL_PROPERTY
VdW6
SciTegic.value.DoubleValue
-4.623

@<SCITEGIC>MOL_PROPERTY
VdW12
SciTegic.value.DoubleValue
5.066

@<SCITEGIC>MOL_PROPERTY
Bond
SciTegic.value.DoubleValue
0.112

@<SCITEGIC>MOL_PROPERTY
Angle
SciTegic.value.DoubleValue
0.386

@<SCITEGIC>MOL_PROPERTY
Pdih
SciTegic.value.DoubleValue
1.228

@<SCITEGIC>MOL_PROPERTY
Idih
SciTegic.value.DoubleValue
0.000

@<SCITEGIC>MOL_PROPERTY
Tether
SciTegic.value.DoubleValue
0.000

@<TRIPOS>MOLECULE
guest-2_confgen4.mol2 : confsearch ligand conformer 130
          23          22           1
SMALL
USER_CHARGES
 
@<TRIPOS>ATOM
       1    N1      21.528854   16.442504   20.872976 N.4        1 MOL1        -0.5940
       2    H1      21.214330   16.389932   19.898732 H          1 MOL1         0.3649
       3    H2      21.110075   15.648658   21.368218 H          1 MOL1         0.3649
       4    H3      22.542950   16.288861   20.867231 H          1 MOL1         0.3649
       5    C1      21.163485   17.765675   21.514465 C.3        1 MOL1         0.0207
       6    H4      21.664292   18.561146   20.956048 H          1 MOL1         0.0950
       7    H5      21.554975   17.762334   22.534878 H          1 MOL1         0.0950
       8    C2      19.645314   18.025940   21.537909 C.3        1 MOL1        -0.1415
       9    H6      19.258856   17.979005   20.511071 H          1 MOL1         0.0976
      10    H7      19.141878   17.227876   22.099717 H          1 MOL1         0.0976
      11    C3      19.281121   19.400463   22.147558 C.3        1 MOL1        -0.1375
      12    H8      18.201609   19.555887   22.023229 H          1 MOL1         0.0976
      13    H9      19.778450   20.197385   21.577513 H          1 MOL1         0.0976
      14    C4      19.654009   19.518599   23.647416 C.3        1 MOL1        -0.1375
      15    H10     19.139980   18.734230   24.219920 H          1 MOL1         0.0976
      16    H11     20.729702   19.338592   23.773861 H          1 MOL1         0.0976
      17    C5      19.323354   20.902612   24.257089 C.3        1 MOL1        -0.1350
      18    H12     19.843436   21.690625   23.694641 H          1 MOL1         0.0976
      19    H13     19.723287   20.940940   25.280054 H          1 MOL1         0.0976
      20    C6      17.809218   21.210062   24.304606 C.3        1 MOL1        -0.2365
      21    H14     17.384961   21.308023   23.297796 H          1 MOL1         0.0987
      22    H15     17.625929   22.155114   24.832080 H          1 MOL1         0.0987
      23    H16     17.261930   20.419209   24.833793 H          1 MOL1         0.0987
@<TRIPOS>BOND
    1     1     2    1
    2     1     3    1
    3     1     4    1
    4     1     5    1
    5     5     6    1
    6     5     7    1
    7     5     8    1
    8     8     9    1
    9     8    10    1
   10     8    11    1
   11    11    12    1
   12    11    13    1
   13    11    14    1
   14    14    15    1
   15    14    16    1
   16    14    17    1
   17    17    18    1
   18    17    19    1
   19    17    20    1
   20    20    21    1
   21    20    22    1
   22    20    23    1
@<TRIPOS>SUBSTRUCTURE
       1 MOL1            1 RESIDUE      1      MOL     
@<SCITEGIC>MOL_PROPERTY
VConf Rank
SciTegic.value.IntegerValue
130

@<SCITEGIC>MOL_PROPERTY
Conf_Id
SciTegic.value.IntegerValue
65

@<SCITEGIC>MOL_PROPERTY
Delta U+W
SciTegic.value.DoubleValue
1.004

@<SCITEGIC>MOL_PROPERTY
U+W
SciTegic.value.DoubleValue
-7.378

@<SCITEGIC>MOL_PROPERTY
Grad RMS
SciTegic.value.DoubleValue
0.000000

@<SCITEGIC>MOL_PROPERTY
U
SciTegic.value.DoubleValue
48.047

@<SCITEGIC>MOL_PROPERTY
W
SciTegic.value.DoubleValue
-55.425

@<SCITEGIC>MOL_PROPERTY
W(PB)
SciTegic.value.DoubleValue
-57.542

@<SCITEGIC>MOL_PROPERTY
W(SA)
SciTegic.value.DoubleValue
2.116

@<SCITEGIC>MOL_PROPERTY
Valence
SciTegic.value.DoubleValue
2.583

@<SCITEGIC>MOL_PROPERTY
Coulomb
SciTegic.value.DoubleValue
44.791

@<SCITEGIC>MOL_PROPERTY
VdW
SciTegic.value.DoubleValue
0.673

@<SCITEGIC>MOL_PROPERTY
VdW6
SciTegic.value.DoubleValue
-5.788

@<SCITEGIC>MOL_PROPERTY
VdW12
SciTegic.value.DoubleValue
6.462

@<SCITEGIC>MOL_PROPERTY
Bond
SciTegic.value.DoubleValue
0.177

@<SCITEGIC>MOL_PROPERTY
Angle
SciTegic.value.DoubleValue
0.787

@<SCITEGIC>MOL_PROPERTY
Pdih
SciTegic.value.DoubleValue
1.619

@<SCITEGIC>MOL_PROPERTY
Idih
SciTegic.value.DoubleValue
0.000

@<SCITEGIC>MOL_PROPERTY
Tether
SciTegic.value.DoubleValue
0.000

@<TRIPOS>MOLECULE
guest-2_confgen4.mol2 : confsearch ligand conformer 131
          23          22           1
SMALL
USER_CHARGES
 
@<TRIPOS>ATOM
       1    N1      18.249128   22.115897   21.664097 N.4        1 MOL1        -0.5940
       2    H1      18.333774   22.259559   20.652644 H          1 MOL1         0.3649
       3    H2      18.389936   23.029984   22.107545 H          1 MOL1         0.3649
       4    H3      17.279080   21.841137   21.849427 H          1 MOL1         0.3649
       5    C1      19.235973   21.085068   22.173317 C.3        1 MOL1         0.0207
       6    H4      19.110176   21.007643   23.256229 H          1 MOL1         0.0950
       7    H5      20.244779   21.453979   21.969289 H          1 MOL1         0.0950
       8    C2      19.049949   19.700015   21.525122 C.3        1 MOL1        -0.1415
       9    H6      18.037210   19.328443   21.730742 H          1 MOL1         0.0976
      10    H7      19.131725   19.801904   20.434766 H          1 MOL1         0.0976
      11    C3      20.092236   18.664939   22.010787 C.3        1 MOL1        -0.1375
      12    H8      21.104073   19.034977   21.794851 H          1 MOL1         0.0976
      13    H9      19.964243   17.747044   21.422527 H          1 MOL1         0.0976
      14    C4      19.965735   18.336811   23.520391 C.3        1 MOL1        -0.1375
      15    H10     20.069268   19.259247   24.106819 H          1 MOL1         0.0976
      16    H11     18.960383   17.947275   23.731932 H          1 MOL1         0.0976
      17    C5      21.026213   17.326755   24.022082 C.3        1 MOL1        -0.1350
      18    H12     20.941139   17.240958   25.114452 H          1 MOL1         0.0976
      19    H13     22.034371   17.716105   23.822524 H          1 MOL1         0.0976
      20    C6      20.879712   15.918846   23.401021 C.3        1 MOL1        -0.2365
      21    H14     21.081545   15.929768   22.322874 H          1 MOL1         0.0987
      22    H15     19.868849   15.520861   23.558419 H          1 MOL1         0.0987
      23    H16     21.590393   15.220438   23.861569 H          1 MOL1         0.0987
@<TRIPOS>BOND
    1     1     2    1
    2     1     3    1
    3     1     4    1
    4     1     5    1
    5     5     6    1
    6     5     7    1
    7     5     8    1
    8     8     9    1
    9     8    10    1
   10     8    11    1
   11    11    12    1
   12    11    13    1
   13    11    14    1
   14    14    15    1
   15    14    16    1
   16    14    17    1
   17    17    18    1
   18    17    19    1
   19    17    20    1
   20    20    21    1
   21    20    22    1
   22    20    23    1
@<TRIPOS>SUBSTRUCTURE
       1 MOL1            1 RESIDUE      1      MOL     
@<SCITEGIC>MOL_PROPERTY
VConf Rank
SciTegic.value.IntegerValue
131

@<SCITEGIC>MOL_PROPERTY
Conf_Id
SciTegic.value.IntegerValue
92

@<SCITEGIC>MOL_PROPERTY
Delta U+W
SciTegic.value.DoubleValue
0.973

@<SCITEGIC>MOL_PROPERTY
U+W
SciTegic.value.DoubleValue
-7.409

@<SCITEGIC>MOL_PROPERTY
Grad RMS
SciTegic.value.DoubleValue
0.000000

@<SCITEGIC>MOL_PROPERTY
U
SciTegic.value.DoubleValue
48.047

@<SCITEGIC>MOL_PROPERTY
W
SciTegic.value.DoubleValue
-55.456

@<SCITEGIC>MOL_PROPERTY
W(PB)
SciTegic.value.DoubleValue
-57.595

@<SCITEGIC>MOL_PROPERTY
W(SA)
SciTegic.value.DoubleValue
2.138

@<SCITEGIC>MOL_PROPERTY
Valence
SciTegic.value.DoubleValue
2.583

@<SCITEGIC>MOL_PROPERTY
Coulomb
SciTegic.value.DoubleValue
44.791

@<SCITEGIC>MOL_PROPERTY
VdW
SciTegic.value.DoubleValue
0.674

@<SCITEGIC>MOL_PROPERTY
VdW6
SciTegic.value.DoubleValue
-5.789

@<SCITEGIC>MOL_PROPERTY
VdW12
SciTegic.value.DoubleValue
6.462

@<SCITEGIC>MOL_PROPERTY
Bond
SciTegic.value.DoubleValue
0.177

@<SCITEGIC>MOL_PROPERTY
Angle
SciTegic.value.DoubleValue
0.787

@<SCITEGIC>MOL_PROPERTY
Pdih
SciTegic.value.DoubleValue
1.619

@<SCITEGIC>MOL_PROPERTY
Idih
SciTegic.value.DoubleValue
0.000

@<SCITEGIC>MOL_PROPERTY
Tether
SciTegic.value.DoubleValue
0.000

@<TRIPOS>MOLECULE
guest-2_confgen4.mol2 : confsearch ligand conformer 132
          23          22           1
SMALL
USER_CHARGES
 
@<TRIPOS>ATOM
       1    N1      21.657937   21.768637   21.599549 N.4        1 MOL1        -0.5940
       2    H1      22.267568   21.728511   20.775672 H          1 MOL1         0.3649
       3    H2      22.185491   22.246629   22.337155 H          1 MOL1         0.3649
       4    H3      20.866447   22.372576   21.355336 H          1 MOL1         0.3649
       5    C1      21.204362   20.389165   22.032101 C.3        1 MOL1         0.0207
       6    H4      22.095190   19.793261   22.248301 H          1 MOL1         0.0950
       7    H5      20.678909   19.930051   21.190788 H          1 MOL1         0.0950
       8    C2      20.286329   20.415979   23.268771 C.3        1 MOL1        -0.1415
       9    H6      20.809418   20.919145   24.092875 H          1 MOL1         0.0976
      10    H7      19.391993   21.015219   23.051814 H          1 MOL1         0.0976
      11    C3      19.864681   19.001338   23.731412 C.3        1 MOL1        -0.1375
      12    H8      19.292723   19.092175   24.665256 H          1 MOL1         0.0976
      13    H9      20.760693   18.412444   23.972278 H          1 MOL1         0.0976
      14    C4      19.010746   18.248068   22.683156 C.3        1 MOL1        -0.1375
      15    H10     18.132982   18.854514   22.420151 H          1 MOL1         0.0976
      16    H11     19.588170   18.106672   21.759768 H          1 MOL1         0.0976
      17    C5      18.545573   16.870387   23.205060 C.3        1 MOL1        -0.1350
      18    H12     17.958944   17.000425   24.125341 H          1 MOL1         0.0976
      19    H13     19.419972   16.259640   23.470378 H          1 MOL1         0.0976
      20    C6      17.695214   16.119469   22.158364 C.3        1 MOL1        -0.2365
      21    H14     16.794953   16.691060   21.897520 H          1 MOL1         0.0987
      22    H15     17.374124   15.144386   22.547156 H          1 MOL1         0.0987
      23    H16     18.266977   15.943280   21.237894 H          1 MOL1         0.0987
@<TRIPOS>BOND
    1     1     2    1
    2     1     3    1
    3     1     4    1
    4     1     5    1
    5     5     6    1
    6     5     7    1
    7     5     8    1
    8     8     9    1
    9     8    10    1
   10     8    11    1
   11    11    12    1
   12    11    13    1
   13    11    14    1
   14    14    15    1
   15    14    16    1
   16    14    17    1
   17    17    18    1
   18    17    19    1
   19    17    20    1
   20    20    21    1
   21    20    22    1
   22    20    23    1
@<TRIPOS>SUBSTRUCTURE
       1 MOL1            1 RESIDUE      1      MOL     
@<SCITEGIC>MOL_PROPERTY
VConf Rank
SciTegic.value.IntegerValue
132

@<SCITEGIC>MOL_PROPERTY
Conf_Id
SciTegic.value.IntegerValue
42

@<SCITEGIC>MOL_PROPERTY
Delta U+W
SciTegic.value.DoubleValue
0.365

@<SCITEGIC>MOL_PROPERTY
U+W
SciTegic.value.DoubleValue
-8.017

@<SCITEGIC>MOL_PROPERTY
Grad RMS
SciTegic.value.DoubleValue
0.000000

@<SCITEGIC>MOL_PROPERTY
U
SciTegic.value.DoubleValue
47.375

@<SCITEGIC>MOL_PROPERTY
W
SciTegic.value.DoubleValue
-55.392

@<SCITEGIC>MOL_PROPERTY
W(PB)
SciTegic.value.DoubleValue
-57.543

@<SCITEGIC>MOL_PROPERTY
W(SA)
SciTegic.value.DoubleValue
2.152

@<SCITEGIC>MOL_PROPERTY
Valence
SciTegic.value.DoubleValue
2.032

@<SCITEGIC>MOL_PROPERTY
Coulomb
SciTegic.value.DoubleValue
44.843

@<SCITEGIC>MOL_PROPERTY
VdW
SciTegic.value.DoubleValue
0.499

@<SCITEGIC>MOL_PROPERTY
VdW6
SciTegic.value.DoubleValue
-5.218

@<SCITEGIC>MOL_PROPERTY
VdW12
SciTegic.value.DoubleValue
5.717

@<SCITEGIC>MOL_PROPERTY
Bond
SciTegic.value.DoubleValue
0.135

@<SCITEGIC>MOL_PROPERTY
Angle
SciTegic.value.DoubleValue
0.514

@<SCITEGIC>MOL_PROPERTY
Pdih
SciTegic.value.DoubleValue
1.383

@<SCITEGIC>MOL_PROPERTY
Idih
SciTegic.value.DoubleValue
0.000

@<SCITEGIC>MOL_PROPERTY
Tether
SciTegic.value.DoubleValue
0.000

@<TRIPOS>MOLECULE
guest-2_confgen4.mol2 : confsearch ligand conformer 133
          23          22           1
SMALL
USER_CHARGES
 
@<TRIPOS>ATOM
       1    N1      20.952555   18.412523   19.734355 N.4        1 MOL1        -0.5940
       2    H1      20.749424   19.358819   19.396872 H          1 MOL1         0.3649
       3    H2      21.127533   17.831550   18.907432 H          1 MOL1         0.3649
       4    H3      21.831820   18.459927   20.257851 H          1 MOL1         0.3649
       5    C1      19.821499   17.860741   20.580424 C.3        1 MOL1         0.0207
       6    H4      20.089452   16.845939   20.886691 H          1 MOL1         0.0950
       7    H5      18.933314   17.801167   19.945484 H          1 MOL1         0.0950
       8    C2      19.501539   18.711221   21.825229 C.3        1 MOL1        -0.1415
       9    H6      19.259649   19.736989   21.517106 H          1 MOL1         0.0976
      10    H7      18.600017   18.295894   22.292005 H          1 MOL1         0.0976
      11    C3      20.656539   18.721615   22.856089 C.3        1 MOL1        -0.1375
      12    H8      21.584284   19.038670   22.362028 H          1 MOL1         0.0976
      13    H9      20.834969   17.697733   23.212792 H          1 MOL1         0.0976
      14    C4      20.420688   19.655985   24.071155 C.3        1 MOL1        -0.1375
      15    H10     21.319698   19.610833   24.701416 H          1 MOL1         0.0976
      16    H11     20.347661   20.699858   23.736163 H          1 MOL1         0.0976
      17    C5      19.197404   19.287840   24.950066 C.3        1 MOL1        -0.1350
      18    H12     19.445009   19.497672   26.000130 H          1 MOL1         0.0976
      19    H13     18.999351   18.208228   24.897047 H          1 MOL1         0.0976
      20    C6      17.922378   20.087286   24.593055 C.3        1 MOL1        -0.2365
      21    H14     18.088932   21.165280   24.716531 H          1 MOL1         0.0987
      22    H15     17.092805   19.801472   25.252625 H          1 MOL1         0.0987
      23    H16     17.600736   19.912576   23.560513 H          1 MOL1         0.0987
@<TRIPOS>BOND
    1     1     2    1
    2     1     3    1
    3     1     4    1
    4     1     5    1
    5     5     6    1
    6     5     7    1
    7     5     8    1
    8     8     9    1
    9     8    10    1
   10     8    11    1
   11    11    12    1
   12    11    13    1
   13    11    14    1
   14    14    15    1
   15    14    16    1
   16    14    17    1
   17    17    18    1
   18    17    19    1
   19    17    20    1
   20    20    21    1
   21    20    22    1
   22    20    23    1
@<TRIPOS>SUBSTRUCTURE
       1 MOL1            1 RESIDUE      1      MOL     
@<SCITEGIC>MOL_PROPERTY
VConf Rank
SciTegic.value.IntegerValue
133

@<SCITEGIC>MOL_PROPERTY
Conf_Id
SciTegic.value.IntegerValue
3

@<SCITEGIC>MOL_PROPERTY
Delta U+W
SciTegic.value.DoubleValue
3.283

@<SCITEGIC>MOL_PROPERTY
U+W
SciTegic.value.DoubleValue
-5.099

@<SCITEGIC>MOL_PROPERTY
Grad RMS
SciTegic.value.DoubleValue
0.000000

@<SCITEGIC>MOL_PROPERTY
U
SciTegic.value.DoubleValue
50.701

@<SCITEGIC>MOL_PROPERTY
W
SciTegic.value.DoubleValue
-55.800

@<SCITEGIC>MOL_PROPERTY
W(PB)
SciTegic.value.DoubleValue
-57.867

@<SCITEGIC>MOL_PROPERTY
W(SA)
SciTegic.value.DoubleValue
2.067

@<SCITEGIC>MOL_PROPERTY
Valence
SciTegic.value.DoubleValue
4.880

@<SCITEGIC>MOL_PROPERTY
Coulomb
SciTegic.value.DoubleValue
45.095

@<SCITEGIC>MOL_PROPERTY
VdW
SciTegic.value.DoubleValue
0.726

@<SCITEGIC>MOL_PROPERTY
VdW6
SciTegic.value.DoubleValue
-6.620

@<SCITEGIC>MOL_PROPERTY
VdW12
SciTegic.value.DoubleValue
7.346

@<SCITEGIC>MOL_PROPERTY
Bond
SciTegic.value.DoubleValue
0.222

@<SCITEGIC>MOL_PROPERTY
Angle
SciTegic.value.DoubleValue
1.260

@<SCITEGIC>MOL_PROPERTY
Pdih
SciTegic.value.DoubleValue
3.398

@<SCITEGIC>MOL_PROPERTY
Idih
SciTegic.value.DoubleValue
0.000

@<SCITEGIC>MOL_PROPERTY
Tether
SciTegic.value.DoubleValue
0.000

@<TRIPOS>MOLECULE
guest-2_confgen4.mol2 : confsearch ligand conformer 134
          23          22           1
SMALL
USER_CHARGES
 
@<TRIPOS>ATOM
       1    N1      22.226963   17.466653   22.547292 N.4        1 MOL1        -0.5940
       2    H1      23.065783   18.002746   22.303289 H          1 MOL1         0.3649
       3    H2      22.532271   16.508596   22.749155 H          1 MOL1         0.3649
       4    H3      21.861454   17.856447   23.421400 H          1 MOL1         0.3649
       5    C1      21.191472   17.506714   21.440745 C.3        1 MOL1         0.0207
       6    H4      20.340822   16.894080   21.749880 H          1 MOL1         0.0950
       7    H5      21.634844   17.046479   20.553540 H          1 MOL1         0.0950
       8    C2      20.711454   18.930497   21.091892 C.3        1 MOL1        -0.1415
       9    H6      21.566908   19.518772   20.734210 H          1 MOL1         0.0976
      10    H7      20.009562   18.869138   20.249608 H          1 MOL1         0.0976
      11    C3      20.033321   19.678041   22.267886 C.3        1 MOL1        -0.1375
      12    H8      19.771002   20.686619   21.923163 H          1 MOL1         0.0976
      13    H9      20.750197   19.812538   23.088707 H          1 MOL1         0.0976
      14    C4      18.762285   18.963249   22.793211 C.3        1 MOL1        -0.1375
      15    H10     18.034801   18.854267   21.977087 H          1 MOL1         0.0976
      16    H11     19.019158   17.945738   23.115767 H          1 MOL1         0.0976
      17    C5      18.094804   19.690695   23.985578 C.3        1 MOL1        -0.1350
      18    H12     18.814848   19.792935   24.809477 H          1 MOL1         0.0976
      19    H13     17.278123   19.062543   24.368096 H          1 MOL1         0.0976
      20    C6      17.522687   21.079168   23.619286 C.3        1 MOL1        -0.2365
      21    H14     16.824405   21.008537   22.775236 H          1 MOL1         0.0987
      22    H15     18.317567   21.785676   23.350476 H          1 MOL1         0.0987
      23    H16     16.977227   21.506239   24.470766 H          1 MOL1         0.0987
@<TRIPOS>BOND
    1     1     2    1
    2     1     3    1
    3     1     4    1
    4     1     5    1
    5     5     6    1
    6     5     7    1
    7     5     8    1
    8     8     9    1
    9     8    10    1
   10     8    11    1
   11    11    12    1
   12    11    13    1
   13    11    14    1
   14    14    15    1
   15    14    16    1
   16    14    17    1
   17    17    18    1
   18    17    19    1
   19    17    20    1
   20    20    21    1
   21    20    22    1
   22    20    23    1
@<TRIPOS>SUBSTRUCTURE
       1 MOL1            1 RESIDUE      1      MOL     
@<SCITEGIC>MOL_PROPERTY
VConf Rank
SciTegic.value.IntegerValue
134

@<SCITEGIC>MOL_PROPERTY
Conf_Id
SciTegic.value.IntegerValue
83

@<SCITEGIC>MOL_PROPERTY
Delta U+W
SciTegic.value.DoubleValue
1.229

@<SCITEGIC>MOL_PROPERTY
U+W
SciTegic.value.DoubleValue
-7.154

@<SCITEGIC>MOL_PROPERTY
Grad RMS
SciTegic.value.DoubleValue
0.000000

@<SCITEGIC>MOL_PROPERTY
U
SciTegic.value.DoubleValue
48.727

@<SCITEGIC>MOL_PROPERTY
W
SciTegic.value.DoubleValue
-55.880

@<SCITEGIC>MOL_PROPERTY
W(PB)
SciTegic.value.DoubleValue
-57.960

@<SCITEGIC>MOL_PROPERTY
W(SA)
SciTegic.value.DoubleValue
2.080

@<SCITEGIC>MOL_PROPERTY
Valence
SciTegic.value.DoubleValue
2.671

@<SCITEGIC>MOL_PROPERTY
Coulomb
SciTegic.value.DoubleValue
45.371

@<SCITEGIC>MOL_PROPERTY
VdW
SciTegic.value.DoubleValue
0.684

@<SCITEGIC>MOL_PROPERTY
VdW6
SciTegic.value.DoubleValue
-6.511

@<SCITEGIC>MOL_PROPERTY
VdW12
SciTegic.value.DoubleValue
7.195

@<SCITEGIC>MOL_PROPERTY
Bond
SciTegic.value.DoubleValue
0.203

@<SCITEGIC>MOL_PROPERTY
Angle
SciTegic.value.DoubleValue
0.915

@<SCITEGIC>MOL_PROPERTY
Pdih
SciTegic.value.DoubleValue
1.554

@<SCITEGIC>MOL_PROPERTY
Idih
SciTegic.value.DoubleValue
0.000

@<SCITEGIC>MOL_PROPERTY
Tether
SciTegic.value.DoubleValue
0.000

@<TRIPOS>MOLECULE
guest-2_confgen4.mol2 : confsearch ligand conformer 135
          23          22           1
SMALL
USER_CHARGES
 
@<TRIPOS>ATOM
       1    N1      17.274847   17.779205   21.611141 N.4        1 MOL1        -0.5940
       2    H1      17.408456   17.225985   20.758704 H          1 MOL1         0.3649
       3    H2      17.499708   18.751638   21.380029 H          1 MOL1         0.3649
       4    H3      16.274630   17.746466   21.835483 H          1 MOL1         0.3649
       5    C1      18.126087   17.264919   22.755342 C.3        1 MOL1         0.0207
       6    H4      17.810678   16.240260   22.970092 H          1 MOL1         0.0950
       7    H5      17.914246   17.875428   23.636758 H          1 MOL1         0.0950
       8    C2      19.639672   17.281976   22.458617 C.3        1 MOL1        -0.1415
       9    H6      20.171326   16.844623   23.314144 H          1 MOL1         0.0976
      10    H7      19.843953   16.624096   21.603475 H          1 MOL1         0.0976
      11    C3      20.213904   18.691606   22.167329 C.3        1 MOL1        -0.1375
      12    H8      19.742852   19.108762   21.267418 H          1 MOL1         0.0976
      13    H9      21.280190   18.581872   21.930967 H          1 MOL1         0.0976
      14    C4      20.044677   19.676109   23.352465 C.3        1 MOL1        -0.1375
      15    H10     18.980283   19.767837   23.605458 H          1 MOL1         0.0976
      16    H11     20.540489   19.269945   24.244862 H          1 MOL1         0.0976
      17    C5      20.592125   21.093957   23.058438 C.3        1 MOL1        -0.1350
      18    H12     20.328937   21.753417   23.897311 H          1 MOL1         0.0976
      19    H13     20.091836   21.509800   22.172712 H          1 MOL1         0.0976
      20    C6      22.124237   21.134404   22.857592 C.3        1 MOL1        -0.2365
      21    H14     22.646975   20.693426   23.716249 H          1 MOL1         0.0987
      22    H15     22.470022   22.170722   22.750762 H          1 MOL1         0.0987
      23    H16     22.427805   20.591861   21.953858 H          1 MOL1         0.0987
@<TRIPOS>BOND
    1     1     2    1
    2     1     3    1
    3     1     4    1
    4     1     5    1
    5     5     6    1
    6     5     7    1
    7     5     8    1
    8     8     9    1
    9     8    10    1
   10     8    11    1
   11    11    12    1
   12    11    13    1
   13    11    14    1
   14    14    15    1
   15    14    16    1
   16    14    17    1
   17    17    18    1
   18    17    19    1
   19    17    20    1
   20    20    21    1
   21    20    22    1
   22    20    23    1
@<TRIPOS>SUBSTRUCTURE
       1 MOL1            1 RESIDUE      1      MOL     
@<SCITEGIC>MOL_PROPERTY
VConf Rank
SciTegic.value.IntegerValue
135

@<SCITEGIC>MOL_PROPERTY
Conf_Id
SciTegic.value.IntegerValue
50

@<SCITEGIC>MOL_PROPERTY
Delta U+W
SciTegic.value.DoubleValue
1.252

@<SCITEGIC>MOL_PROPERTY
U+W
SciTegic.value.DoubleValue
-7.130

@<SCITEGIC>MOL_PROPERTY
Grad RMS
SciTegic.value.DoubleValue
0.000000

@<SCITEGIC>MOL_PROPERTY
U
SciTegic.value.DoubleValue
48.727

@<SCITEGIC>MOL_PROPERTY
W
SciTegic.value.DoubleValue
-55.857

@<SCITEGIC>MOL_PROPERTY
W(PB)
SciTegic.value.DoubleValue
-57.937

@<SCITEGIC>MOL_PROPERTY
W(SA)
SciTegic.value.DoubleValue
2.080

@<SCITEGIC>MOL_PROPERTY
Valence
SciTegic.value.DoubleValue
2.671

@<SCITEGIC>MOL_PROPERTY
Coulomb
SciTegic.value.DoubleValue
45.371

@<SCITEGIC>MOL_PROPERTY
VdW
SciTegic.value.DoubleValue
0.684

@<SCITEGIC>MOL_PROPERTY
VdW6
SciTegic.value.DoubleValue
-6.511

@<SCITEGIC>MOL_PROPERTY
VdW12
SciTegic.value.DoubleValue
7.196

@<SCITEGIC>MOL_PROPERTY
Bond
SciTegic.value.DoubleValue
0.203

@<SCITEGIC>MOL_PROPERTY
Angle
SciTegic.value.DoubleValue
0.915

@<SCITEGIC>MOL_PROPERTY
Pdih
SciTegic.value.DoubleValue
1.554

@<SCITEGIC>MOL_PROPERTY
Idih
SciTegic.value.DoubleValue
0.000

@<SCITEGIC>MOL_PROPERTY
Tether
SciTegic.value.DoubleValue
0.000

@<TRIPOS>MOLECULE
guest-2_confgen4.mol2 : confsearch ligand conformer 136
          23          22           1
SMALL
USER_CHARGES
 
@<TRIPOS>ATOM
       1    N1      17.885644   21.484356   23.375293 N.4        1 MOL1        -0.5940
       2    H1      18.635592   21.570080   24.067942 H          1 MOL1         0.3649
       3    H2      17.018934   21.785861   23.833373 H          1 MOL1         0.3649
       4    H3      18.081344   22.161490   22.631104 H          1 MOL1         0.3649
       5    C1      17.775440   20.071078   22.837019 C.3        1 MOL1         0.0207
       6    H4      16.933769   20.046988   22.139464 H          1 MOL1         0.0950
       7    H5      17.543353   19.406441   23.673563 H          1 MOL1         0.0950
       8    C2      19.046946   19.577144   22.120038 C.3        1 MOL1        -0.1415
       9    H6      18.831511   18.599141   21.675334 H          1 MOL1         0.0976
      10    H7      19.278714   20.250563   21.284240 H          1 MOL1         0.0976
      11    C3      20.267705   19.477631   23.070050 C.3        1 MOL1        -0.1375
      12    H8      20.013853   18.882366   23.958067 H          1 MOL1         0.0976
      13    H9      20.507242   20.484702   23.436679 H          1 MOL1         0.0976
      14    C4      21.533819   18.898431   22.386245 C.3        1 MOL1        -0.1375
      15    H10     21.531969   19.137935   21.313945 H          1 MOL1         0.0976
      16    H11     22.412280   19.411277   22.801921 H          1 MOL1         0.0976
      17    C5      21.742891   17.376252   22.592321 C.3        1 MOL1        -0.1350
      18    H12     21.845489   17.160502   23.665027 H          1 MOL1         0.0976
      19    H13     22.699172   17.090421   22.132276 H          1 MOL1         0.0976
      20    C6      20.624205   16.493354   21.997287 C.3        1 MOL1        -0.2365
      21    H14     20.456592   16.726494   20.937859 H          1 MOL1         0.0987
      22    H15     19.679927   16.627186   22.539231 H          1 MOL1         0.0987
      23    H16     20.894846   15.431955   22.068517 H          1 MOL1         0.0987
@<TRIPOS>BOND
    1     1     2    1
    2     1     3    1
    3     1     4    1
    4     1     5    1
    5     5     6    1
    6     5     7    1
    7     5     8    1
    8     8     9    1
    9     8    10    1
   10     8    11    1
   11    11    12    1
   12    11    13    1
   13    11    14    1
   14    14    15    1
   15    14    16    1
   16    14    17    1
   17    17    18    1
   18    17    19    1
   19    17    20    1
   20    20    21    1
   21    20    22    1
   22    20    23    1
@<TRIPOS>SUBSTRUCTURE
       1 MOL1            1 RESIDUE      1      MOL     
@<SCITEGIC>MOL_PROPERTY
VConf Rank
SciTegic.value.IntegerValue
136

@<SCITEGIC>MOL_PROPERTY
Conf_Id
SciTegic.value.IntegerValue
55

@<SCITEGIC>MOL_PROPERTY
Delta U+W
SciTegic.value.DoubleValue
3.232

@<SCITEGIC>MOL_PROPERTY
U+W
SciTegic.value.DoubleValue
-5.150

@<SCITEGIC>MOL_PROPERTY
Grad RMS
SciTegic.value.DoubleValue
0.000000

@<SCITEGIC>MOL_PROPERTY
U
SciTegic.value.DoubleValue
50.625

@<SCITEGIC>MOL_PROPERTY
W
SciTegic.value.DoubleValue
-55.776

@<SCITEGIC>MOL_PROPERTY
W(PB)
SciTegic.value.DoubleValue
-57.839

@<SCITEGIC>MOL_PROPERTY
W(SA)
SciTegic.value.DoubleValue
2.064

@<SCITEGIC>MOL_PROPERTY
Valence
SciTegic.value.DoubleValue
4.837

@<SCITEGIC>MOL_PROPERTY
Coulomb
SciTegic.value.DoubleValue
45.097

@<SCITEGIC>MOL_PROPERTY
VdW
SciTegic.value.DoubleValue
0.692

@<SCITEGIC>MOL_PROPERTY
VdW6
SciTegic.value.DoubleValue
-6.655

@<SCITEGIC>MOL_PROPERTY
VdW12
SciTegic.value.DoubleValue
7.347

@<SCITEGIC>MOL_PROPERTY
Bond
SciTegic.value.DoubleValue
0.223

@<SCITEGIC>MOL_PROPERTY
Angle
SciTegic.value.DoubleValue
1.167

@<SCITEGIC>MOL_PROPERTY
Pdih
SciTegic.value.DoubleValue
3.447

@<SCITEGIC>MOL_PROPERTY
Idih
SciTegic.value.DoubleValue
0.000

@<SCITEGIC>MOL_PROPERTY
Tether
SciTegic.value.DoubleValue
0.000

@<TRIPOS>MOLECULE
guest-2_confgen4.mol2 : confsearch ligand conformer 137
          23          22           1
SMALL
USER_CHARGES
 
@<TRIPOS>ATOM
       1    N1      17.068922   19.649752   23.916864 N.4        1 MOL1        -0.5940
       2    H1      16.255729   19.038057   23.792871 H          1 MOL1         0.3649
       3    H2      16.714516   20.611387   23.957536 H          1 MOL1         0.3649
       4    H3      17.466542   19.439339   24.837940 H          1 MOL1         0.3649
       5    C1      18.085217   19.470459   22.807519 C.3        1 MOL1         0.0207
       6    H4      18.899973   20.174779   22.984851 H          1 MOL1         0.0950
       7    H5      17.602917   19.738244   21.863549 H          1 MOL1         0.0950
       8    C2      18.631088   18.031819   22.717366 C.3        1 MOL1        -0.1415
       9    H6      19.077819   17.731800   23.674593 H          1 MOL1         0.0976
      10    H7      17.782570   17.356041   22.546018 H          1 MOL1         0.0976
      11    C3      19.653446   17.840026   21.568687 C.3        1 MOL1        -0.1375
      12    H8      19.350498   18.430334   20.692695 H          1 MOL1         0.0976
      13    H9      19.612935   16.789980   21.247345 H          1 MOL1         0.0976
      14    C4      21.124850   18.157401   21.942470 C.3        1 MOL1        -0.1375
      15    H10     21.449657   17.487828   22.750842 H          1 MOL1         0.0976
      16    H11     21.756674   17.917038   21.076176 H          1 MOL1         0.0976
      17    C5      21.381943   19.624401   22.357581 C.3        1 MOL1        -0.1350
      18    H12     20.881088   19.836436   23.311049 H          1 MOL1         0.0976
      19    H13     20.957034   20.305404   21.607005 H          1 MOL1         0.0976
      20    C6      22.889526   19.914939   22.517151 C.3        1 MOL1        -0.2365
      21    H14     23.425622   19.753075   21.572897 H          1 MOL1         0.0987
      22    H15     23.337783   19.265664   23.280535 H          1 MOL1         0.0987
      23    H16     23.053290   20.956586   22.822412 H          1 MOL1         0.0987
@<TRIPOS>BOND
    1     1     2    1
    2     1     3    1
    3     1     4    1
    4     1     5    1
    5     5     6    1
    6     5     7    1
    7     5     8    1
    8     8     9    1
    9     8    10    1
   10     8    11    1
   11    11    12    1
   12    11    13    1
   13    11    14    1
   14    14    15    1
   15    14    16    1
   16    14    17    1
   17    17    18    1
   18    17    19    1
   19    17    20    1
   20    20    21    1
   21    20    22    1
   22    20    23    1
@<TRIPOS>SUBSTRUCTURE
       1 MOL1            1 RESIDUE      1      MOL     
@<SCITEGIC>MOL_PROPERTY
VConf Rank
SciTegic.value.IntegerValue
137

@<SCITEGIC>MOL_PROPERTY
Conf_Id
SciTegic.value.IntegerValue
93

@<SCITEGIC>MOL_PROPERTY
Delta U+W
SciTegic.value.DoubleValue
2.589

@<SCITEGIC>MOL_PROPERTY
U+W
SciTegic.value.DoubleValue
-5.793

@<SCITEGIC>MOL_PROPERTY
Grad RMS
SciTegic.value.DoubleValue
0.000000

@<SCITEGIC>MOL_PROPERTY
U
SciTegic.value.DoubleValue
50.122

@<SCITEGIC>MOL_PROPERTY
W
SciTegic.value.DoubleValue
-55.915

@<SCITEGIC>MOL_PROPERTY
W(PB)
SciTegic.value.DoubleValue
-58.031

@<SCITEGIC>MOL_PROPERTY
W(SA)
SciTegic.value.DoubleValue
2.115

@<SCITEGIC>MOL_PROPERTY
Valence
SciTegic.value.DoubleValue
4.132

@<SCITEGIC>MOL_PROPERTY
Coulomb
SciTegic.value.DoubleValue
45.536

@<SCITEGIC>MOL_PROPERTY
VdW
SciTegic.value.DoubleValue
0.454

@<SCITEGIC>MOL_PROPERTY
VdW6
SciTegic.value.DoubleValue
-6.262

@<SCITEGIC>MOL_PROPERTY
VdW12
SciTegic.value.DoubleValue
6.715

@<SCITEGIC>MOL_PROPERTY
Bond
SciTegic.value.DoubleValue
0.182

@<SCITEGIC>MOL_PROPERTY
Angle
SciTegic.value.DoubleValue
1.157

@<SCITEGIC>MOL_PROPERTY
Pdih
SciTegic.value.DoubleValue
2.794

@<SCITEGIC>MOL_PROPERTY
Idih
SciTegic.value.DoubleValue
0.000

@<SCITEGIC>MOL_PROPERTY
Tether
SciTegic.value.DoubleValue
0.000

@<TRIPOS>MOLECULE
guest-2_confgen4.mol2 : confsearch ligand conformer 138
          23          22           1
SMALL
USER_CHARGES
 
@<TRIPOS>ATOM
       1    N1      20.457151   21.927287   23.304159 N.4        1 MOL1        -0.5940
       2    H1      21.162145   21.918596   22.560073 H          1 MOL1         0.3649
       3    H2      20.947713   22.148465   24.177332 H          1 MOL1         0.3649
       4    H3      19.825181   22.711026   23.111298 H          1 MOL1         0.3649
       5    C1      19.713160   20.610458   23.394074 C.3        1 MOL1         0.0207
       6    H4      19.002632   20.681887   24.221992 H          1 MOL1         0.0950
       7    H5      20.439920   19.832835   23.635865 H          1 MOL1         0.0950
       8    C2      18.959517   20.254606   22.097472 C.3        1 MOL1        -0.1415
       9    H6      18.245689   21.061993   21.886300 H          1 MOL1         0.0976
      10    H7      19.654136   20.224890   21.247481 H          1 MOL1         0.0976
      11    C3      18.178703   18.919558   22.194633 C.3        1 MOL1        -0.1375
      12    H8      17.323634   18.973261   21.506541 H          1 MOL1         0.0976
      13    H9      17.745344   18.809159   23.198434 H          1 MOL1         0.0976
      14    C4      18.996627   17.654703   21.825016 C.3        1 MOL1        -0.1375
      15    H10     18.321489   16.788540   21.862292 H          1 MOL1         0.0976
      16    H11     19.336802   17.730459   20.782982 H          1 MOL1         0.0976
      17    C5      20.211162   17.382229   22.742167 C.3        1 MOL1        -0.1350
      18    H12     19.899948   17.418438   23.795500 H          1 MOL1         0.0976
      19    H13     20.970046   18.162353   22.599281 H          1 MOL1         0.0976
      20    C6      20.852459   16.010006   22.444806 C.3        1 MOL1        -0.2365
      21    H14     21.718815   15.837694   23.096545 H          1 MOL1         0.0987
      22    H15     21.197102   15.952828   21.404036 H          1 MOL1         0.0987
      23    H16     20.137322   15.194330   22.613523 H          1 MOL1         0.0987
@<TRIPOS>BOND
    1     1     2    1
    2     1     3    1
    3     1     4    1
    4     1     5    1
    5     5     6    1
    6     5     7    1
    7     5     8    1
    8     8     9    1
    9     8    10    1
   10     8    11    1
   11    11    12    1
   12    11    13    1
   13    11    14    1
   14    14    15    1
   15    14    16    1
   16    14    17    1
   17    17    18    1
   18    17    19    1
   19    17    20    1
   20    20    21    1
   21    20    22    1
   22    20    23    1
@<TRIPOS>SUBSTRUCTURE
       1 MOL1            1 RESIDUE      1      MOL     
@<SCITEGIC>MOL_PROPERTY
VConf Rank
SciTegic.value.IntegerValue
138

@<SCITEGIC>MOL_PROPERTY
Conf_Id
SciTegic.value.IntegerValue
70

@<SCITEGIC>MOL_PROPERTY
Delta U+W
SciTegic.value.DoubleValue
2.599

@<SCITEGIC>MOL_PROPERTY
U+W
SciTegic.value.DoubleValue
-5.783

@<SCITEGIC>MOL_PROPERTY
Grad RMS
SciTegic.value.DoubleValue
0.000000

@<SCITEGIC>MOL_PROPERTY
U
SciTegic.value.DoubleValue
50.122

@<SCITEGIC>MOL_PROPERTY
W
SciTegic.value.DoubleValue
-55.906

@<SCITEGIC>MOL_PROPERTY
W(PB)
SciTegic.value.DoubleValue
-58.010

@<SCITEGIC>MOL_PROPERTY
W(SA)
SciTegic.value.DoubleValue
2.105

@<SCITEGIC>MOL_PROPERTY
Valence
SciTegic.value.DoubleValue
4.132

@<SCITEGIC>MOL_PROPERTY
Coulomb
SciTegic.value.DoubleValue
45.536

@<SCITEGIC>MOL_PROPERTY
VdW
SciTegic.value.DoubleValue
0.454

@<SCITEGIC>MOL_PROPERTY
VdW6
SciTegic.value.DoubleValue
-6.262

@<SCITEGIC>MOL_PROPERTY
VdW12
SciTegic.value.DoubleValue
6.715

@<SCITEGIC>MOL_PROPERTY
Bond
SciTegic.value.DoubleValue
0.182

@<SCITEGIC>MOL_PROPERTY
Angle
SciTegic.value.DoubleValue
1.157

@<SCITEGIC>MOL_PROPERTY
Pdih
SciTegic.value.DoubleValue
2.794

@<SCITEGIC>MOL_PROPERTY
Idih
SciTegic.value.DoubleValue
0.000

@<SCITEGIC>MOL_PROPERTY
Tether
SciTegic.value.DoubleValue
0.000

@<TRIPOS>MOLECULE
guest-2_confgen4.mol2 : confsearch ligand conformer 139
          23          22           1
SMALL
USER_CHARGES
 
@<TRIPOS>ATOM
       1    N1      20.253721   16.577511   21.140860 N.4        1 MOL1        -0.5940
       2    H1      21.175839   16.227656   20.861920 H          1 MOL1         0.3649
       3    H2      19.556835   16.023117   20.632175 H          1 MOL1         0.3649
       4    H3      20.138265   16.366467   22.136649 H          1 MOL1         0.3649
       5    C1      20.106770   18.060498   20.862672 C.3        1 MOL1         0.0207
       6    H4      19.095840   18.361442   21.149725 H          1 MOL1         0.0950
       7    H5      20.212131   18.209213   19.784582 H          1 MOL1         0.0950
       8    C2      21.139535   18.933490   21.603661 C.3        1 MOL1        -0.1415
       9    H6      22.149268   18.646053   21.281894 H          1 MOL1         0.0976
      10    H7      21.011738   19.977155   21.289259 H          1 MOL1         0.0976
      11    C3      21.051137   18.839171   23.149719 C.3        1 MOL1        -0.1375
      12    H8      21.792606   19.520797   23.588825 H          1 MOL1         0.0976
      13    H9      21.349700   17.831489   23.468577 H          1 MOL1         0.0976
      14    C4      19.655286   19.159123   23.744725 C.3        1 MOL1        -0.1375
      15    H10     18.917277   18.427726   23.389349 H          1 MOL1         0.0976
      16    H11     19.706294   19.031782   24.834917 H          1 MOL1         0.0976
      17    C5      19.162556   20.591120   23.429298 C.3        1 MOL1        -0.1350
      18    H12     19.036126   20.718235   22.345879 H          1 MOL1         0.0976
      19    H13     19.917570   21.322341   23.750206 H          1 MOL1         0.0976
      20    C6      17.821774   20.898828   24.129301 C.3        1 MOL1        -0.2365
      21    H14     17.485790   21.916798   23.892942 H          1 MOL1         0.0987
      22    H15     17.918487   20.821139   25.220082 H          1 MOL1         0.0987
      23    H16     17.038272   20.201603   23.804946 H          1 MOL1         0.0987
@<TRIPOS>BOND
    1     1     2    1
    2     1     3    1
    3     1     4    1
    4     1     5    1
    5     5     6    1
    6     5     7    1
    7     5     8    1
    8     8     9    1
    9     8    10    1
   10     8    11    1
   11    11    12    1
   12    11    13    1
   13    11    14    1
   14    14    15    1
   15    14    16    1
   16    14    17    1
   17    17    18    1
   18    17    19    1
   19    17    20    1
   20    20    21    1
   21    20    22    1
   22    20    23    1
@<TRIPOS>SUBSTRUCTURE
       1 MOL1            1 RESIDUE      1      MOL     
@<SCITEGIC>MOL_PROPERTY
VConf Rank
SciTegic.value.IntegerValue
139

@<SCITEGIC>MOL_PROPERTY
Conf_Id
SciTegic.value.IntegerValue
72

@<SCITEGIC>MOL_PROPERTY
Delta U+W
SciTegic.value.DoubleValue
1.051

@<SCITEGIC>MOL_PROPERTY
U+W
SciTegic.value.DoubleValue
-7.331

@<SCITEGIC>MOL_PROPERTY
Grad RMS
SciTegic.value.DoubleValue
0.000000

@<SCITEGIC>MOL_PROPERTY
U
SciTegic.value.DoubleValue
48.590

@<SCITEGIC>MOL_PROPERTY
W
SciTegic.value.DoubleValue
-55.922

@<SCITEGIC>MOL_PROPERTY
W(PB)
SciTegic.value.DoubleValue
-58.012

@<SCITEGIC>MOL_PROPERTY
W(SA)
SciTegic.value.DoubleValue
2.090

@<SCITEGIC>MOL_PROPERTY
Valence
SciTegic.value.DoubleValue
2.601

@<SCITEGIC>MOL_PROPERTY
Coulomb
SciTegic.value.DoubleValue
45.520

@<SCITEGIC>MOL_PROPERTY
VdW
SciTegic.value.DoubleValue
0.469

@<SCITEGIC>MOL_PROPERTY
VdW6
SciTegic.value.DoubleValue
-6.867

@<SCITEGIC>MOL_PROPERTY
VdW12
SciTegic.value.DoubleValue
7.336

@<SCITEGIC>MOL_PROPERTY
Bond
SciTegic.value.DoubleValue
0.205

@<SCITEGIC>MOL_PROPERTY
Angle
SciTegic.value.DoubleValue
0.962

@<SCITEGIC>MOL_PROPERTY
Pdih
SciTegic.value.DoubleValue
1.434

@<SCITEGIC>MOL_PROPERTY
Idih
SciTegic.value.DoubleValue
0.000

@<SCITEGIC>MOL_PROPERTY
Tether
SciTegic.value.DoubleValue
0.000

@<TRIPOS>MOLECULE
guest-2_confgen4.mol2 : confsearch ligand conformer 140
          23          22           1
SMALL
USER_CHARGES
 
@<TRIPOS>ATOM
       1    N1      20.673041   17.833823   19.840110 N.4        1 MOL1        -0.5940
       2    H1      21.588553   17.477805   19.545074 H          1 MOL1         0.3649
       3    H2      20.254222   18.290696   19.023629 H          1 MOL1         0.3649
       4    H3      20.092671   17.018055   20.060008 H          1 MOL1         0.3649
       5    C1      20.789878   18.779185   21.018362 C.3        1 MOL1         0.0207
       6    H4      21.441785   19.606335   20.724781 H          1 MOL1         0.0950
       7    H5      21.269261   18.237155   21.837709 H          1 MOL1         0.0950
       8    C2      19.430776   19.331963   21.486442 C.3        1 MOL1        -0.1415
       9    H6      18.941576   19.841807   20.645923 H          1 MOL1         0.0976
      10    H7      18.770980   18.501793   21.769139 H          1 MOL1         0.0976
      11    C3      19.564514   20.327463   22.665491 C.3        1 MOL1        -0.1375
      12    H8      18.567453   20.700144   22.935542 H          1 MOL1         0.0976
      13    H9      20.126795   21.207694   22.324400 H          1 MOL1         0.0976
      14    C4      20.263006   19.752713   23.927446 C.3        1 MOL1        -0.1375
      15    H10     21.313909   19.533876   23.695030 H          1 MOL1         0.0976
      16    H11     20.288599   20.533497   24.700033 H          1 MOL1         0.0976
      17    C5      19.606230   18.481589   24.523355 C.3        1 MOL1        -0.1350
      18    H12     20.190658   18.162628   25.397654 H          1 MOL1         0.0976
      19    H13     19.663061   17.652463   23.805415 H          1 MOL1         0.0976
      20    C6      18.138643   18.696190   24.957696 C.3        1 MOL1        -0.2365
      21    H14     18.055217   19.529707   25.667081 H          1 MOL1         0.0987
      22    H15     17.747485   17.796185   25.449457 H          1 MOL1         0.0987
      23    H16     17.491851   18.910575   24.097895 H          1 MOL1         0.0987
@<TRIPOS>BOND
    1     1     2    1
    2     1     3    1
    3     1     4    1
    4     1     5    1
    5     5     6    1
    6     5     7    1
    7     5     8    1
    8     8     9    1
    9     8    10    1
   10     8    11    1
   11    11    12    1
   12    11    13    1
   13    11    14    1
   14    14    15    1
   15    14    16    1
   16    14    17    1
   17    17    18    1
   18    17    19    1
   19    17    20    1
   20    20    21    1
   21    20    22    1
   22    20    23    1
@<TRIPOS>SUBSTRUCTURE
       1 MOL1            1 RESIDUE      1      MOL     
@<SCITEGIC>MOL_PROPERTY
VConf Rank
SciTegic.value.IntegerValue
140

@<SCITEGIC>MOL_PROPERTY
Conf_Id
SciTegic.value.IntegerValue
26

@<SCITEGIC>MOL_PROPERTY
Delta U+W
SciTegic.value.DoubleValue
1.076

@<SCITEGIC>MOL_PROPERTY
U+W
SciTegic.value.DoubleValue
-7.306

@<SCITEGIC>MOL_PROPERTY
Grad RMS
SciTegic.value.DoubleValue
0.000000

@<SCITEGIC>MOL_PROPERTY
U
SciTegic.value.DoubleValue
48.641

@<SCITEGIC>MOL_PROPERTY
W
SciTegic.value.DoubleValue
-55.947

@<SCITEGIC>MOL_PROPERTY
W(PB)
SciTegic.value.DoubleValue
-58.031

@<SCITEGIC>MOL_PROPERTY
W(SA)
SciTegic.value.DoubleValue
2.084

@<SCITEGIC>MOL_PROPERTY
Valence
SciTegic.value.DoubleValue
2.922

@<SCITEGIC>MOL_PROPERTY
Coulomb
SciTegic.value.DoubleValue
45.269

@<SCITEGIC>MOL_PROPERTY
VdW
SciTegic.value.DoubleValue
0.449

@<SCITEGIC>MOL_PROPERTY
VdW6
SciTegic.value.DoubleValue
-7.045

@<SCITEGIC>MOL_PROPERTY
VdW12
SciTegic.value.DoubleValue
7.494

@<SCITEGIC>MOL_PROPERTY
Bond
SciTegic.value.DoubleValue
0.220

@<SCITEGIC>MOL_PROPERTY
Angle
SciTegic.value.DoubleValue
1.205

@<SCITEGIC>MOL_PROPERTY
Pdih
SciTegic.value.DoubleValue
1.497

@<SCITEGIC>MOL_PROPERTY
Idih
SciTegic.value.DoubleValue
0.000

@<SCITEGIC>MOL_PROPERTY
Tether
SciTegic.value.DoubleValue
0.000

@<TRIPOS>MOLECULE
guest-2_confgen4.mol2 : confsearch ligand conformer 141
          23          22           1
SMALL
USER_CHARGES
 
@<TRIPOS>ATOM
       1    N1      18.321330   16.476337   23.737827 N.4        1 MOL1        -0.5940
       2    H1      17.340598   16.631335   23.992625 H          1 MOL1         0.3649
       3    H2      18.666854   15.715623   24.332711 H          1 MOL1         0.3649
       4    H3      18.331134   16.128731   22.773598 H          1 MOL1         0.3649
       5    C1      19.151181   17.734326   23.894175 C.3        1 MOL1         0.0207
       6    H4      20.184762   17.489167   23.636223 H          1 MOL1         0.0950
       7    H5      19.119975   18.031368   24.945908 H          1 MOL1         0.0950
       8    C2      18.657800   18.896923   23.012834 C.3        1 MOL1        -0.1415
       9    H6      18.676346   18.595382   21.957769 H          1 MOL1         0.0976
      10    H7      17.607952   19.110056   23.253922 H          1 MOL1         0.0976
      11    C3      19.488120   20.189658   23.208966 C.3        1 MOL1        -0.1375
      12    H8      19.358106   20.541394   24.241773 H          1 MOL1         0.0976
      13    H9      19.073596   20.982646   22.572339 H          1 MOL1         0.0976
      14    C4      21.007118   20.037607   22.925624 C.3        1 MOL1        -0.1375
      15    H10     21.491451   21.011796   23.079066 H          1 MOL1         0.0976
      16    H11     21.452229   19.366570   23.672543 H          1 MOL1         0.0976
      17    C5      21.365092   19.519237   21.509513 C.3        1 MOL1        -0.1350
      18    H12     20.980409   18.500146   21.369544 H          1 MOL1         0.0976
      19    H13     22.458470   19.441090   21.431346 H          1 MOL1         0.0976
      20    C6      20.849432   20.432248   20.374162 C.3        1 MOL1        -0.2365
      21    H14     19.753049   20.455098   20.342843 H          1 MOL1         0.0987
      22    H15     21.200593   20.069663   19.399452 H          1 MOL1         0.0987
      23    H16     21.211380   21.460866   20.500177 H          1 MOL1         0.0987
@<TRIPOS>BOND
    1     1     2    1
    2     1     3    1
    3     1     4    1
    4     1     5    1
    5     5     6    1
    6     5     7    1
    7     5     8    1
    8     8     9    1
    9     8    10    1
   10     8    11    1
   11    11    12    1
   12    11    13    1
   13    11    14    1
   14    14    15    1
   15    14    16    1
   16    14    17    1
   17    17    18    1
   18    17    19    1
   19    17    20    1
   20    20    21    1
   21    20    22    1
   22    20    23    1
@<TRIPOS>SUBSTRUCTURE
       1 MOL1            1 RESIDUE      1      MOL     
@<SCITEGIC>MOL_PROPERTY
VConf Rank
SciTegic.value.IntegerValue
141

@<SCITEGIC>MOL_PROPERTY
Conf_Id
SciTegic.value.IntegerValue
90

@<SCITEGIC>MOL_PROPERTY
Delta U+W
SciTegic.value.DoubleValue
1.131

@<SCITEGIC>MOL_PROPERTY
U+W
SciTegic.value.DoubleValue
-7.251

@<SCITEGIC>MOL_PROPERTY
Grad RMS
SciTegic.value.DoubleValue
0.000000

@<SCITEGIC>MOL_PROPERTY
U
SciTegic.value.DoubleValue
48.641

@<SCITEGIC>MOL_PROPERTY
W
SciTegic.value.DoubleValue
-55.892

@<SCITEGIC>MOL_PROPERTY
W(PB)
SciTegic.value.DoubleValue
-57.962

@<SCITEGIC>MOL_PROPERTY
W(SA)
SciTegic.value.DoubleValue
2.070

@<SCITEGIC>MOL_PROPERTY
Valence
SciTegic.value.DoubleValue
2.922

@<SCITEGIC>MOL_PROPERTY
Coulomb
SciTegic.value.DoubleValue
45.269

@<SCITEGIC>MOL_PROPERTY
VdW
SciTegic.value.DoubleValue
0.450

@<SCITEGIC>MOL_PROPERTY
VdW6
SciTegic.value.DoubleValue
-7.045

@<SCITEGIC>MOL_PROPERTY
VdW12
SciTegic.value.DoubleValue
7.495

@<SCITEGIC>MOL_PROPERTY
Bond
SciTegic.value.DoubleValue
0.220

@<SCITEGIC>MOL_PROPERTY
Angle
SciTegic.value.DoubleValue
1.205

@<SCITEGIC>MOL_PROPERTY
Pdih
SciTegic.value.DoubleValue
1.497

@<SCITEGIC>MOL_PROPERTY
Idih
SciTegic.value.DoubleValue
0.000

@<SCITEGIC>MOL_PROPERTY
Tether
SciTegic.value.DoubleValue
0.000

@<TRIPOS>MOLECULE
guest-2_confgen4.mol2 : confsearch ligand conformer 142
          23          22           1
SMALL
USER_CHARGES
 
@<TRIPOS>ATOM
       1    N1      19.354412   21.548066   22.673893 N.4        1 MOL1        -0.5940
       2    H1      19.287716   22.313847   21.994936 H          1 MOL1         0.3649
       3    H2      20.257988   21.089391   22.522933 H          1 MOL1         0.3649
       4    H3      19.382497   21.975513   23.605061 H          1 MOL1         0.3649
       5    C1      18.202436   20.572033   22.537125 C.3        1 MOL1         0.0207
       6    H4      18.211283   20.178039   21.517611 H          1 MOL1         0.0950
       7    H5      17.273479   21.131742   22.675996 H          1 MOL1         0.0950
       8    C2      18.253854   19.407257   23.546849 C.3        1 MOL1        -0.1415
       9    H6      18.196702   19.811942   24.566042 H          1 MOL1         0.0976
      10    H7      17.357993   18.786292   23.413889 H          1 MOL1         0.0976
      11    C3      19.515967   18.517775   23.418496 C.3        1 MOL1        -0.1375
      12    H8      19.469079   17.731201   24.184142 H          1 MOL1         0.0976
      13    H9      20.408564   19.113847   23.646690 H          1 MOL1         0.0976
      14    C4      19.655122   17.859898   22.022320 C.3        1 MOL1        -0.1375
      15    H10     18.719196   17.339338   21.776704 H          1 MOL1         0.0976
      16    H11     19.792019   18.630557   21.252077 H          1 MOL1         0.0976
      17    C5      20.819750   16.844225   21.936041 C.3        1 MOL1        -0.1350
      18    H12     20.783268   16.348120   20.956049 H          1 MOL1         0.0976
      19    H13     20.680012   16.053136   22.685995 H          1 MOL1         0.0976
      20    C6      22.212127   17.490941   22.115435 C.3        1 MOL1        -0.2365
      21    H14     22.366288   18.303545   21.393739 H          1 MOL1         0.0987
      22    H15     23.003933   16.747369   21.957066 H          1 MOL1         0.0987
      23    H16     22.340561   17.898330   23.125855 H          1 MOL1         0.0987
@<TRIPOS>BOND
    1     1     2    1
    2     1     3    1
    3     1     4    1
    4     1     5    1
    5     5     6    1
    6     5     7    1
    7     5     8    1
    8     8     9    1
    9     8    10    1
   10     8    11    1
   11    11    12    1
   12    11    13    1
   13    11    14    1
   14    14    15    1
   15    14    16    1
   16    14    17    1
   17    17    18    1
   18    17    19    1
   19    17    20    1
   20    20    21    1
   21    20    22    1
   22    20    23    1
@<TRIPOS>SUBSTRUCTURE
       1 MOL1            1 RESIDUE      1      MOL     
@<SCITEGIC>MOL_PROPERTY
VConf Rank
SciTegic.value.IntegerValue
142

@<SCITEGIC>MOL_PROPERTY
Conf_Id
SciTegic.value.IntegerValue
85

@<SCITEGIC>MOL_PROPERTY
Delta U+W
SciTegic.value.DoubleValue
1.193

@<SCITEGIC>MOL_PROPERTY
U+W
SciTegic.value.DoubleValue
-7.189

@<SCITEGIC>MOL_PROPERTY
Grad RMS
SciTegic.value.DoubleValue
0.000000

@<SCITEGIC>MOL_PROPERTY
U
SciTegic.value.DoubleValue
48.775

@<SCITEGIC>MOL_PROPERTY
W
SciTegic.value.DoubleValue
-55.965

@<SCITEGIC>MOL_PROPERTY
W(PB)
SciTegic.value.DoubleValue
-58.038

@<SCITEGIC>MOL_PROPERTY
W(SA)
SciTegic.value.DoubleValue
2.073

@<SCITEGIC>MOL_PROPERTY
Valence
SciTegic.value.DoubleValue
2.602

@<SCITEGIC>MOL_PROPERTY
Coulomb
SciTegic.value.DoubleValue
45.581

@<SCITEGIC>MOL_PROPERTY
VdW
SciTegic.value.DoubleValue
0.592

@<SCITEGIC>MOL_PROPERTY
VdW6
SciTegic.value.DoubleValue
-6.616

@<SCITEGIC>MOL_PROPERTY
VdW12
SciTegic.value.DoubleValue
7.208

@<SCITEGIC>MOL_PROPERTY
Bond
SciTegic.value.DoubleValue
0.196

@<SCITEGIC>MOL_PROPERTY
Angle
SciTegic.value.DoubleValue
0.832

@<SCITEGIC>MOL_PROPERTY
Pdih
SciTegic.value.DoubleValue
1.574

@<SCITEGIC>MOL_PROPERTY
Idih
SciTegic.value.DoubleValue
0.000

@<SCITEGIC>MOL_PROPERTY
Tether
SciTegic.value.DoubleValue
0.000

@<TRIPOS>MOLECULE
guest-2_confgen4.mol2 : confsearch ligand conformer 143
          23          22           1
SMALL
USER_CHARGES
 
@<TRIPOS>ATOM
       1    N1      19.604894   17.961103   24.379968 N.4        1 MOL1        -0.5940
       2    H1      20.162811   17.850492   23.527228 H          1 MOL1         0.3649
       3    H2      19.264551   17.031116   24.647543 H          1 MOL1         0.3649
       4    H3      20.239512   18.271921   25.122710 H          1 MOL1         0.3649
       5    C1      18.464936   18.939034   24.170658 C.3        1 MOL1         0.0207
       6    H4      17.921911   19.003798   25.117463 H          1 MOL1         0.0950
       7    H5      17.786122   18.529876   23.417711 H          1 MOL1         0.0950
       8    C2      18.919709   20.352522   23.753583 C.3        1 MOL1        -0.1415
       9    H6      18.114251   21.052317   24.013123 H          1 MOL1         0.0976
      10    H7      19.785285   20.656927   24.356897 H          1 MOL1         0.0976
      11    C3      19.232141   20.529058   22.243175 C.3        1 MOL1        -0.1375
      12    H8      19.486093   21.585928   22.081809 H          1 MOL1         0.0976
      13    H9      18.324817   20.351511   21.649280 H          1 MOL1         0.0976
      14    C4      20.401532   19.666719   21.702660 C.3        1 MOL1        -0.1375
      15    H10     20.946894   20.251618   20.948861 H          1 MOL1         0.0976
      16    H11     21.126721   19.467029   22.502629 H          1 MOL1         0.0976
      17    C5      19.930965   18.351843   21.034251 C.3        1 MOL1        -0.1350
      18    H12     19.343596   18.591977   20.136773 H          1 MOL1         0.0976
      19    H13     19.258050   17.791578   21.694225 H          1 MOL1         0.0976
      20    C6      21.122788   17.456221   20.635196 C.3        1 MOL1        -0.2365
      21    H14     21.786300   17.974750   19.930747 H          1 MOL1         0.0987
      22    H15     20.770871   16.536546   20.149880 H          1 MOL1         0.0987
      23    H16     21.716055   17.167954   21.512523 H          1 MOL1         0.0987
@<TRIPOS>BOND
    1     1     2    1
    2     1     3    1
    3     1     4    1
    4     1     5    1
    5     5     6    1
    6     5     7    1
    7     5     8    1
    8     8     9    1
    9     8    10    1
   10     8    11    1
   11    11    12    1
   12    11    13    1
   13    11    14    1
   14    14    15    1
   15    14    16    1
   16    14    17    1
   17    17    18    1
   18    17    19    1
   19    17    20    1
   20    20    21    1
   21    20    22    1
   22    20    23    1
@<TRIPOS>SUBSTRUCTURE
       1 MOL1            1 RESIDUE      1      MOL     
@<SCITEGIC>MOL_PROPERTY
VConf Rank
SciTegic.value.IntegerValue
143

@<SCITEGIC>MOL_PROPERTY
Conf_Id
SciTegic.value.IntegerValue
82

@<SCITEGIC>MOL_PROPERTY
Delta U+W
SciTegic.value.DoubleValue
5.994

@<SCITEGIC>MOL_PROPERTY
U+W
SciTegic.value.DoubleValue
-2.388

@<SCITEGIC>MOL_PROPERTY
Grad RMS
SciTegic.value.DoubleValue
0.000000

@<SCITEGIC>MOL_PROPERTY
U
SciTegic.value.DoubleValue
52.836

@<SCITEGIC>MOL_PROPERTY
W
SciTegic.value.DoubleValue
-55.224

@<SCITEGIC>MOL_PROPERTY
W(PB)
SciTegic.value.DoubleValue
-57.261

@<SCITEGIC>MOL_PROPERTY
W(SA)
SciTegic.value.DoubleValue
2.037

@<SCITEGIC>MOL_PROPERTY
Valence
SciTegic.value.DoubleValue
5.785

@<SCITEGIC>MOL_PROPERTY
Coulomb
SciTegic.value.DoubleValue
46.744

@<SCITEGIC>MOL_PROPERTY
VdW
SciTegic.value.DoubleValue
0.307

@<SCITEGIC>MOL_PROPERTY
VdW6
SciTegic.value.DoubleValue
-7.672

@<SCITEGIC>MOL_PROPERTY
VdW12
SciTegic.value.DoubleValue
7.979

@<SCITEGIC>MOL_PROPERTY
Bond
SciTegic.value.DoubleValue
0.217

@<SCITEGIC>MOL_PROPERTY
Angle
SciTegic.value.DoubleValue
1.470

@<SCITEGIC>MOL_PROPERTY
Pdih
SciTegic.value.DoubleValue
4.098

@<SCITEGIC>MOL_PROPERTY
Idih
SciTegic.value.DoubleValue
0.000

@<SCITEGIC>MOL_PROPERTY
Tether
SciTegic.value.DoubleValue
0.000

@<TRIPOS>MOLECULE
guest-2_confgen4.mol2 : confsearch ligand conformer 144
          23          22           1
SMALL
USER_CHARGES
 
@<TRIPOS>ATOM
       1    N1      18.983484   17.447905   21.486937 N.4        1 MOL1        -0.5940
       2    H1      18.117704   17.045753   21.860720 H          1 MOL1         0.3649
       3    H2      19.037202   17.175946   20.499286 H          1 MOL1         0.3649
       4    H3      18.886320   18.467779   21.519953 H          1 MOL1         0.3649
       5    C1      20.199247   16.983880   22.265561 C.3        1 MOL1         0.0207
       6    H4      21.096073   17.387385   21.788051 H          1 MOL1         0.0950
       7    H5      20.233210   15.893997   22.184864 H          1 MOL1         0.0950
       8    C2      20.177002   17.377711   23.756574 C.3        1 MOL1        -0.1415
       9    H6      19.174948   17.204766   24.171122 H          1 MOL1         0.0976
      10    H7      20.844518   16.690473   24.293198 H          1 MOL1         0.0976
      11    C3      20.640794   18.826608   24.065942 C.3        1 MOL1        -0.1375
      12    H8      21.690724   18.955836   23.768589 H          1 MOL1         0.0976
      13    H9      20.628033   18.949296   25.157861 H          1 MOL1         0.0976
      14    C4      19.768377   19.948613   23.446866 C.3        1 MOL1        -0.1375
      15    H10     18.732601   19.603069   23.330708 H          1 MOL1         0.0976
      16    H11     19.722395   20.786439   24.156565 H          1 MOL1         0.0976
      17    C5      20.330120   20.489552   22.109357 C.3        1 MOL1        -0.1350
      18    H12     20.534963   19.672614   21.407264 H          1 MOL1         0.0976
      19    H13     21.296778   20.978977   22.294208 H          1 MOL1         0.0976
      20    C6      19.366976   21.501533   21.453555 C.3        1 MOL1        -0.2365
      21    H14     18.398711   21.038676   21.223351 H          1 MOL1         0.0987
      22    H15     19.788221   21.885209   20.515192 H          1 MOL1         0.0987
      23    H16     19.186040   22.358570   22.115459 H          1 MOL1         0.0987
@<TRIPOS>BOND
    1     1     2    1
    2     1     3    1
    3     1     4    1
    4     1     5    1
    5     5     6    1
    6     5     7    1
    7     5     8    1
    8     8     9    1
    9     8    10    1
   10     8    11    1
   11    11    12    1
   12    11    13    1
   13    11    14    1
   14    14    15    1
   15    14    16    1
   16    14    17    1
   17    17    18    1
   18    17    19    1
   19    17    20    1
   20    20    21    1
   21    20    22    1
   22    20    23    1
@<TRIPOS>SUBSTRUCTURE
       1 MOL1            1 RESIDUE      1      MOL     
@<SCITEGIC>MOL_PROPERTY
VConf Rank
SciTegic.value.IntegerValue
144

@<SCITEGIC>MOL_PROPERTY
Conf_Id
SciTegic.value.IntegerValue
5

@<SCITEGIC>MOL_PROPERTY
Delta U+W
SciTegic.value.DoubleValue
6.087

@<SCITEGIC>MOL_PROPERTY
U+W
SciTegic.value.DoubleValue
-2.295

@<SCITEGIC>MOL_PROPERTY
Grad RMS
SciTegic.value.DoubleValue
0.000000

@<SCITEGIC>MOL_PROPERTY
U
SciTegic.value.DoubleValue
52.836

@<SCITEGIC>MOL_PROPERTY
W
SciTegic.value.DoubleValue
-55.131

@<SCITEGIC>MOL_PROPERTY
W(PB)
SciTegic.value.DoubleValue
-57.202

@<SCITEGIC>MOL_PROPERTY
W(SA)
SciTegic.value.DoubleValue
2.071

@<SCITEGIC>MOL_PROPERTY
Valence
SciTegic.value.DoubleValue
5.785

@<SCITEGIC>MOL_PROPERTY
Coulomb
SciTegic.value.DoubleValue
46.744

@<SCITEGIC>MOL_PROPERTY
VdW
SciTegic.value.DoubleValue
0.307

@<SCITEGIC>MOL_PROPERTY
VdW6
SciTegic.value.DoubleValue
-7.672

@<SCITEGIC>MOL_PROPERTY
VdW12
SciTegic.value.DoubleValue
7.980

@<SCITEGIC>MOL_PROPERTY
Bond
SciTegic.value.DoubleValue
0.217

@<SCITEGIC>MOL_PROPERTY
Angle
SciTegic.value.DoubleValue
1.470

@<SCITEGIC>MOL_PROPERTY
Pdih
SciTegic.value.DoubleValue
4.098

@<SCITEGIC>MOL_PROPERTY
Idih
SciTegic.value.DoubleValue
0.000

@<SCITEGIC>MOL_PROPERTY
Tether
SciTegic.value.DoubleValue
0.000

@<TRIPOS>MOLECULE
guest-2_confgen4.mol2 : confsearch ligand conformer 145
          23          22           1
SMALL
USER_CHARGES
 
@<TRIPOS>ATOM
       1    N1      20.950644   21.767742   25.001712 N.4        1 MOL1        -0.5940
       2    H1      21.887437   21.384765   25.164904 H          1 MOL1         0.3649
       3    H2      20.660922   22.227125   25.871840 H          1 MOL1         0.3649
       4    H3      21.044629   22.503208   24.293799 H          1 MOL1         0.3649
       5    C1      19.967503   20.695934   24.576791 C.3        1 MOL1         0.0207
       6    H4      18.988867   21.166775   24.450001 H          1 MOL1         0.0950
       7    H5      19.894744   19.964625   25.386353 H          1 MOL1         0.0950
       8    C2      20.373919   19.986566   23.272874 C.3        1 MOL1        -0.1415
       9    H6      20.461573   20.727030   22.466568 H          1 MOL1         0.0976
      10    H7      21.364309   19.529215   23.399592 H          1 MOL1         0.0976
      11    C3      19.347415   18.902985   22.874974 C.3        1 MOL1        -0.1375
      12    H8      18.356923   19.363618   22.754364 H          1 MOL1         0.0976
      13    H9      19.258744   18.167068   23.686372 H          1 MOL1         0.0976
      14    C4      19.745843   18.183808   21.566142 C.3        1 MOL1        -0.1375
      15    H10     19.834404   18.919492   20.754700 H          1 MOL1         0.0976
      16    H11     20.736200   17.723154   21.686580 H          1 MOL1         0.0976
      17    C5      18.719064   17.100112   21.168540 C.3        1 MOL1        -0.1350
      18    H12     17.726937   17.556465   21.044450 H          1 MOL1         0.0976
      19    H13     18.628665   16.360231   21.976239 H          1 MOL1         0.0976
      20    C6      19.120245   16.384216   19.861232 C.3        1 MOL1        -0.2365
      21    H14     18.379599   15.618838   19.595363 H          1 MOL1         0.0987
      22    H15     20.094244   15.888536   19.965427 H          1 MOL1         0.0987
      23    H16     19.185499   17.094121   19.026363 H          1 MOL1         0.0987
@<TRIPOS>BOND
    1     1     2    1
    2     1     3    1
    3     1     4    1
    4     1     5    1
    5     5     6    1
    6     5     7    1
    7     5     8    1
    8     8     9    1
    9     8    10    1
   10     8    11    1
   11    11    12    1
   12    11    13    1
   13    11    14    1
   14    14    15    1
   15    14    16    1
   16    14    17    1
   17    17    18    1
   18    17    19    1
   19    17    20    1
   20    20    21    1
   21    20    22    1
   22    20    23    1
@<TRIPOS>SUBSTRUCTURE
       1 MOL1            1 RESIDUE      1      MOL     
@<SCITEGIC>MOL_PROPERTY
VConf Rank
SciTegic.value.IntegerValue
145

@<SCITEGIC>MOL_PROPERTY
Conf_Id
SciTegic.value.IntegerValue
40

@<SCITEGIC>MOL_PROPERTY
Delta U+W
SciTegic.value.DoubleValue
0.000

@<SCITEGIC>MOL_PROPERTY
U+W
SciTegic.value.DoubleValue
-8.382

@<SCITEGIC>MOL_PROPERTY
Grad RMS
SciTegic.value.DoubleValue
0.000000

@<SCITEGIC>MOL_PROPERTY
U
SciTegic.value.DoubleValue
46.604

@<SCITEGIC>MOL_PROPERTY
W
SciTegic.value.DoubleValue
-54.986

@<SCITEGIC>MOL_PROPERTY
W(PB)
SciTegic.value.DoubleValue
-57.162

@<SCITEGIC>MOL_PROPERTY
W(SA)
SciTegic.value.DoubleValue
2.176

@<SCITEGIC>MOL_PROPERTY
Valence
SciTegic.value.DoubleValue
1.727

@<SCITEGIC>MOL_PROPERTY
Coulomb
SciTegic.value.DoubleValue
44.434

@<SCITEGIC>MOL_PROPERTY
VdW
SciTegic.value.DoubleValue
0.443

@<SCITEGIC>MOL_PROPERTY
VdW6
SciTegic.value.DoubleValue
-4.623

@<SCITEGIC>MOL_PROPERTY
VdW12
SciTegic.value.DoubleValue
5.066

@<SCITEGIC>MOL_PROPERTY
Bond
SciTegic.value.DoubleValue
0.112

@<SCITEGIC>MOL_PROPERTY
Angle
SciTegic.value.DoubleValue
0.386

@<SCITEGIC>MOL_PROPERTY
Pdih
SciTegic.value.DoubleValue
1.228

@<SCITEGIC>MOL_PROPERTY
Idih
SciTegic.value.DoubleValue
0.000

@<SCITEGIC>MOL_PROPERTY
Tether
SciTegic.value.DoubleValue
0.000

@<TRIPOS>MOLECULE
guest-2_confgen4.mol2 : confsearch ligand conformer 146
          23          22           1
SMALL
USER_CHARGES
 
@<TRIPOS>ATOM
       1    N1      22.234704   20.190294   24.914474 N.4        1 MOL1        -0.5940
       2    H1      22.556751   21.125956   24.646774 H          1 MOL1         0.3649
       3    H2      22.973624   19.530354   24.651209 H          1 MOL1         0.3649
       4    H3      22.174645   20.177622   25.938321 H          1 MOL1         0.3649
       5    C1      20.909123   19.842223   24.268359 C.3        1 MOL1         0.0207
       6    H4      20.165263   20.565395   24.613474 H          1 MOL1         0.0950
       7    H5      20.614876   18.850595   24.621362 H          1 MOL1         0.0950
       8    C2      20.966977   19.853184   22.728987 C.3        1 MOL1        -0.1415
       9    H6      21.309588   20.840379   22.391331 H          1 MOL1         0.0976
      10    H7      21.713132   19.126105   22.381725 H          1 MOL1         0.0976
      11    C3      19.598872   19.547237   22.074536 C.3        1 MOL1        -0.1375
      12    H8      19.698327   19.686380   20.990235 H          1 MOL1         0.0976
      13    H9      18.856813   20.282027   22.416303 H          1 MOL1         0.0976
      14    C4      19.090379   18.113144   22.370150 C.3        1 MOL1        -0.1375
      15    H10     19.823348   17.378402   22.009411 H          1 MOL1         0.0976
      16    H11     19.014742   17.966608   23.455651 H          1 MOL1         0.0976
      17    C5      17.706322   17.809693   21.746587 C.3        1 MOL1        -0.1350
      18    H12     16.966489   18.535482   22.112205 H          1 MOL1         0.0976
      19    H13     17.369992   16.824629   22.099299 H          1 MOL1         0.0976
      20    C6      17.713149   17.807319   20.200839 C.3        1 MOL1        -0.2365
      21    H14     17.920832   18.805476   19.796109 H          1 MOL1         0.0987
      22    H15     16.735695   17.492156   19.813279 H          1 MOL1         0.0987
      23    H16     18.468353   17.113011   19.810179 H          1 MOL1         0.0987
@<TRIPOS>BOND
    1     1     2    1
    2     1     3    1
    3     1     4    1
    4     1     5    1
    5     5     6    1
    6     5     7    1
    7     5     8    1
    8     8     9    1
    9     8    10    1
   10     8    11    1
   11    11    12    1
   12    11    13    1
   13    11    14    1
   14    14    15    1
   15    14    16    1
   16    14    17    1
   17    17    18    1
   18    17    19    1
   19    17    20    1
   20    20    21    1
   21    20    22    1
   22    20    23    1
@<TRIPOS>SUBSTRUCTURE
       1 MOL1            1 RESIDUE      1      MOL     
@<SCITEGIC>MOL_PROPERTY
VConf Rank
SciTegic.value.IntegerValue
146

@<SCITEGIC>MOL_PROPERTY
Conf_Id
SciTegic.value.IntegerValue
65

@<SCITEGIC>MOL_PROPERTY
Delta U+W
SciTegic.value.DoubleValue
1.004

@<SCITEGIC>MOL_PROPERTY
U+W
SciTegic.value.DoubleValue
-7.378

@<SCITEGIC>MOL_PROPERTY
Grad RMS
SciTegic.value.DoubleValue
0.000000

@<SCITEGIC>MOL_PROPERTY
U
SciTegic.value.DoubleValue
48.047

@<SCITEGIC>MOL_PROPERTY
W
SciTegic.value.DoubleValue
-55.425

@<SCITEGIC>MOL_PROPERTY
W(PB)
SciTegic.value.DoubleValue
-57.542

@<SCITEGIC>MOL_PROPERTY
W(SA)
SciTegic.value.DoubleValue
2.116

@<SCITEGIC>MOL_PROPERTY
Valence
SciTegic.value.DoubleValue
2.583

@<SCITEGIC>MOL_PROPERTY
Coulomb
SciTegic.value.DoubleValue
44.791

@<SCITEGIC>MOL_PROPERTY
VdW
SciTegic.value.DoubleValue
0.673

@<SCITEGIC>MOL_PROPERTY
VdW6
SciTegic.value.DoubleValue
-5.788

@<SCITEGIC>MOL_PROPERTY
VdW12
SciTegic.value.DoubleValue
6.462

@<SCITEGIC>MOL_PROPERTY
Bond
SciTegic.value.DoubleValue
0.177

@<SCITEGIC>MOL_PROPERTY
Angle
SciTegic.value.DoubleValue
0.787

@<SCITEGIC>MOL_PROPERTY
Pdih
SciTegic.value.DoubleValue
1.619

@<SCITEGIC>MOL_PROPERTY
Idih
SciTegic.value.DoubleValue
0.000

@<SCITEGIC>MOL_PROPERTY
Tether
SciTegic.value.DoubleValue
0.000

@<TRIPOS>MOLECULE
guest-2_confgen4.mol2 : confsearch ligand conformer 147
          23          22           1
SMALL
USER_CHARGES
 
@<TRIPOS>ATOM
       1    N1      21.388633   21.652086   20.814860 N.4        1 MOL1        -0.5940
       2    H1      22.090911   22.107464   21.406700 H          1 MOL1         0.3649
       3    H2      20.935797   22.391744   20.267252 H          1 MOL1         0.3649
       4    H3      21.894175   21.056852   20.150813 H          1 MOL1         0.3649
       5    C1      20.386280   20.862792   21.632221 C.3        1 MOL1         0.0207
       6    H4      19.655298   20.433941   20.942096 H          1 MOL1         0.0950
       7    H5      19.866659   21.560565   22.294426 H          1 MOL1         0.0950
       8    C2      21.036596   19.743211   22.466943 C.3        1 MOL1        -0.1415
       9    H6      21.557678   19.041371   21.802203 H          1 MOL1         0.0976
      10    H7      21.801404   20.183234   23.120697 H          1 MOL1         0.0976
      11    C3      20.015688   18.973689   23.338262 C.3        1 MOL1        -0.1375
      12    H8      19.503015   19.676923   24.009081 H          1 MOL1         0.0976
      13    H9      20.569314   18.277335   23.981344 H          1 MOL1         0.0976
      14    C4      18.970904   18.190880   22.502671 C.3        1 MOL1        -0.1375
      15    H10     18.434598   18.884551   21.841837 H          1 MOL1         0.0976
      16    H11     19.483188   17.473216   21.847122 H          1 MOL1         0.0976
      17    C5      17.925254   17.444756   23.366634 C.3        1 MOL1        -0.1350
      18    H12     17.160634   17.017736   22.702645 H          1 MOL1         0.0976
      19    H13     17.402104   18.159543   24.017167 H          1 MOL1         0.0976
      20    C6      18.529820   16.308276   24.222381 C.3        1 MOL1        -0.2365
      21    H14     19.209169   16.698242   24.990279 H          1 MOL1         0.0987
      22    H15     19.086757   15.597340   23.598360 H          1 MOL1         0.0987
      23    H16     17.736018   15.751905   24.737430 H          1 MOL1         0.0987
@<TRIPOS>BOND
    1     1     2    1
    2     1     3    1
    3     1     4    1
    4     1     5    1
    5     5     6    1
    6     5     7    1
    7     5     8    1
    8     8     9    1
    9     8    10    1
   10     8    11    1
   11    11    12    1
   12    11    13    1
   13    11    14    1
   14    14    15    1
   15    14    16    1
   16    14    17    1
   17    17    18    1
   18    17    19    1
   19    17    20    1
   20    20    21    1
   21    20    22    1
   22    20    23    1
@<TRIPOS>SUBSTRUCTURE
       1 MOL1            1 RESIDUE      1      MOL     
@<SCITEGIC>MOL_PROPERTY
VConf Rank
SciTegic.value.IntegerValue
147

@<SCITEGIC>MOL_PROPERTY
Conf_Id
SciTegic.value.IntegerValue
92

@<SCITEGIC>MOL_PROPERTY
Delta U+W
SciTegic.value.DoubleValue
0.973

@<SCITEGIC>MOL_PROPERTY
U+W
SciTegic.value.DoubleValue
-7.409

@<SCITEGIC>MOL_PROPERTY
Grad RMS
SciTegic.value.DoubleValue
0.000000

@<SCITEGIC>MOL_PROPERTY
U
SciTegic.value.DoubleValue
48.047

@<SCITEGIC>MOL_PROPERTY
W
SciTegic.value.DoubleValue
-55.456

@<SCITEGIC>MOL_PROPERTY
W(PB)
SciTegic.value.DoubleValue
-57.595

@<SCITEGIC>MOL_PROPERTY
W(SA)
SciTegic.value.DoubleValue
2.138

@<SCITEGIC>MOL_PROPERTY
Valence
SciTegic.value.DoubleValue
2.583

@<SCITEGIC>MOL_PROPERTY
Coulomb
SciTegic.value.DoubleValue
44.791

@<SCITEGIC>MOL_PROPERTY
VdW
SciTegic.value.DoubleValue
0.674

@<SCITEGIC>MOL_PROPERTY
VdW6
SciTegic.value.DoubleValue
-5.789

@<SCITEGIC>MOL_PROPERTY
VdW12
SciTegic.value.DoubleValue
6.462

@<SCITEGIC>MOL_PROPERTY
Bond
SciTegic.value.DoubleValue
0.177

@<SCITEGIC>MOL_PROPERTY
Angle
SciTegic.value.DoubleValue
0.787

@<SCITEGIC>MOL_PROPERTY
Pdih
SciTegic.value.DoubleValue
1.619

@<SCITEGIC>MOL_PROPERTY
Idih
SciTegic.value.DoubleValue
0.000

@<SCITEGIC>MOL_PROPERTY
Tether
SciTegic.value.DoubleValue
0.000

@<TRIPOS>MOLECULE
guest-2_confgen4.mol2 : confsearch ligand conformer 148
          23          22           1
SMALL
USER_CHARGES
 
@<TRIPOS>ATOM
       1    N1      16.777876   18.752709   24.507519 N.4        1 MOL1        -0.5940
       2    H1      16.135966   17.959565   24.403078 H          1 MOL1         0.3649
       3    H2      16.200930   19.599019   24.549310 H          1 MOL1         0.3649
       4    H3      17.230671   18.651128   25.421575 H          1 MOL1         0.3649
       5    C1      17.787807   18.812032   23.379559 C.3        1 MOL1         0.0207
       6    H4      17.237888   18.890814   22.437859 H          1 MOL1         0.0950
       7    H5      18.342513   17.870233   23.376535 H          1 MOL1         0.0950
       8    C2      18.767182   19.994057   23.508013 C.3        1 MOL1        -0.1415
       9    H6      18.195148   20.930294   23.554753 H          1 MOL1         0.0976
      10    H7      19.318889   19.915307   24.454276 H          1 MOL1         0.0976
      11    C3      19.765620   20.074321   22.329152 C.3        1 MOL1        -0.1375
      12    H8      20.366927   20.987509   22.438552 H          1 MOL1         0.0976
      13    H9      19.211286   20.178851   21.386053 H          1 MOL1         0.0976
      14    C4      20.709573   18.850507   22.247336 C.3        1 MOL1        -0.1375
      15    H10     21.237623   18.729416   23.203326 H          1 MOL1         0.0976
      16    H11     20.124489   17.934776   22.088686 H          1 MOL1         0.0976
      17    C5      21.740472   18.996445   21.105968 C.3        1 MOL1        -0.1350
      18    H12     22.338025   19.906090   21.259063 H          1 MOL1         0.0976
      19    H13     21.217468   19.118609   20.147052 H          1 MOL1         0.0976
      20    C6      22.680437   17.774815   21.024411 C.3        1 MOL1        -0.2365
      21    H14     23.242968   17.646491   21.958391 H          1 MOL1         0.0987
      22    H15     23.405072   17.897060   20.208932 H          1 MOL1         0.0987
      23    H16     22.114569   16.852982   20.836697 H          1 MOL1         0.0987
@<TRIPOS>BOND
    1     1     2    1
    2     1     3    1
    3     1     4    1
    4     1     5    1
    5     5     6    1
    6     5     7    1
    7     5     8    1
    8     8     9    1
    9     8    10    1
   10     8    11    1
   11    11    12    1
   12    11    13    1
   13    11    14    1
   14    14    15    1
   15    14    16    1
   16    14    17    1
   17    17    18    1
   18    17    19    1
   19    17    20    1
   20    20    21    1
   21    20    22    1
   22    20    23    1
@<TRIPOS>SUBSTRUCTURE
       1 MOL1            1 RESIDUE      1      MOL     
@<SCITEGIC>MOL_PROPERTY
VConf Rank
SciTegic.value.IntegerValue
148

@<SCITEGIC>MOL_PROPERTY
Conf_Id
SciTegic.value.IntegerValue
42

@<SCITEGIC>MOL_PROPERTY
Delta U+W
SciTegic.value.DoubleValue
0.365

@<SCITEGIC>MOL_PROPERTY
U+W
SciTegic.value.DoubleValue
-8.017

@<SCITEGIC>MOL_PROPERTY
Grad RMS
SciTegic.value.DoubleValue
0.000000

@<SCITEGIC>MOL_PROPERTY
U
SciTegic.value.DoubleValue
47.375

@<SCITEGIC>MOL_PROPERTY
W
SciTegic.value.DoubleValue
-55.392

@<SCITEGIC>MOL_PROPERTY
W(PB)
SciTegic.value.DoubleValue
-57.543

@<SCITEGIC>MOL_PROPERTY
W(SA)
SciTegic.value.DoubleValue
2.152

@<SCITEGIC>MOL_PROPERTY
Valence
SciTegic.value.DoubleValue
2.032

@<SCITEGIC>MOL_PROPERTY
Coulomb
SciTegic.value.DoubleValue
44.843

@<SCITEGIC>MOL_PROPERTY
VdW
SciTegic.value.DoubleValue
0.499

@<SCITEGIC>MOL_PROPERTY
VdW6
SciTegic.value.DoubleValue
-5.218

@<SCITEGIC>MOL_PROPERTY
VdW12
SciTegic.value.DoubleValue
5.717

@<SCITEGIC>MOL_PROPERTY
Bond
SciTegic.value.DoubleValue
0.135

@<SCITEGIC>MOL_PROPERTY
Angle
SciTegic.value.DoubleValue
0.514

@<SCITEGIC>MOL_PROPERTY
Pdih
SciTegic.value.DoubleValue
1.383

@<SCITEGIC>MOL_PROPERTY
Idih
SciTegic.value.DoubleValue
0.000

@<SCITEGIC>MOL_PROPERTY
Tether
SciTegic.value.DoubleValue
0.000

@<TRIPOS>MOLECULE
guest-2_confgen4.mol2 : confsearch ligand conformer 149
          23          22           1
SMALL
USER_CHARGES
 
@<TRIPOS>ATOM
       1    N1      18.055964   21.534267   21.776685 N.4        1 MOL1        -0.5940
       2    H1      17.269376   21.283982   22.384361 H          1 MOL1         0.3649
       3    H2      17.708086   22.231252   21.109496 H          1 MOL1         0.3649
       4    H3      18.753719   22.003084   22.362135 H          1 MOL1         0.3649
       5    C1      18.633235   20.321209   21.073241 C.3        1 MOL1         0.0207
       6    H4      19.447748   20.658473   20.426524 H          1 MOL1         0.0950
       7    H5      17.846899   19.902102   20.439525 H          1 MOL1         0.0950
       8    C2      19.149467   19.230951   22.032445 C.3        1 MOL1        -0.1415
       9    H6      18.336925   18.913539   22.699285 H          1 MOL1         0.0976
      10    H7      19.428016   18.358390   21.428982 H          1 MOL1         0.0976
      11    C3      20.371551   19.693798   22.862559 C.3        1 MOL1        -0.1375
      12    H8      20.125305   20.626853   23.386107 H          1 MOL1         0.0976
      13    H9      21.202020   19.934138   22.184353 H          1 MOL1         0.0976
      14    C4      20.851987   18.666607   23.920443 C.3        1 MOL1        -0.1375
      15    H10     21.687077   19.124046   24.468951 H          1 MOL1         0.0976
      16    H11     20.064831   18.498672   24.668378 H          1 MOL1         0.0976
      17    C5      21.339721   17.313176   23.341841 C.3        1 MOL1        -0.1350
      18    H12     22.183962   16.956928   23.948733 H          1 MOL1         0.0976
      19    H13     21.735937   17.451880   22.326276 H          1 MOL1         0.0976
      20    C6      20.251162   16.214432   23.349655 C.3        1 MOL1        -0.2365
      21    H14     19.903017   16.015665   24.371588 H          1 MOL1         0.0987
      22    H15     20.650903   15.275127   22.946137 H          1 MOL1         0.0987
      23    H16     19.380346   16.491250   22.745361 H          1 MOL1         0.0987
@<TRIPOS>BOND
    1     1     2    1
    2     1     3    1
    3     1     4    1
    4     1     5    1
    5     5     6    1
    6     5     7    1
    7     5     8    1
    8     8     9    1
    9     8    10    1
   10     8    11    1
   11    11    12    1
   12    11    13    1
   13    11    14    1
   14    14    15    1
   15    14    16    1
   16    14    17    1
   17    17    18    1
   18    17    19    1
   19    17    20    1
   20    20    21    1
   21    20    22    1
   22    20    23    1
@<TRIPOS>SUBSTRUCTURE
       1 MOL1            1 RESIDUE      1      MOL     
@<SCITEGIC>MOL_PROPERTY
VConf Rank
SciTegic.value.IntegerValue
149

@<SCITEGIC>MOL_PROPERTY
Conf_Id
SciTegic.value.IntegerValue
3

@<SCITEGIC>MOL_PROPERTY
Delta U+W
SciTegic.value.DoubleValue
3.283

@<SCITEGIC>MOL_PROPERTY
U+W
SciTegic.value.DoubleValue
-5.099

@<SCITEGIC>MOL_PROPERTY
Grad RMS
SciTegic.value.DoubleValue
0.000000

@<SCITEGIC>MOL_PROPERTY
U
SciTegic.value.DoubleValue
50.701

@<SCITEGIC>MOL_PROPERTY
W
SciTegic.value.DoubleValue
-55.800

@<SCITEGIC>MOL_PROPERTY
W(PB)
SciTegic.value.DoubleValue
-57.867

@<SCITEGIC>MOL_PROPERTY
W(SA)
SciTegic.value.DoubleValue
2.067

@<SCITEGIC>MOL_PROPERTY
Valence
SciTegic.value.DoubleValue
4.880

@<SCITEGIC>MOL_PROPERTY
Coulomb
SciTegic.value.DoubleValue
45.095

@<SCITEGIC>MOL_PROPERTY
VdW
SciTegic.value.DoubleValue
0.726

@<SCITEGIC>MOL_PROPERTY
VdW6
SciTegic.value.DoubleValue
-6.620

@<SCITEGIC>MOL_PROPERTY
VdW12
SciTegic.value.DoubleValue
7.346

@<SCITEGIC>MOL_PROPERTY
Bond
SciTegic.value.DoubleValue
0.222

@<SCITEGIC>MOL_PROPERTY
Angle
SciTegic.value.DoubleValue
1.260

@<SCITEGIC>MOL_PROPERTY
Pdih
SciTegic.value.DoubleValue
3.398

@<SCITEGIC>MOL_PROPERTY
Idih
SciTegic.value.DoubleValue
0.000

@<SCITEGIC>MOL_PROPERTY
Tether
SciTegic.value.DoubleValue
0.000

@<TRIPOS>MOLECULE
guest-2_confgen4.mol2 : confsearch ligand conformer 150
          23          22           1
SMALL
USER_CHARGES
 
@<TRIPOS>ATOM
       1    N1      16.901348   18.994077   22.333143 N.4        1 MOL1        -0.5940
       2    H1      16.437302   19.822484   22.719093 H          1 MOL1         0.3649
       3    H2      16.168245   18.401025   21.929802 H          1 MOL1         0.3649
       4    H3      17.492334   19.310712   21.558497 H          1 MOL1         0.3649
       5    C1      17.706082   18.257703   23.385972 C.3        1 MOL1         0.0207
       6    H4      18.146936   17.373396   22.918920 H          1 MOL1         0.0950
       7    H5      17.011331   17.920365   24.159956 H          1 MOL1         0.0950
       8    C2      18.813591   19.115149   24.032103 C.3        1 MOL1        -0.1415
       9    H6      18.351762   19.971582   24.541064 H          1 MOL1         0.0976
      10    H7      19.305387   18.523319   24.815514 H          1 MOL1         0.0976
      11    C3      19.882149   19.629285   23.034358 C.3        1 MOL1        -0.1375
      12    H8      20.591464   20.256545   23.589598 H          1 MOL1         0.0976
      13    H9      19.413063   20.284993   22.288869 H          1 MOL1         0.0976
      14    C4      20.649342   18.487483   22.320123 C.3        1 MOL1        -0.1375
      15    H10     21.140979   17.848396   23.066467 H          1 MOL1         0.0976
      16    H11     19.938097   17.845345   21.784266 H          1 MOL1         0.0976
      17    C5      21.699993   18.993928   21.302237 C.3        1 MOL1        -0.1350
      18    H12     21.211962   19.625198   20.546558 H          1 MOL1         0.0976
      19    H13     22.110533   18.129786   20.761331 H          1 MOL1         0.0976
      20    C6      22.866505   19.770655   21.954378 C.3        1 MOL1        -0.2365
      21    H14     23.350310   19.172646   22.737529 H          1 MOL1         0.0987
      22    H15     22.525012   20.712261   22.401601 H          1 MOL1         0.0987
      23    H16     23.628235   20.020032   21.204369 H          1 MOL1         0.0987
@<TRIPOS>BOND
    1     1     2    1
    2     1     3    1
    3     1     4    1
    4     1     5    1
    5     5     6    1
    6     5     7    1
    7     5     8    1
    8     8     9    1
    9     8    10    1
   10     8    11    1
   11    11    12    1
   12    11    13    1
   13    11    14    1
   14    14    15    1
   15    14    16    1
   16    14    17    1
   17    17    18    1
   18    17    19    1
   19    17    20    1
   20    20    21    1
   21    20    22    1
   22    20    23    1
@<TRIPOS>SUBSTRUCTURE
       1 MOL1            1 RESIDUE      1      MOL     
@<SCITEGIC>MOL_PROPERTY
VConf Rank
SciTegic.value.IntegerValue
150

@<SCITEGIC>MOL_PROPERTY
Conf_Id
SciTegic.value.IntegerValue
83

@<SCITEGIC>MOL_PROPERTY
Delta U+W
SciTegic.value.DoubleValue
1.229

@<SCITEGIC>MOL_PROPERTY
U+W
SciTegic.value.DoubleValue
-7.154

@<SCITEGIC>MOL_PROPERTY
Grad RMS
SciTegic.value.DoubleValue
0.000000

@<SCITEGIC>MOL_PROPERTY
U
SciTegic.value.DoubleValue
48.727

@<SCITEGIC>MOL_PROPERTY
W
SciTegic.value.DoubleValue
-55.880

@<SCITEGIC>MOL_PROPERTY
W(PB)
SciTegic.value.DoubleValue
-57.960

@<SCITEGIC>MOL_PROPERTY
W(SA)
SciTegic.value.DoubleValue
2.080

@<SCITEGIC>MOL_PROPERTY
Valence
SciTegic.value.DoubleValue
2.671

@<SCITEGIC>MOL_PROPERTY
Coulomb
SciTegic.value.DoubleValue
45.371

@<SCITEGIC>MOL_PROPERTY
VdW
SciTegic.value.DoubleValue
0.684

@<SCITEGIC>MOL_PROPERTY
VdW6
SciTegic.value.DoubleValue
-6.511

@<SCITEGIC>MOL_PROPERTY
VdW12
SciTegic.value.DoubleValue
7.195

@<SCITEGIC>MOL_PROPERTY
Bond
SciTegic.value.DoubleValue
0.203

@<SCITEGIC>MOL_PROPERTY
Angle
SciTegic.value.DoubleValue
0.915

@<SCITEGIC>MOL_PROPERTY
Pdih
SciTegic.value.DoubleValue
1.554

@<SCITEGIC>MOL_PROPERTY
Idih
SciTegic.value.DoubleValue
0.000

@<SCITEGIC>MOL_PROPERTY
Tether
SciTegic.value.DoubleValue
0.000

@<TRIPOS>MOLECULE
guest-2_confgen4.mol2 : confsearch ligand conformer 151
          23          22           1
SMALL
USER_CHARGES
 
@<TRIPOS>ATOM
       1    N1      17.327397   17.590728   23.404144 N.4        1 MOL1        -0.5940
       2    H1      17.526351   16.750160   23.955883 H          1 MOL1         0.3649
       3    H2      17.737472   17.448537   22.476124 H          1 MOL1         0.3649
       4    H3      16.310189   17.633811   23.280587 H          1 MOL1         0.3649
       5    C1      17.867750   18.841513   24.068863 C.3        1 MOL1         0.0207
       6    H4      17.364643   18.949240   25.033645 H          1 MOL1         0.0950
       7    H5      17.596384   19.699491   23.448601 H          1 MOL1         0.0950
       8    C2      19.394298   18.816845   24.288683 C.3        1 MOL1        -0.1415
       9    H6      19.688370   19.731151   24.821060 H          1 MOL1         0.0976
      10    H7      19.646265   17.981155   24.954970 H          1 MOL1         0.0976
      11    C3      20.221973   18.697407   22.983946 C.3        1 MOL1        -0.1375
      12    H8      19.991692   17.749176   22.480382 H          1 MOL1         0.0976
      13    H9      21.283585   18.647464   23.258465 H          1 MOL1         0.0976
      14    C4      19.994600   19.879026   22.006957 C.3        1 MOL1        -0.1375
      15    H10     18.929040   19.944813   21.750816 H          1 MOL1         0.0976
      16    H11     20.251984   20.824740   22.503495 H          1 MOL1         0.0976
      17    C5      20.798021   19.752568   20.689776 C.3        1 MOL1        -0.1350
      18    H12     20.492027   20.561970   20.012208 H          1 MOL1         0.0976
      19    H13     20.536571   18.813078   20.183090 H          1 MOL1         0.0976
      20    C6      22.328801   19.826531   20.891232 C.3        1 MOL1        -0.2365
      21    H14     22.613087   20.742176   21.425818 H          1 MOL1         0.0987
      22    H15     22.843663   19.830809   19.921782 H          1 MOL1         0.0987
      23    H16     22.703776   18.965925   21.458677 H          1 MOL1         0.0987
@<TRIPOS>BOND
    1     1     2    1
    2     1     3    1
    3     1     4    1
    4     1     5    1
    5     5     6    1
    6     5     7    1
    7     5     8    1
    8     8     9    1
    9     8    10    1
   10     8    11    1
   11    11    12    1
   12    11    13    1
   13    11    14    1
   14    14    15    1
   15    14    16    1
   16    14    17    1
   17    17    18    1
   18    17    19    1
   19    17    20    1
   20    20    21    1
   21    20    22    1
   22    20    23    1
@<TRIPOS>SUBSTRUCTURE
       1 MOL1            1 RESIDUE      1      MOL     
@<SCITEGIC>MOL_PROPERTY
VConf Rank
SciTegic.value.IntegerValue
151

@<SCITEGIC>MOL_PROPERTY
Conf_Id
SciTegic.value.IntegerValue
50

@<SCITEGIC>MOL_PROPERTY
Delta U+W
SciTegic.value.DoubleValue
1.252

@<SCITEGIC>MOL_PROPERTY
U+W
SciTegic.value.DoubleValue
-7.130

@<SCITEGIC>MOL_PROPERTY
Grad RMS
SciTegic.value.DoubleValue
0.000000

@<SCITEGIC>MOL_PROPERTY
U
SciTegic.value.DoubleValue
48.727

@<SCITEGIC>MOL_PROPERTY
W
SciTegic.value.DoubleValue
-55.857

@<SCITEGIC>MOL_PROPERTY
W(PB)
SciTegic.value.DoubleValue
-57.937

@<SCITEGIC>MOL_PROPERTY
W(SA)
SciTegic.value.DoubleValue
2.080

@<SCITEGIC>MOL_PROPERTY
Valence
SciTegic.value.DoubleValue
2.671

@<SCITEGIC>MOL_PROPERTY
Coulomb
SciTegic.value.DoubleValue
45.371

@<SCITEGIC>MOL_PROPERTY
VdW
SciTegic.value.DoubleValue
0.684

@<SCITEGIC>MOL_PROPERTY
VdW6
SciTegic.value.DoubleValue
-6.511

@<SCITEGIC>MOL_PROPERTY
VdW12
SciTegic.value.DoubleValue
7.196

@<SCITEGIC>MOL_PROPERTY
Bond
SciTegic.value.DoubleValue
0.203

@<SCITEGIC>MOL_PROPERTY
Angle
SciTegic.value.DoubleValue
0.915

@<SCITEGIC>MOL_PROPERTY
Pdih
SciTegic.value.DoubleValue
1.554

@<SCITEGIC>MOL_PROPERTY
Idih
SciTegic.value.DoubleValue
0.000

@<SCITEGIC>MOL_PROPERTY
Tether
SciTegic.value.DoubleValue
0.000

@<TRIPOS>MOLECULE
guest-2_confgen4.mol2 : confsearch ligand conformer 152
          23          22           1
SMALL
USER_CHARGES
 
@<TRIPOS>ATOM
       1    N1      17.283867   18.810817   24.571899 N.4        1 MOL1        -0.5940
       2    H1      17.986129   19.255591   25.170679 H          1 MOL1         0.3649
       3    H2      16.720193   18.200808   25.173638 H          1 MOL1         0.3649
       4    H3      16.662476   19.551573   24.231637 H          1 MOL1         0.3649
       5    C1      17.922135   18.042082   23.431328 C.3        1 MOL1         0.0207
       6    H4      17.119068   17.564097   22.863713 H          1 MOL1         0.0950
       7    H5      18.549634   17.256456   23.860803 H          1 MOL1         0.0950
       8    C2      18.764680   18.918643   22.484481 C.3        1 MOL1        -0.1415
       9    H6      19.088465   18.298656   21.641010 H          1 MOL1         0.0976
      10    H7      18.131521   19.708956   22.059884 H          1 MOL1         0.0976
      11    C3      19.992580   19.549588   23.189355 C.3        1 MOL1        -0.1375
      12    H8      20.581612   18.774250   23.698518 H          1 MOL1         0.0976
      13    H9      19.633401   20.225528   23.976809 H          1 MOL1         0.0976
      14    C4      20.901068   20.363529   22.231099 C.3        1 MOL1        -0.1375
      15    H10     20.307780   20.782976   21.406924 H          1 MOL1         0.0976
      16    H11     21.292674   21.229016   22.783430 H          1 MOL1         0.0976
      17    C5      22.116015   19.581461   21.669422 C.3        1 MOL1        -0.1350
      18    H12     22.758033   19.253190   22.498774 H          1 MOL1         0.0976
      19    H13     22.725640   20.269961   21.067642 H          1 MOL1         0.0976
      20    C6      21.741377   18.362341   20.798546 C.3        1 MOL1        -0.2365
      21    H14     21.051949   18.647327   19.993369 H          1 MOL1         0.0987
      22    H15     21.272302   17.572856   21.398509 H          1 MOL1         0.0987
      23    H16     22.638638   17.931946   20.335328 H          1 MOL1         0.0987
@<TRIPOS>BOND
    1     1     2    1
    2     1     3    1
    3     1     4    1
    4     1     5    1
    5     5     6    1
    6     5     7    1
    7     5     8    1
    8     8     9    1
    9     8    10    1
   10     8    11    1
   11    11    12    1
   12    11    13    1
   13    11    14    1
   14    14    15    1
   15    14    16    1
   16    14    17    1
   17    17    18    1
   18    17    19    1
   19    17    20    1
   20    20    21    1
   21    20    22    1
   22    20    23    1
@<TRIPOS>SUBSTRUCTURE
       1 MOL1            1 RESIDUE      1      MOL     
@<SCITEGIC>MOL_PROPERTY
VConf Rank
SciTegic.value.IntegerValue
152

@<SCITEGIC>MOL_PROPERTY
Conf_Id
SciTegic.value.IntegerValue
55

@<SCITEGIC>MOL_PROPERTY
Delta U+W
SciTegic.value.DoubleValue
3.232

@<SCITEGIC>MOL_PROPERTY
U+W
SciTegic.value.DoubleValue
-5.150

@<SCITEGIC>MOL_PROPERTY
Grad RMS
SciTegic.value.DoubleValue
0.000000

@<SCITEGIC>MOL_PROPERTY
U
SciTegic.value.DoubleValue
50.625

@<SCITEGIC>MOL_PROPERTY
W
SciTegic.value.DoubleValue
-55.776

@<SCITEGIC>MOL_PROPERTY
W(PB)
SciTegic.value.DoubleValue
-57.839

@<SCITEGIC>MOL_PROPERTY
W(SA)
SciTegic.value.DoubleValue
2.064

@<SCITEGIC>MOL_PROPERTY
Valence
SciTegic.value.DoubleValue
4.837

@<SCITEGIC>MOL_PROPERTY
Coulomb
SciTegic.value.DoubleValue
45.097

@<SCITEGIC>MOL_PROPERTY
VdW
SciTegic.value.DoubleValue
0.692

@<SCITEGIC>MOL_PROPERTY
VdW6
SciTegic.value.DoubleValue
-6.655

@<SCITEGIC>MOL_PROPERTY
VdW12
SciTegic.value.DoubleValue
7.347

@<SCITEGIC>MOL_PROPERTY
Bond
SciTegic.value.DoubleValue
0.223

@<SCITEGIC>MOL_PROPERTY
Angle
SciTegic.value.DoubleValue
1.167

@<SCITEGIC>MOL_PROPERTY
Pdih
SciTegic.value.DoubleValue
3.447

@<SCITEGIC>MOL_PROPERTY
Idih
SciTegic.value.DoubleValue
0.000

@<SCITEGIC>MOL_PROPERTY
Tether
SciTegic.value.DoubleValue
0.000

@<TRIPOS>MOLECULE
guest-2_confgen4.mol2 : confsearch ligand conformer 153
          23          22           1
SMALL
USER_CHARGES
 
@<TRIPOS>ATOM
       1    N1      18.771778   20.526706   20.068545 N.4        1 MOL1        -0.5940
       2    H1      19.003148   21.506735   19.876609 H          1 MOL1         0.3649
       3    H2      17.811863   20.377583   19.739418 H          1 MOL1         0.3649
       4    H3      19.381936   19.951968   19.478512 H          1 MOL1         0.3649
       5    C1      18.922584   20.187783   21.537571 C.3        1 MOL1         0.0207
       6    H4      18.626287   19.145841   21.671384 H          1 MOL1         0.0950
       7    H5      18.225876   20.814956   22.100289 H          1 MOL1         0.0950
       8    C2      20.354679   20.408973   22.062893 C.3        1 MOL1        -0.1415
       9    H6      21.072252   19.820132   21.476193 H          1 MOL1         0.0976
      10    H7      20.616194   21.463704   21.904243 H          1 MOL1         0.0976
      11    C3      20.506234   20.085229   23.570768 C.3        1 MOL1        -0.1375
      12    H8      19.604703   20.398504   24.115473 H          1 MOL1         0.0976
      13    H9      21.323842   20.700362   23.971549 H          1 MOL1         0.0976
      14    C4      20.835590   18.604119   23.892186 C.3        1 MOL1        -0.1375
      15    H10     21.793545   18.333044   23.427285 H          1 MOL1         0.0976
      16    H11     20.988192   18.515871   24.976791 H          1 MOL1         0.0976
      17    C5      19.749918   17.593478   23.455811 C.3        1 MOL1        -0.1350
      18    H12     19.693838   17.554770   22.360242 H          1 MOL1         0.0976
      19    H13     18.766436   17.919821   23.821792 H          1 MOL1         0.0976
      20    C6      20.047798   16.174287   23.984815 C.3        1 MOL1        -0.2365
      21    H14     20.074050   16.158673   25.082212 H          1 MOL1         0.0987
      22    H15     21.014971   15.810127   23.614391 H          1 MOL1         0.0987
      23    H16     19.273923   15.468120   23.656979 H          1 MOL1         0.0987
@<TRIPOS>BOND
    1     1     2    1
    2     1     3    1
    3     1     4    1
    4     1     5    1
    5     5     6    1
    6     5     7    1
    7     5     8    1
    8     8     9    1
    9     8    10    1
   10     8    11    1
   11    11    12    1
   12    11    13    1
   13    11    14    1
   14    14    15    1
   15    14    16    1
   16    14    17    1
   17    17    18    1
   18    17    19    1
   19    17    20    1
   20    20    21    1
   21    20    22    1
   22    20    23    1
@<TRIPOS>SUBSTRUCTURE
       1 MOL1            1 RESIDUE      1      MOL     
@<SCITEGIC>MOL_PROPERTY
VConf Rank
SciTegic.value.IntegerValue
153

@<SCITEGIC>MOL_PROPERTY
Conf_Id
SciTegic.value.IntegerValue
93

@<SCITEGIC>MOL_PROPERTY
Delta U+W
SciTegic.value.DoubleValue
2.589

@<SCITEGIC>MOL_PROPERTY
U+W
SciTegic.value.DoubleValue
-5.793

@<SCITEGIC>MOL_PROPERTY
Grad RMS
SciTegic.value.DoubleValue
0.000000

@<SCITEGIC>MOL_PROPERTY
U
SciTegic.value.DoubleValue
50.122

@<SCITEGIC>MOL_PROPERTY
W
SciTegic.value.DoubleValue
-55.915

@<SCITEGIC>MOL_PROPERTY
W(PB)
SciTegic.value.DoubleValue
-58.031

@<SCITEGIC>MOL_PROPERTY
W(SA)
SciTegic.value.DoubleValue
2.115

@<SCITEGIC>MOL_PROPERTY
Valence
SciTegic.value.DoubleValue
4.132

@<SCITEGIC>MOL_PROPERTY
Coulomb
SciTegic.value.DoubleValue
45.536

@<SCITEGIC>MOL_PROPERTY
VdW
SciTegic.value.DoubleValue
0.454

@<SCITEGIC>MOL_PROPERTY
VdW6
SciTegic.value.DoubleValue
-6.262

@<SCITEGIC>MOL_PROPERTY
VdW12
SciTegic.value.DoubleValue
6.715

@<SCITEGIC>MOL_PROPERTY
Bond
SciTegic.value.DoubleValue
0.182

@<SCITEGIC>MOL_PROPERTY
Angle
SciTegic.value.DoubleValue
1.157

@<SCITEGIC>MOL_PROPERTY
Pdih
SciTegic.value.DoubleValue
2.794

@<SCITEGIC>MOL_PROPERTY
Idih
SciTegic.value.DoubleValue
0.000

@<SCITEGIC>MOL_PROPERTY
Tether
SciTegic.value.DoubleValue
0.000

@<TRIPOS>MOLECULE
guest-2_confgen4.mol2 : confsearch ligand conformer 154
          23          22           1
SMALL
USER_CHARGES
 
@<TRIPOS>ATOM
       1    N1      20.437796   16.347514   21.030724 N.4        1 MOL1        -0.5940
       2    H1      19.461613   16.042867   21.101516 H          1 MOL1         0.3649
       3    H2      21.010449   15.618191   21.469079 H          1 MOL1         0.3649
       4    H3      20.679118   16.356506   20.034475 H          1 MOL1         0.3649
       5    C1      20.656677   17.700149   21.677344 C.3        1 MOL1         0.0207
       6    H4      21.718357   17.946367   21.590097 H          1 MOL1         0.0950
       7    H5      20.415580   17.605652   22.737666 H          1 MOL1         0.0950
       8    C2      19.813700   18.818822   21.034113 C.3        1 MOL1        -0.1415
       9    H6      20.080205   18.876807   19.970331 H          1 MOL1         0.0976
      10    H7      18.746391   18.563434   21.072733 H          1 MOL1         0.0976
      11    C3      20.053044   20.207735   21.678394 C.3        1 MOL1        -0.1375
      12    H8      19.851777   20.975761   20.918707 H          1 MOL1         0.0976
      13    H9      21.113543   20.322395   21.942586 H          1 MOL1         0.0976
      14    C4      19.160530   20.521569   22.907378 C.3        1 MOL1        -0.1375
      15    H10     19.370671   21.551390   23.227921 H          1 MOL1         0.0976
      16    H11     18.104065   20.506565   22.605803 H          1 MOL1         0.0976
      17    C5      19.363707   19.571806   24.110363 C.3        1 MOL1        -0.1350
      18    H12     20.433889   19.491512   24.346877 H          1 MOL1         0.0976
      19    H13     19.009533   18.564571   23.855501 H          1 MOL1         0.0976
      20    C6      18.599104   20.062344   25.358336 C.3        1 MOL1        -0.2365
      21    H14     18.745233   19.371472   26.198795 H          1 MOL1         0.0987
      22    H15     17.521357   20.128475   25.159995 H          1 MOL1         0.0987
      23    H16     18.950355   21.053697   25.673066 H          1 MOL1         0.0987
@<TRIPOS>BOND
    1     1     2    1
    2     1     3    1
    3     1     4    1
    4     1     5    1
    5     5     6    1
    6     5     7    1
    7     5     8    1
    8     8     9    1
    9     8    10    1
   10     8    11    1
   11    11    12    1
   12    11    13    1
   13    11    14    1
   14    14    15    1
   15    14    16    1
   16    14    17    1
   17    17    18    1
   18    17    19    1
   19    17    20    1
   20    20    21    1
   21    20    22    1
   22    20    23    1
@<TRIPOS>SUBSTRUCTURE
       1 MOL1            1 RESIDUE      1      MOL     
@<SCITEGIC>MOL_PROPERTY
VConf Rank
SciTegic.value.IntegerValue
154

@<SCITEGIC>MOL_PROPERTY
Conf_Id
SciTegic.value.IntegerValue
70

@<SCITEGIC>MOL_PROPERTY
Delta U+W
SciTegic.value.DoubleValue
2.599

@<SCITEGIC>MOL_PROPERTY
U+W
SciTegic.value.DoubleValue
-5.783

@<SCITEGIC>MOL_PROPERTY
Grad RMS
SciTegic.value.DoubleValue
0.000000

@<SCITEGIC>MOL_PROPERTY
U
SciTegic.value.DoubleValue
50.122

@<SCITEGIC>MOL_PROPERTY
W
SciTegic.value.DoubleValue
-55.906

@<SCITEGIC>MOL_PROPERTY
W(PB)
SciTegic.value.DoubleValue
-58.010

@<SCITEGIC>MOL_PROPERTY
W(SA)
SciTegic.value.DoubleValue
2.105

@<SCITEGIC>MOL_PROPERTY
Valence
SciTegic.value.DoubleValue
4.132

@<SCITEGIC>MOL_PROPERTY
Coulomb
SciTegic.value.DoubleValue
45.536

@<SCITEGIC>MOL_PROPERTY
VdW
SciTegic.value.DoubleValue
0.454

@<SCITEGIC>MOL_PROPERTY
VdW6
SciTegic.value.DoubleValue
-6.262

@<SCITEGIC>MOL_PROPERTY
VdW12
SciTegic.value.DoubleValue
6.715

@<SCITEGIC>MOL_PROPERTY
Bond
SciTegic.value.DoubleValue
0.182

@<SCITEGIC>MOL_PROPERTY
Angle
SciTegic.value.DoubleValue
1.157

@<SCITEGIC>MOL_PROPERTY
Pdih
SciTegic.value.DoubleValue
2.794

@<SCITEGIC>MOL_PROPERTY
Idih
SciTegic.value.DoubleValue
0.000

@<SCITEGIC>MOL_PROPERTY
Tether
SciTegic.value.DoubleValue
0.000

@<TRIPOS>MOLECULE
guest-2_confgen4.mol2 : confsearch ligand conformer 155
          23          22           1
SMALL
USER_CHARGES
 
@<TRIPOS>ATOM
       1    N1      19.167139   21.321039   24.073229 N.4        1 MOL1        -0.5940
       2    H1      18.304218   21.447218   24.611702 H          1 MOL1         0.3649
       3    H2      19.618483   22.239867   24.011527 H          1 MOL1         0.3649
       4    H3      19.784052   20.718771   24.626545 H          1 MOL1         0.3649
       5    C1      18.894280   20.733702   22.702529 C.3        1 MOL1         0.0207
       6    H4      19.846014   20.656698   22.170348 H          1 MOL1         0.0950
       7    H5      18.257462   21.437260   22.159423 H          1 MOL1         0.0950
       8    C2      18.210022   19.352549   22.747158 C.3        1 MOL1        -0.1415
       9    H6      17.240162   19.448663   23.252972 H          1 MOL1         0.0976
      10    H7      17.981697   19.037077   21.721116 H          1 MOL1         0.0976
      11    C3      19.048256   18.256438   23.456318 C.3        1 MOL1        -0.1375
      12    H8      18.502408   17.304320   23.404100 H          1 MOL1         0.0976
      13    H9      19.125848   18.495157   24.525535 H          1 MOL1         0.0976
      14    C4      20.475235   18.053292   22.884250 C.3        1 MOL1        -0.1375
      15    H10     21.067379   18.968933   23.014095 H          1 MOL1         0.0976
      16    H11     20.979963   17.279935   23.479655 H          1 MOL1         0.0976
      17    C5      20.490079   17.630400   21.396354 C.3        1 MOL1        -0.1350
      18    H12     20.053344   18.422077   20.773098 H          1 MOL1         0.0976
      19    H13     19.866760   16.735839   21.258701 H          1 MOL1         0.0976
      20    C6      21.922648   17.337232   20.902208 C.3        1 MOL1        -0.2365
      21    H14     21.915099   17.041421   19.845111 H          1 MOL1         0.0987
      22    H15     22.379597   16.520997   21.476796 H          1 MOL1         0.0987
      23    H16     22.562669   18.223873   20.999395 H          1 MOL1         0.0987
@<TRIPOS>BOND
    1     1     2    1
    2     1     3    1
    3     1     4    1
    4     1     5    1
    5     5     6    1
    6     5     7    1
    7     5     8    1
    8     8     9    1
    9     8    10    1
   10     8    11    1
   11    11    12    1
   12    11    13    1
   13    11    14    1
   14    14    15    1
   15    14    16    1
   16    14    17    1
   17    17    18    1
   18    17    19    1
   19    17    20    1
   20    20    21    1
   21    20    22    1
   22    20    23    1
@<TRIPOS>SUBSTRUCTURE
       1 MOL1            1 RESIDUE      1      MOL     
@<SCITEGIC>MOL_PROPERTY
VConf Rank
SciTegic.value.IntegerValue
155

@<SCITEGIC>MOL_PROPERTY
Conf_Id
SciTegic.value.IntegerValue
72

@<SCITEGIC>MOL_PROPERTY
Delta U+W
SciTegic.value.DoubleValue
1.051

@<SCITEGIC>MOL_PROPERTY
U+W
SciTegic.value.DoubleValue
-7.331

@<SCITEGIC>MOL_PROPERTY
Grad RMS
SciTegic.value.DoubleValue
0.000000

@<SCITEGIC>MOL_PROPERTY
U
SciTegic.value.DoubleValue
48.590

@<SCITEGIC>MOL_PROPERTY
W
SciTegic.value.DoubleValue
-55.922

@<SCITEGIC>MOL_PROPERTY
W(PB)
SciTegic.value.DoubleValue
-58.012

@<SCITEGIC>MOL_PROPERTY
W(SA)
SciTegic.value.DoubleValue
2.090

@<SCITEGIC>MOL_PROPERTY
Valence
SciTegic.value.DoubleValue
2.601

@<SCITEGIC>MOL_PROPERTY
Coulomb
SciTegic.value.DoubleValue
45.520

@<SCITEGIC>MOL_PROPERTY
VdW
SciTegic.value.DoubleValue
0.469

@<SCITEGIC>MOL_PROPERTY
VdW6
SciTegic.value.DoubleValue
-6.867

@<SCITEGIC>MOL_PROPERTY
VdW12
SciTegic.value.DoubleValue
7.336

@<SCITEGIC>MOL_PROPERTY
Bond
SciTegic.value.DoubleValue
0.205

@<SCITEGIC>MOL_PROPERTY
Angle
SciTegic.value.DoubleValue
0.962

@<SCITEGIC>MOL_PROPERTY
Pdih
SciTegic.value.DoubleValue
1.434

@<SCITEGIC>MOL_PROPERTY
Idih
SciTegic.value.DoubleValue
0.000

@<SCITEGIC>MOL_PROPERTY
Tether
SciTegic.value.DoubleValue
0.000

@<TRIPOS>MOLECULE
guest-2_confgen4.mol2 : confsearch ligand conformer 156
          23          22           1
SMALL
USER_CHARGES
 
@<TRIPOS>ATOM
       1    N1      19.068965   20.773640   20.146265 N.4        1 MOL1        -0.5940
       2    H1      18.172065   20.935946   19.675962 H          1 MOL1         0.3649
       3    H2      19.795380   20.815125   19.424197 H          1 MOL1         0.3649
       4    H3      19.223593   21.567777   20.775630 H          1 MOL1         0.3649
       5    C1      19.084554   19.452554   20.887970 C.3        1 MOL1         0.0207
       6    H4      18.885869   18.656678   20.165159 H          1 MOL1         0.0950
       7    H5      18.269997   19.466864   21.616822 H          1 MOL1         0.0950
       8    C2      20.419141   19.178628   21.606064 C.3        1 MOL1        -0.1415
       9    H6      21.234393   19.203564   20.870895 H          1 MOL1         0.0976
      10    H7      20.626015   19.983682   22.322669 H          1 MOL1         0.0976
      11    C3      20.439014   17.808547   22.328245 C.3        1 MOL1        -0.1375
      12    H8      21.420765   17.665007   22.798893 H          1 MOL1         0.0976
      13    H9      20.351413   17.010772   21.577782 H          1 MOL1         0.0976
      14    C4      19.321775   17.614861   23.388916 C.3        1 MOL1        -0.1375
      15    H10     18.343951   17.593710   22.889200 H          1 MOL1         0.0976
      16    H11     19.440581   16.622766   23.845864 H          1 MOL1         0.0976
      17    C5      19.287383   18.681636   24.512761 C.3        1 MOL1        -0.1350
      18    H12     18.454273   18.449213   25.190697 H          1 MOL1         0.0976
      19    H13     19.064289   19.670773   24.090914 H          1 MOL1         0.0976
      20    C6      20.594137   18.747696   25.335285 C.3        1 MOL1        -0.2365
      21    H14     20.844582   17.765750   25.757183 H          1 MOL1         0.0987
      22    H15     20.488845   19.454344   26.168596 H          1 MOL1         0.0987
      23    H16     21.439183   19.083810   24.721704 H          1 MOL1         0.0987
@<TRIPOS>BOND
    1     1     2    1
    2     1     3    1
    3     1     4    1
    4     1     5    1
    5     5     6    1
    6     5     7    1
    7     5     8    1
    8     8     9    1
    9     8    10    1
   10     8    11    1
   11    11    12    1
   12    11    13    1
   13    11    14    1
   14    14    15    1
   15    14    16    1
   16    14    17    1
   17    17    18    1
   18    17    19    1
   19    17    20    1
   20    20    21    1
   21    20    22    1
   22    20    23    1
@<TRIPOS>SUBSTRUCTURE
       1 MOL1            1 RESIDUE      1      MOL     
@<SCITEGIC>MOL_PROPERTY
VConf Rank
SciTegic.value.IntegerValue
156

@<SCITEGIC>MOL_PROPERTY
Conf_Id
SciTegic.value.IntegerValue
26

@<SCITEGIC>MOL_PROPERTY
Delta U+W
SciTegic.value.DoubleValue
1.076

@<SCITEGIC>MOL_PROPERTY
U+W
SciTegic.value.DoubleValue
-7.306

@<SCITEGIC>MOL_PROPERTY
Grad RMS
SciTegic.value.DoubleValue
0.000000

@<SCITEGIC>MOL_PROPERTY
U
SciTegic.value.DoubleValue
48.641

@<SCITEGIC>MOL_PROPERTY
W
SciTegic.value.DoubleValue
-55.947

@<SCITEGIC>MOL_PROPERTY
W(PB)
SciTegic.value.DoubleValue
-58.031

@<SCITEGIC>MOL_PROPERTY
W(SA)
SciTegic.value.DoubleValue
2.084

@<SCITEGIC>MOL_PROPERTY
Valence
SciTegic.value.DoubleValue
2.922

@<SCITEGIC>MOL_PROPERTY
Coulomb
SciTegic.value.DoubleValue
45.269

@<SCITEGIC>MOL_PROPERTY
VdW
SciTegic.value.DoubleValue
0.449

@<SCITEGIC>MOL_PROPERTY
VdW6
SciTegic.value.DoubleValue
-7.045

@<SCITEGIC>MOL_PROPERTY
VdW12
SciTegic.value.DoubleValue
7.494

@<SCITEGIC>MOL_PROPERTY
Bond
SciTegic.value.DoubleValue
0.220

@<SCITEGIC>MOL_PROPERTY
Angle
SciTegic.value.DoubleValue
1.205

@<SCITEGIC>MOL_PROPERTY
Pdih
SciTegic.value.DoubleValue
1.497

@<SCITEGIC>MOL_PROPERTY
Idih
SciTegic.value.DoubleValue
0.000

@<SCITEGIC>MOL_PROPERTY
Tether
SciTegic.value.DoubleValue
0.000

@<TRIPOS>MOLECULE
guest-2_confgen4.mol2 : confsearch ligand conformer 157
          23          22           1
SMALL
USER_CHARGES
 
@<TRIPOS>ATOM
       1    N1      18.026813   17.749150   20.362823 N.4        1 MOL1        -0.5940
       2    H1      18.455309   17.725176   19.431910 H          1 MOL1         0.3649
       3    H2      17.012222   17.802200   20.222294 H          1 MOL1         0.3649
       4    H3      18.219454   16.845624   20.806886 H          1 MOL1         0.3649
       5    C1      18.541508   18.908184   21.191897 C.3        1 MOL1         0.0207
       6    H4      18.022729   18.889564   22.153903 H          1 MOL1         0.0950
       7    H5      18.278068   19.835741   20.676548 H          1 MOL1         0.0950
       8    C2      20.063509   18.857681   21.421642 C.3        1 MOL1        -0.1415
       9    H6      20.330708   17.921003   21.927281 H          1 MOL1         0.0976
      10    H7      20.573200   18.839103   20.449223 H          1 MOL1         0.0976
      11    C3      20.585367   20.067091   22.236537 C.3        1 MOL1        -0.1375
      12    H8      20.416099   20.984980   21.656760 H          1 MOL1         0.0976
      13    H9      21.674862   19.983212   22.345697 H          1 MOL1         0.0976
      14    C4      19.935334   20.238976   23.636062 C.3        1 MOL1        -0.1375
      15    H10     20.388267   21.110682   24.128147 H          1 MOL1         0.0976
      16    H11     18.872243   20.487680   23.516541 H          1 MOL1         0.0976
      17    C5      20.060740   19.013303   24.576393 C.3        1 MOL1        -0.1350
      18    H12     19.523308   18.153791   24.153870 H          1 MOL1         0.0976
      19    H13     19.556483   19.246455   25.524579 H          1 MOL1         0.0976
      20    C6      21.524439   18.617751   24.875796 C.3        1 MOL1        -0.2365
      21    H14     22.040364   18.270780   23.971921 H          1 MOL1         0.0987
      22    H15     21.560146   17.802871   25.610328 H          1 MOL1         0.0987
      23    H16     22.085806   19.466266   25.287901 H          1 MOL1         0.0987
@<TRIPOS>BOND
    1     1     2    1
    2     1     3    1
    3     1     4    1
    4     1     5    1
    5     5     6    1
    6     5     7    1
    7     5     8    1
    8     8     9    1
    9     8    10    1
   10     8    11    1
   11    11    12    1
   12    11    13    1
   13    11    14    1
   14    14    15    1
   15    14    16    1
   16    14    17    1
   17    17    18    1
   18    17    19    1
   19    17    20    1
   20    20    21    1
   21    20    22    1
   22    20    23    1
@<TRIPOS>SUBSTRUCTURE
       1 MOL1            1 RESIDUE      1      MOL     
@<SCITEGIC>MOL_PROPERTY
VConf Rank
SciTegic.value.IntegerValue
157

@<SCITEGIC>MOL_PROPERTY
Conf_Id
SciTegic.value.IntegerValue
90

@<SCITEGIC>MOL_PROPERTY
Delta U+W
SciTegic.value.DoubleValue
1.131

@<SCITEGIC>MOL_PROPERTY
U+W
SciTegic.value.DoubleValue
-7.251

@<SCITEGIC>MOL_PROPERTY
Grad RMS
SciTegic.value.DoubleValue
0.000000

@<SCITEGIC>MOL_PROPERTY
U
SciTegic.value.DoubleValue
48.641

@<SCITEGIC>MOL_PROPERTY
W
SciTegic.value.DoubleValue
-55.892

@<SCITEGIC>MOL_PROPERTY
W(PB)
SciTegic.value.DoubleValue
-57.962

@<SCITEGIC>MOL_PROPERTY
W(SA)
SciTegic.value.DoubleValue
2.070

@<SCITEGIC>MOL_PROPERTY
Valence
SciTegic.value.DoubleValue
2.922

@<SCITEGIC>MOL_PROPERTY
Coulomb
SciTegic.value.DoubleValue
45.269

@<SCITEGIC>MOL_PROPERTY
VdW
SciTegic.value.DoubleValue
0.450

@<SCITEGIC>MOL_PROPERTY
VdW6
SciTegic.value.DoubleValue
-7.045

@<SCITEGIC>MOL_PROPERTY
VdW12
SciTegic.value.DoubleValue
7.495

@<SCITEGIC>MOL_PROPERTY
Bond
SciTegic.value.DoubleValue
0.220

@<SCITEGIC>MOL_PROPERTY
Angle
SciTegic.value.DoubleValue
1.205

@<SCITEGIC>MOL_PROPERTY
Pdih
SciTegic.value.DoubleValue
1.497

@<SCITEGIC>MOL_PROPERTY
Idih
SciTegic.value.DoubleValue
0.000

@<SCITEGIC>MOL_PROPERTY
Tether
SciTegic.value.DoubleValue
0.000

@<TRIPOS>MOLECULE
guest-2_confgen4.mol2 : confsearch ligand conformer 158
          23          22           1
SMALL
USER_CHARGES
 
@<TRIPOS>ATOM
       1    N1      18.606833   16.794259   23.557974 N.4        1 MOL1        -0.5940
       2    H1      18.878160   15.982971   24.123699 H          1 MOL1         0.3649
       3    H2      19.243585   16.828963   22.756123 H          1 MOL1         0.3649
       4    H3      17.668326   16.603742   23.192624 H          1 MOL1         0.3649
       5    C1      18.648164   18.079813   24.360494 C.3        1 MOL1         0.0207
       6    H4      19.663438   18.206845   24.744942 H          1 MOL1         0.0950
       7    H5      17.975054   17.961375   25.213965 H          1 MOL1         0.0950
       8    C2      18.236205   19.327825   23.553248 C.3        1 MOL1        -0.1415
       9    H6      17.199107   19.209520   23.212334 H          1 MOL1         0.0976
      10    H7      18.240281   20.197715   24.223410 H          1 MOL1         0.0976
      11    C3      19.146780   19.617874   22.333696 C.3        1 MOL1        -0.1375
      12    H8      18.766613   20.510112   21.817465 H          1 MOL1         0.0976
      13    H9      19.069602   18.792463   21.614777 H          1 MOL1         0.0976
      14    C4      20.628384   19.849725   22.724297 C.3        1 MOL1        -0.1375
      15    H10     20.676359   20.619993   23.506379 H          1 MOL1         0.0976
      16    H11     21.052167   18.936488   23.162859 H          1 MOL1         0.0976
      17    C5      21.512826   20.299482   21.536495 C.3        1 MOL1        -0.1350
      18    H12     22.514917   20.544166   21.915677 H          1 MOL1         0.0976
      19    H13     21.112735   21.227705   21.105091 H          1 MOL1         0.0976
      20    C6      21.646584   19.227501   20.431007 C.3        1 MOL1        -0.2365
      21    H14     22.020163   18.280653   20.841926 H          1 MOL1         0.0987
      22    H15     22.352191   19.559063   19.658272 H          1 MOL1         0.0987
      23    H16     20.685773   19.034149   19.938191 H          1 MOL1         0.0987
@<TRIPOS>BOND
    1     1     2    1
    2     1     3    1
    3     1     4    1
    4     1     5    1
    5     5     6    1
    6     5     7    1
    7     5     8    1
    8     8     9    1
    9     8    10    1
   10     8    11    1
   11    11    12    1
   12    11    13    1
   13    11    14    1
   14    14    15    1
   15    14    16    1
   16    14    17    1
   17    17    18    1
   18    17    19    1
   19    17    20    1
   20    20    21    1
   21    20    22    1
   22    20    23    1
@<TRIPOS>SUBSTRUCTURE
       1 MOL1            1 RESIDUE      1      MOL     
@<SCITEGIC>MOL_PROPERTY
VConf Rank
SciTegic.value.IntegerValue
158

@<SCITEGIC>MOL_PROPERTY
Conf_Id
SciTegic.value.IntegerValue
85

@<SCITEGIC>MOL_PROPERTY
Delta U+W
SciTegic.value.DoubleValue
1.193

@<SCITEGIC>MOL_PROPERTY
U+W
SciTegic.value.DoubleValue
-7.189

@<SCITEGIC>MOL_PROPERTY
Grad RMS
SciTegic.value.DoubleValue
0.000000

@<SCITEGIC>MOL_PROPERTY
U
SciTegic.value.DoubleValue
48.775

@<SCITEGIC>MOL_PROPERTY
W
SciTegic.value.DoubleValue
-55.965

@<SCITEGIC>MOL_PROPERTY
W(PB)
SciTegic.value.DoubleValue
-58.038

@<SCITEGIC>MOL_PROPERTY
W(SA)
SciTegic.value.DoubleValue
2.073

@<SCITEGIC>MOL_PROPERTY
Valence
SciTegic.value.DoubleValue
2.602

@<SCITEGIC>MOL_PROPERTY
Coulomb
SciTegic.value.DoubleValue
45.581

@<SCITEGIC>MOL_PROPERTY
VdW
SciTegic.value.DoubleValue
0.592

@<SCITEGIC>MOL_PROPERTY
VdW6
SciTegic.value.DoubleValue
-6.616

@<SCITEGIC>MOL_PROPERTY
VdW12
SciTegic.value.DoubleValue
7.208

@<SCITEGIC>MOL_PROPERTY
Bond
SciTegic.value.DoubleValue
0.196

@<SCITEGIC>MOL_PROPERTY
Angle
SciTegic.value.DoubleValue
0.832

@<SCITEGIC>MOL_PROPERTY
Pdih
SciTegic.value.DoubleValue
1.574

@<SCITEGIC>MOL_PROPERTY
Idih
SciTegic.value.DoubleValue
0.000

@<SCITEGIC>MOL_PROPERTY
Tether
SciTegic.value.DoubleValue
0.000

@<TRIPOS>MOLECULE
guest-2_confgen4.mol2 : confsearch ligand conformer 159
          23          22           1
SMALL
USER_CHARGES
 
@<TRIPOS>ATOM
       1    N1      21.376817   18.937650   21.302494 N.4        1 MOL1        -0.5940
       2    H1      21.216522   19.073700   22.305722 H          1 MOL1         0.3649
       3    H2      21.999912   19.688592   20.986040 H          1 MOL1         0.3649
       4    H3      21.889928   18.057110   21.191219 H          1 MOL1         0.3649
       5    C1      20.071062   18.927141   20.531421 C.3        1 MOL1         0.0207
       6    H4      20.323422   18.777165   19.478172 H          1 MOL1         0.0950
       7    H5      19.597810   19.907627   20.630448 H          1 MOL1         0.0950
       8    C2      19.089130   17.823905   20.975719 C.3        1 MOL1        -0.1415
       9    H6      18.395923   17.639593   20.144256 H          1 MOL1         0.0976
      10    H7      19.632748   16.881588   21.125357 H          1 MOL1         0.0976
      11    C3      18.242295   18.158075   22.233221 C.3        1 MOL1        -0.1375
      12    H8      17.555241   17.316739   22.399403 H          1 MOL1         0.0976
      13    H9      17.599459   19.026387   22.032555 H          1 MOL1         0.0976
      14    C4      19.050766   18.381970   23.536871 C.3        1 MOL1        -0.1375
      15    H10     18.473788   17.975615   24.379314 H          1 MOL1         0.0976
      16    H11     19.982320   17.801281   23.509803 H          1 MOL1         0.0976
      17    C5      19.332061   19.875847   23.830650 C.3        1 MOL1        -0.1350
      18    H12     18.380657   20.393336   24.018186 H          1 MOL1         0.0976
      19    H13     19.779327   20.372386   22.961352 H          1 MOL1         0.0976
      20    C6      20.255004   20.052744   25.054869 C.3        1 MOL1        -0.2365
      21    H14     19.805789   19.610364   25.953688 H          1 MOL1         0.0987
      22    H15     20.430939   21.117378   25.256808 H          1 MOL1         0.0987
      23    H16     21.229884   19.575641   24.891324 H          1 MOL1         0.0987
@<TRIPOS>BOND
    1     1     2    1
    2     1     3    1
    3     1     4    1
    4     1     5    1
    5     5     6    1
    6     5     7    1
    7     5     8    1
    8     8     9    1
    9     8    10    1
   10     8    11    1
   11    11    12    1
   12    11    13    1
   13    11    14    1
   14    14    15    1
   15    14    16    1
   16    14    17    1
   17    17    18    1
   18    17    19    1
   19    17    20    1
   20    20    21    1
   21    20    22    1
   22    20    23    1
@<TRIPOS>SUBSTRUCTURE
       1 MOL1            1 RESIDUE      1      MOL     
@<SCITEGIC>MOL_PROPERTY
VConf Rank
SciTegic.value.IntegerValue
159

@<SCITEGIC>MOL_PROPERTY
Conf_Id
SciTegic.value.IntegerValue
82

@<SCITEGIC>MOL_PROPERTY
Delta U+W
SciTegic.value.DoubleValue
5.994

@<SCITEGIC>MOL_PROPERTY
U+W
SciTegic.value.DoubleValue
-2.388

@<SCITEGIC>MOL_PROPERTY
Grad RMS
SciTegic.value.DoubleValue
0.000000

@<SCITEGIC>MOL_PROPERTY
U
SciTegic.value.DoubleValue
52.836

@<SCITEGIC>MOL_PROPERTY
W
SciTegic.value.DoubleValue
-55.224

@<SCITEGIC>MOL_PROPERTY
W(PB)
SciTegic.value.DoubleValue
-57.261

@<SCITEGIC>MOL_PROPERTY
W(SA)
SciTegic.value.DoubleValue
2.037

@<SCITEGIC>MOL_PROPERTY
Valence
SciTegic.value.DoubleValue
5.785

@<SCITEGIC>MOL_PROPERTY
Coulomb
SciTegic.value.DoubleValue
46.744

@<SCITEGIC>MOL_PROPERTY
VdW
SciTegic.value.DoubleValue
0.307

@<SCITEGIC>MOL_PROPERTY
VdW6
SciTegic.value.DoubleValue
-7.672

@<SCITEGIC>MOL_PROPERTY
VdW12
SciTegic.value.DoubleValue
7.979

@<SCITEGIC>MOL_PROPERTY
Bond
SciTegic.value.DoubleValue
0.217

@<SCITEGIC>MOL_PROPERTY
Angle
SciTegic.value.DoubleValue
1.470

@<SCITEGIC>MOL_PROPERTY
Pdih
SciTegic.value.DoubleValue
4.098

@<SCITEGIC>MOL_PROPERTY
Idih
SciTegic.value.DoubleValue
0.000

@<SCITEGIC>MOL_PROPERTY
Tether
SciTegic.value.DoubleValue
0.000

@<TRIPOS>MOLECULE
guest-2_confgen4.mol2 : confsearch ligand conformer 160
          23          22           1
SMALL
USER_CHARGES
 
@<TRIPOS>ATOM
       1    N1      18.333213   18.611074   21.214558 N.4        1 MOL1        -0.5940
       2    H1      17.543872   19.265143   21.202379 H          1 MOL1         0.3649
       3    H2      18.301706   18.088319   20.332494 H          1 MOL1         0.3649
       4    H3      19.193040   19.169067   21.210485 H          1 MOL1         0.3649
       5    C1      18.279222   17.689297   22.417499 C.3        1 MOL1         0.0207
       6    H4      19.102432   16.973367   22.347512 H          1 MOL1         0.0950
       7    H5      17.339896   17.133523   22.351972 H          1 MOL1         0.0950
       8    C2      18.336433   18.422953   23.772929 C.3        1 MOL1        -0.1415
       9    H6      17.686303   19.307462   23.743821 H          1 MOL1         0.0976
      10    H7      17.901605   17.757941   24.530901 H          1 MOL1         0.0976
      11    C3      19.758809   18.820441   24.251432 C.3        1 MOL1        -0.1375
      12    H8      20.367736   17.919041   24.406853 H          1 MOL1         0.0976
      13    H9      19.654859   19.278946   25.244645 H          1 MOL1         0.0976
      14    C4      20.510418   19.821628   23.337118 C.3        1 MOL1        -0.1375
      15    H10     19.793753   20.464016   22.808483 H          1 MOL1         0.0976
      16    H11     21.101032   20.497503   23.971236 H          1 MOL1         0.0976
      17    C5      21.479753   19.132466   22.345882 C.3        1 MOL1        -0.1350
      18    H12     20.972455   18.339693   21.783348 H          1 MOL1         0.0976
      19    H13     22.282450   18.636845   22.909949 H          1 MOL1         0.0976
      20    C6      22.102738   20.143860   21.360592 C.3        1 MOL1        -0.2365
      21    H14     21.331615   20.636676   20.754566 H          1 MOL1         0.0987
      22    H15     22.797812   19.640198   20.676211 H          1 MOL1         0.0987
      23    H16     22.663288   20.921130   21.896318 H          1 MOL1         0.0987
@<TRIPOS>BOND
    1     1     2    1
    2     1     3    1
    3     1     4    1
    4     1     5    1
    5     5     6    1
    6     5     7    1
    7     5     8    1
    8     8     9    1
    9     8    10    1
   10     8    11    1
   11    11    12    1
   12    11    13    1
   13    11    14    1
   14    14    15    1
   15    14    16    1
   16    14    17    1
   17    17    18    1
   18    17    19    1
   19    17    20    1
   20    20    21    1
   21    20    22    1
   22    20    23    1
@<TRIPOS>SUBSTRUCTURE
       1 MOL1            1 RESIDUE      1      MOL     
@<SCITEGIC>MOL_PROPERTY
VConf Rank
SciTegic.value.IntegerValue
160

@<SCITEGIC>MOL_PROPERTY
Conf_Id
SciTegic.value.IntegerValue
5

@<SCITEGIC>MOL_PROPERTY
Delta U+W
SciTegic.value.DoubleValue
6.087

@<SCITEGIC>MOL_PROPERTY
U+W
SciTegic.value.DoubleValue
-2.295

@<SCITEGIC>MOL_PROPERTY
Grad RMS
SciTegic.value.DoubleValue
0.000000

@<SCITEGIC>MOL_PROPERTY
U
SciTegic.value.DoubleValue
52.836

@<SCITEGIC>MOL_PROPERTY
W
SciTegic.value.DoubleValue
-55.131

@<SCITEGIC>MOL_PROPERTY
W(PB)
SciTegic.value.DoubleValue
-57.202

@<SCITEGIC>MOL_PROPERTY
W(SA)
SciTegic.value.DoubleValue
2.071

@<SCITEGIC>MOL_PROPERTY
Valence
SciTegic.value.DoubleValue
5.785

@<SCITEGIC>MOL_PROPERTY
Coulomb
SciTegic.value.DoubleValue
46.744

@<SCITEGIC>MOL_PROPERTY
VdW
SciTegic.value.DoubleValue
0.307

@<SCITEGIC>MOL_PROPERTY
VdW6
SciTegic.value.DoubleValue
-7.672

@<SCITEGIC>MOL_PROPERTY
VdW12
SciTegic.value.DoubleValue
7.980

@<SCITEGIC>MOL_PROPERTY
Bond
SciTegic.value.DoubleValue
0.217

@<SCITEGIC>MOL_PROPERTY
Angle
SciTegic.value.DoubleValue
1.470

@<SCITEGIC>MOL_PROPERTY
Pdih
SciTegic.value.DoubleValue
4.098

@<SCITEGIC>MOL_PROPERTY
Idih
SciTegic.value.DoubleValue
0.000

@<SCITEGIC>MOL_PROPERTY
Tether
SciTegic.value.DoubleValue
0.000

@<TRIPOS>MOLECULE
guest-2_confgen4.mol2 : confsearch ligand conformer 161
          23          22           1
SMALL
USER_CHARGES
 
@<TRIPOS>ATOM
       1    N1      18.068160   21.273183   25.197272 N.4        1 MOL1        -0.5940
       2    H1      17.123589   21.207816   24.804338 H          1 MOL1         0.3649
       3    H2      18.159392   22.212638   25.598764 H          1 MOL1         0.3649
       4    H3      18.116787   20.610005   25.977473 H          1 MOL1         0.3649
       5    C1      19.134233   21.000331   24.155668 C.3        1 MOL1         0.0207
       6    H4      20.110693   21.115732   24.633899 H          1 MOL1         0.0950
       7    H5      19.043159   21.758337   23.372962 H          1 MOL1         0.0950
       8    C2      19.024916   19.597109   23.533097 C.3        1 MOL1        -0.1415
       9    H6      19.100616   18.839682   24.324725 H          1 MOL1         0.0976
      10    H7      18.036799   19.479991   23.068331 H          1 MOL1         0.0976
      11    C3      20.127763   19.359104   22.477983 C.3        1 MOL1        -0.1375
      12    H8      21.114631   19.482407   22.945625 H          1 MOL1         0.0976
      13    H9      20.051907   20.122001   21.690560 H          1 MOL1         0.0976
      14    C4      20.027434   17.952168   21.845947 C.3        1 MOL1        -0.1375
      15    H10     20.103410   17.189236   22.633141 H          1 MOL1         0.0976
      16    H11     19.040734   17.828724   21.378295 H          1 MOL1         0.0976
      17    C5      21.130487   17.714504   20.790698 C.3        1 MOL1        -0.1350
      18    H12     22.119755   17.834492   21.254297 H          1 MOL1         0.0976
      19    H13     21.057164   18.473912   19.999562 H          1 MOL1         0.0976
      20    C6      21.027099   16.308676   20.161836 C.3        1 MOL1        -0.2365
      21    H14     21.818074   16.158693   19.415573 H          1 MOL1         0.0987
      22    H15     20.060332   16.170651   19.660298 H          1 MOL1         0.0987
      23    H16     21.131197   15.526234   20.924841 H          1 MOL1         0.0987
@<TRIPOS>BOND
    1     1     2    1
    2     1     3    1
    3     1     4    1
    4     1     5    1
    5     5     6    1
    6     5     7    1
    7     5     8    1
    8     8     9    1
    9     8    10    1
   10     8    11    1
   11    11    12    1
   12    11    13    1
   13    11    14    1
   14    14    15    1
   15    14    16    1
   16    14    17    1
   17    17    18    1
   18    17    19    1
   19    17    20    1
   20    20    21    1
   21    20    22    1
   22    20    23    1
@<TRIPOS>SUBSTRUCTURE
       1 MOL1            1 RESIDUE      1      MOL     
@<SCITEGIC>MOL_PROPERTY
VConf Rank
SciTegic.value.IntegerValue
161

@<SCITEGIC>MOL_PROPERTY
Conf_Id
SciTegic.value.IntegerValue
40

@<SCITEGIC>MOL_PROPERTY
Delta U+W
SciTegic.value.DoubleValue
0.000

@<SCITEGIC>MOL_PROPERTY
U+W
SciTegic.value.DoubleValue
-8.382

@<SCITEGIC>MOL_PROPERTY
Grad RMS
SciTegic.value.DoubleValue
0.000000

@<SCITEGIC>MOL_PROPERTY
U
SciTegic.value.DoubleValue
46.604

@<SCITEGIC>MOL_PROPERTY
W
SciTegic.value.DoubleValue
-54.986

@<SCITEGIC>MOL_PROPERTY
W(PB)
SciTegic.value.DoubleValue
-57.162

@<SCITEGIC>MOL_PROPERTY
W(SA)
SciTegic.value.DoubleValue
2.176

@<SCITEGIC>MOL_PROPERTY
Valence
SciTegic.value.DoubleValue
1.727

@<SCITEGIC>MOL_PROPERTY
Coulomb
SciTegic.value.DoubleValue
44.434

@<SCITEGIC>MOL_PROPERTY
VdW
SciTegic.value.DoubleValue
0.443

@<SCITEGIC>MOL_PROPERTY
VdW6
SciTegic.value.DoubleValue
-4.623

@<SCITEGIC>MOL_PROPERTY
VdW12
SciTegic.value.DoubleValue
5.066

@<SCITEGIC>MOL_PROPERTY
Bond
SciTegic.value.DoubleValue
0.112

@<SCITEGIC>MOL_PROPERTY
Angle
SciTegic.value.DoubleValue
0.386

@<SCITEGIC>MOL_PROPERTY
Pdih
SciTegic.value.DoubleValue
1.228

@<SCITEGIC>MOL_PROPERTY
Idih
SciTegic.value.DoubleValue
0.000

@<SCITEGIC>MOL_PROPERTY
Tether
SciTegic.value.DoubleValue
0.000

@<TRIPOS>MOLECULE
guest-2_confgen4.mol2 : confsearch ligand conformer 162
          23          22           1
SMALL
USER_CHARGES
 
@<TRIPOS>ATOM
       1    N1      16.902440   20.528159   24.131695 N.4        1 MOL1        -0.5940
       2    H1      16.097337   20.483138   23.498748 H          1 MOL1         0.3649
       3    H2      17.245954   21.493835   24.114311 H          1 MOL1         0.3649
       4    H3      16.547179   20.355154   25.078209 H          1 MOL1         0.3649
       5    C1      17.981471   19.537070   23.745408 C.3        1 MOL1         0.0207
       6    H4      17.556404   18.532002   23.812988 H          1 MOL1         0.0950
       7    H5      18.788982   19.619281   24.477315 H          1 MOL1         0.0950
       8    C2      18.535638   19.770853   22.327179 C.3        1 MOL1        -0.1415
       9    H6      17.706085   19.732577   21.608621 H          1 MOL1         0.0976
      10    H7      18.963818   20.779816   22.259064 H          1 MOL1         0.0976
      11    C3      19.600423   18.725378   21.918722 C.3        1 MOL1        -0.1375
      12    H8      19.857813   18.891459   20.864620 H          1 MOL1         0.0976
      13    H9      19.166271   17.717754   21.978532 H          1 MOL1         0.0976
      14    C4      20.884258   18.794646   22.784484 C.3        1 MOL1        -0.1375
      15    H10     21.329338   19.796262   22.707732 H          1 MOL1         0.0976
      16    H11     20.622753   18.653031   23.841398 H          1 MOL1         0.0976
      17    C5      21.941748   17.729939   22.404165 C.3        1 MOL1        -0.1350
      18    H12     21.505041   16.725032   22.489292 H          1 MOL1         0.0976
      19    H13     22.761214   17.771277   23.135355 H          1 MOL1         0.0976
      20    C6      22.530346   17.923319   20.987992 C.3        1 MOL1        -0.2365
      21    H14     21.772702   17.765952   20.210517 H          1 MOL1         0.0987
      22    H15     23.340564   17.204967   20.807811 H          1 MOL1         0.0987
      23    H16     22.944216   18.932772   20.866640 H          1 MOL1         0.0987
@<TRIPOS>BOND
    1     1     2    1
    2     1     3    1
    3     1     4    1
    4     1     5    1
    5     5     6    1
    6     5     7    1
    7     5     8    1
    8     8     9    1
    9     8    10    1
   10     8    11    1
   11    11    12    1
   12    11    13    1
   13    11    14    1
   14    14    15    1
   15    14    16    1
   16    14    17    1
   17    17    18    1
   18    17    19    1
   19    17    20    1
   20    20    21    1
   21    20    22    1
   22    20    23    1
@<TRIPOS>SUBSTRUCTURE
       1 MOL1            1 RESIDUE      1      MOL     
@<SCITEGIC>MOL_PROPERTY
VConf Rank
SciTegic.value.IntegerValue
162

@<SCITEGIC>MOL_PROPERTY
Conf_Id
SciTegic.value.IntegerValue
65

@<SCITEGIC>MOL_PROPERTY
Delta U+W
SciTegic.value.DoubleValue
1.004

@<SCITEGIC>MOL_PROPERTY
U+W
SciTegic.value.DoubleValue
-7.378

@<SCITEGIC>MOL_PROPERTY
Grad RMS
SciTegic.value.DoubleValue
0.000000

@<SCITEGIC>MOL_PROPERTY
U
SciTegic.value.DoubleValue
48.047

@<SCITEGIC>MOL_PROPERTY
W
SciTegic.value.DoubleValue
-55.425

@<SCITEGIC>MOL_PROPERTY
W(PB)
SciTegic.value.DoubleValue
-57.542

@<SCITEGIC>MOL_PROPERTY
W(SA)
SciTegic.value.DoubleValue
2.116

@<SCITEGIC>MOL_PROPERTY
Valence
SciTegic.value.DoubleValue
2.583

@<SCITEGIC>MOL_PROPERTY
Coulomb
SciTegic.value.DoubleValue
44.791

@<SCITEGIC>MOL_PROPERTY
VdW
SciTegic.value.DoubleValue
0.673

@<SCITEGIC>MOL_PROPERTY
VdW6
SciTegic.value.DoubleValue
-5.788

@<SCITEGIC>MOL_PROPERTY
VdW12
SciTegic.value.DoubleValue
6.462

@<SCITEGIC>MOL_PROPERTY
Bond
SciTegic.value.DoubleValue
0.177

@<SCITEGIC>MOL_PROPERTY
Angle
SciTegic.value.DoubleValue
0.787

@<SCITEGIC>MOL_PROPERTY
Pdih
SciTegic.value.DoubleValue
1.619

@<SCITEGIC>MOL_PROPERTY
Idih
SciTegic.value.DoubleValue
0.000

@<SCITEGIC>MOL_PROPERTY
Tether
SciTegic.value.DoubleValue
0.000

@<TRIPOS>MOLECULE
guest-2_confgen4.mol2 : confsearch ligand conformer 163
          23          22           1
SMALL
USER_CHARGES
 
@<TRIPOS>ATOM
       1    N1      20.493767   16.092993   20.694012 N.4        1 MOL1        -0.5940
       2    H1      20.761542   16.349994   19.738456 H          1 MOL1         0.3649
       3    H2      19.919327   15.246088   20.624746 H          1 MOL1         0.3649
       4    H3      21.353021   15.830602   21.187638 H          1 MOL1         0.3649
       5    C1      19.758482   17.216152   21.396610 C.3        1 MOL1         0.0207
       6    H4      19.478812   16.861896   22.392003 H          1 MOL1         0.0950
       7    H5      18.843494   17.423617   20.835214 H          1 MOL1         0.0950
       8    C2      20.596026   18.503537   21.516163 C.3        1 MOL1        -0.1415
       9    H6      21.514656   18.296015   22.080998 H          1 MOL1         0.0976
      10    H7      20.909321   18.820476   20.512498 H          1 MOL1         0.0976
      11    C3      19.822746   19.662638   22.188575 C.3        1 MOL1        -0.1375
      12    H8      18.909312   19.874497   21.615753 H          1 MOL1         0.0976
      13    H9      20.442453   20.566926   22.132114 H          1 MOL1         0.0976
      14    C4      19.458386   19.373591   23.667179 C.3        1 MOL1        -0.1375
      15    H10     18.859282   18.455325   23.725199 H          1 MOL1         0.0976
      16    H11     20.373875   19.182294   24.243812 H          1 MOL1         0.0976
      17    C5      18.655409   20.514545   24.337978 C.3        1 MOL1        -0.1350
      18    H12     18.339244   20.182086   25.336668 H          1 MOL1         0.0976
      19    H13     17.732961   20.703220   23.771153 H          1 MOL1         0.0976
      20    C6      19.455237   21.829321   24.482985 C.3        1 MOL1        -0.2365
      21    H14     19.687411   22.270923   23.506081 H          1 MOL1         0.0987
      22    H15     20.398797   21.660769   25.018050 H          1 MOL1         0.0987
      23    H16     18.876331   22.570148   25.049543 H          1 MOL1         0.0987
@<TRIPOS>BOND
    1     1     2    1
    2     1     3    1
    3     1     4    1
    4     1     5    1
    5     5     6    1
    6     5     7    1
    7     5     8    1
    8     8     9    1
    9     8    10    1
   10     8    11    1
   11    11    12    1
   12    11    13    1
   13    11    14    1
   14    14    15    1
   15    14    16    1
   16    14    17    1
   17    17    18    1
   18    17    19    1
   19    17    20    1
   20    20    21    1
   21    20    22    1
   22    20    23    1
@<TRIPOS>SUBSTRUCTURE
       1 MOL1            1 RESIDUE      1      MOL     
@<SCITEGIC>MOL_PROPERTY
VConf Rank
SciTegic.value.IntegerValue
163

@<SCITEGIC>MOL_PROPERTY
Conf_Id
SciTegic.value.IntegerValue
92

@<SCITEGIC>MOL_PROPERTY
Delta U+W
SciTegic.value.DoubleValue
0.973

@<SCITEGIC>MOL_PROPERTY
U+W
SciTegic.value.DoubleValue
-7.409

@<SCITEGIC>MOL_PROPERTY
Grad RMS
SciTegic.value.DoubleValue
0.000000

@<SCITEGIC>MOL_PROPERTY
U
SciTegic.value.DoubleValue
48.047

@<SCITEGIC>MOL_PROPERTY
W
SciTegic.value.DoubleValue
-55.456

@<SCITEGIC>MOL_PROPERTY
W(PB)
SciTegic.value.DoubleValue
-57.595

@<SCITEGIC>MOL_PROPERTY
W(SA)
SciTegic.value.DoubleValue
2.138

@<SCITEGIC>MOL_PROPERTY
Valence
SciTegic.value.DoubleValue
2.583

@<SCITEGIC>MOL_PROPERTY
Coulomb
SciTegic.value.DoubleValue
44.791

@<SCITEGIC>MOL_PROPERTY
VdW
SciTegic.value.DoubleValue
0.674

@<SCITEGIC>MOL_PROPERTY
VdW6
SciTegic.value.DoubleValue
-5.789

@<SCITEGIC>MOL_PROPERTY
VdW12
SciTegic.value.DoubleValue
6.462

@<SCITEGIC>MOL_PROPERTY
Bond
SciTegic.value.DoubleValue
0.177

@<SCITEGIC>MOL_PROPERTY
Angle
SciTegic.value.DoubleValue
0.787

@<SCITEGIC>MOL_PROPERTY
Pdih
SciTegic.value.DoubleValue
1.619

@<SCITEGIC>MOL_PROPERTY
Idih
SciTegic.value.DoubleValue
0.000

@<SCITEGIC>MOL_PROPERTY
Tether
SciTegic.value.DoubleValue
0.000

@<TRIPOS>MOLECULE
guest-2_confgen4.mol2 : confsearch ligand conformer 164
          23          22           1
SMALL
USER_CHARGES
 
@<TRIPOS>ATOM
       1    N1      18.656534   21.645973   20.565113 N.4        1 MOL1        -0.5940
       2    H1      19.285794   22.087647   19.886152 H          1 MOL1         0.3649
       3    H2      18.152035   22.402110   21.039024 H          1 MOL1         0.3649
       4    H3      17.965256   21.112908   20.027697 H          1 MOL1         0.3649
       5    C1      19.410489   20.768968   21.543984 C.3        1 MOL1         0.0207
       6    H4      20.146115   21.392818   22.058847 H          1 MOL1         0.0950
       7    H5      19.945751   20.008743   20.969312 H          1 MOL1         0.0950
       8    C2      18.491907   20.090820   22.577995 C.3        1 MOL1        -0.1415
       9    H6      17.927497   20.863136   23.117362 H          1 MOL1         0.0976
      10    H7      17.752541   19.464894   22.060743 H          1 MOL1         0.0976
      11    C3      19.273683   19.233835   23.601439 C.3        1 MOL1        -0.1375
      12    H8      18.569941   18.859557   24.357821 H          1 MOL1         0.0976
      13    H9      19.994873   19.868172   24.135434 H          1 MOL1         0.0976
      14    C4      20.010135   18.035873   22.954919 C.3        1 MOL1        -0.1375
      15    H10     19.291465   17.422069   22.394404 H          1 MOL1         0.0976
      16    H11     20.752457   18.397634   22.230942 H          1 MOL1         0.0976
      17    C5      20.719129   17.160128   24.011882 C.3        1 MOL1        -0.1350
      18    H12     19.983796   16.785277   24.737645 H          1 MOL1         0.0976
      19    H13     21.438970   17.769525   24.576190 H          1 MOL1         0.0976
      20    C6      21.454383   15.966526   23.365910 C.3        1 MOL1        -0.2365
      21    H14     20.754297   15.319313   22.821648 H          1 MOL1         0.0987
      22    H15     21.950890   15.356630   24.131778 H          1 MOL1         0.0987
      23    H16     22.221459   16.310473   22.659854 H          1 MOL1         0.0987
@<TRIPOS>BOND
    1     1     2    1
    2     1     3    1
    3     1     4    1
    4     1     5    1
    5     5     6    1
    6     5     7    1
    7     5     8    1
    8     8     9    1
    9     8    10    1
   10     8    11    1
   11    11    12    1
   12    11    13    1
   13    11    14    1
   14    14    15    1
   15    14    16    1
   16    14    17    1
   17    17    18    1
   18    17    19    1
   19    17    20    1
   20    20    21    1
   21    20    22    1
   22    20    23    1
@<TRIPOS>SUBSTRUCTURE
       1 MOL1            1 RESIDUE      1      MOL     
@<SCITEGIC>MOL_PROPERTY
VConf Rank
SciTegic.value.IntegerValue
164

@<SCITEGIC>MOL_PROPERTY
Conf_Id
SciTegic.value.IntegerValue
42

@<SCITEGIC>MOL_PROPERTY
Delta U+W
SciTegic.value.DoubleValue
0.365

@<SCITEGIC>MOL_PROPERTY
U+W
SciTegic.value.DoubleValue
-8.017

@<SCITEGIC>MOL_PROPERTY
Grad RMS
SciTegic.value.DoubleValue
0.000000

@<SCITEGIC>MOL_PROPERTY
U
SciTegic.value.DoubleValue
47.375

@<SCITEGIC>MOL_PROPERTY
W
SciTegic.value.DoubleValue
-55.392

@<SCITEGIC>MOL_PROPERTY
W(PB)
SciTegic.value.DoubleValue
-57.543

@<SCITEGIC>MOL_PROPERTY
W(SA)
SciTegic.value.DoubleValue
2.152

@<SCITEGIC>MOL_PROPERTY
Valence
SciTegic.value.DoubleValue
2.032

@<SCITEGIC>MOL_PROPERTY
Coulomb
SciTegic.value.DoubleValue
44.843

@<SCITEGIC>MOL_PROPERTY
VdW
SciTegic.value.DoubleValue
0.499

@<SCITEGIC>MOL_PROPERTY
VdW6
SciTegic.value.DoubleValue
-5.218

@<SCITEGIC>MOL_PROPERTY
VdW12
SciTegic.value.DoubleValue
5.717

@<SCITEGIC>MOL_PROPERTY
Bond
SciTegic.value.DoubleValue
0.135

@<SCITEGIC>MOL_PROPERTY
Angle
SciTegic.value.DoubleValue
0.514

@<SCITEGIC>MOL_PROPERTY
Pdih
SciTegic.value.DoubleValue
1.383

@<SCITEGIC>MOL_PROPERTY
Idih
SciTegic.value.DoubleValue
0.000

@<SCITEGIC>MOL_PROPERTY
Tether
SciTegic.value.DoubleValue
0.000

@<TRIPOS>MOLECULE
guest-2_confgen4.mol2 : confsearch ligand conformer 165
          23          22           1
SMALL
USER_CHARGES
 
@<TRIPOS>ATOM
       1    N1      22.043845   16.883841   21.965023 N.4        1 MOL1        -0.5940
       2    H1      22.750627   17.610782   21.814530 H          1 MOL1         0.3649
       3    H2      22.411738   16.019595   21.553098 H          1 MOL1         0.3649
       4    H3      21.978841   16.729234   22.975604 H          1 MOL1         0.3649
       5    C1      20.704537   17.266936   21.365792 C.3        1 MOL1         0.0207
       6    H4      20.006231   16.443680   21.539110 H          1 MOL1         0.0950
       7    H5      20.844255   17.373071   20.286539 H          1 MOL1         0.0950
       8    C2      20.117778   18.573737   21.934312 C.3        1 MOL1        -0.1415
       9    H6      20.832603   19.393498   21.783751 H          1 MOL1         0.0976
      10    H7      19.221206   18.819492   21.352177 H          1 MOL1         0.0976
      11    C3      19.743503   18.459945   23.432236 C.3        1 MOL1        -0.1375
      12    H8      20.615737   18.112568   24.001330 H          1 MOL1         0.0976
      13    H9      18.970794   17.688662   23.556530 H          1 MOL1         0.0976
      14    C4      19.254795   19.785601   24.071657 C.3        1 MOL1        -0.1375
      15    H10     19.064679   19.588154   25.135780 H          1 MOL1         0.0976
      16    H11     20.058728   20.534225   24.049795 H          1 MOL1         0.0976
      17    C5      17.959690   20.370982   23.451599 C.3        1 MOL1        -0.1350
      18    H12     17.365051   20.831511   24.253029 H          1 MOL1         0.0976
      19    H13     17.336034   19.566280   23.037950 H          1 MOL1         0.0976
      20    C6      18.227416   21.450973   22.377261 C.3        1 MOL1        -0.2365
      21    H14     18.785783   22.295395   22.801804 H          1 MOL1         0.0987
      22    H15     17.281024   21.843012   21.982847 H          1 MOL1         0.0987
      23    H16     18.802361   21.058648   21.531307 H          1 MOL1         0.0987
@<TRIPOS>BOND
    1     1     2    1
    2     1     3    1
    3     1     4    1
    4     1     5    1
    5     5     6    1
    6     5     7    1
    7     5     8    1
    8     8     9    1
    9     8    10    1
   10     8    11    1
   11    11    12    1
   12    11    13    1
   13    11    14    1
   14    14    15    1
   15    14    16    1
   16    14    17    1
   17    17    18    1
   18    17    19    1
   19    17    20    1
   20    20    21    1
   21    20    22    1
   22    20    23    1
@<TRIPOS>SUBSTRUCTURE
       1 MOL1            1 RESIDUE      1      MOL     
@<SCITEGIC>MOL_PROPERTY
VConf Rank
SciTegic.value.IntegerValue
165

@<SCITEGIC>MOL_PROPERTY
Conf_Id
SciTegic.value.IntegerValue
3

@<SCITEGIC>MOL_PROPERTY
Delta U+W
SciTegic.value.DoubleValue
3.283

@<SCITEGIC>MOL_PROPERTY
U+W
SciTegic.value.DoubleValue
-5.099

@<SCITEGIC>MOL_PROPERTY
Grad RMS
SciTegic.value.DoubleValue
0.000000

@<SCITEGIC>MOL_PROPERTY
U
SciTegic.value.DoubleValue
50.701

@<SCITEGIC>MOL_PROPERTY
W
SciTegic.value.DoubleValue
-55.800

@<SCITEGIC>MOL_PROPERTY
W(PB)
SciTegic.value.DoubleValue
-57.867

@<SCITEGIC>MOL_PROPERTY
W(SA)
SciTegic.value.DoubleValue
2.067

@<SCITEGIC>MOL_PROPERTY
Valence
SciTegic.value.DoubleValue
4.880

@<SCITEGIC>MOL_PROPERTY
Coulomb
SciTegic.value.DoubleValue
45.095

@<SCITEGIC>MOL_PROPERTY
VdW
SciTegic.value.DoubleValue
0.726

@<SCITEGIC>MOL_PROPERTY
VdW6
SciTegic.value.DoubleValue
-6.620

@<SCITEGIC>MOL_PROPERTY
VdW12
SciTegic.value.DoubleValue
7.346

@<SCITEGIC>MOL_PROPERTY
Bond
SciTegic.value.DoubleValue
0.222

@<SCITEGIC>MOL_PROPERTY
Angle
SciTegic.value.DoubleValue
1.260

@<SCITEGIC>MOL_PROPERTY
Pdih
SciTegic.value.DoubleValue
3.398

@<SCITEGIC>MOL_PROPERTY
Idih
SciTegic.value.DoubleValue
0.000

@<SCITEGIC>MOL_PROPERTY
Tether
SciTegic.value.DoubleValue
0.000

@<TRIPOS>MOLECULE
guest-2_confgen4.mol2 : confsearch ligand conformer 166
          23          22           1
SMALL
USER_CHARGES
 
@<TRIPOS>ATOM
       1    N1      22.143424   17.346298   22.547156 N.4        1 MOL1        -0.5940
       2    H1      22.333860   16.932055   21.629174 H          1 MOL1         0.3649
       3    H2      22.895625   17.042313   23.174548 H          1 MOL1         0.3649
       4    H3      22.228773   18.362128   22.445161 H          1 MOL1         0.3649
       5    C1      20.777446   16.949502   23.071513 C.3        1 MOL1         0.0207
       6    H4      20.650917   17.396465   24.060808 H          1 MOL1         0.0950
       7    H5      20.768899   15.862370   23.188123 H          1 MOL1         0.0950
       8    C2      19.613287   17.373946   22.152895 C.3        1 MOL1        -0.1415
       9    H6      19.725731   16.876980   21.180175 H          1 MOL1         0.0976
      10    H7      18.673235   17.000037   22.579923 H          1 MOL1         0.0976
      11    C3      19.501749   18.904203   21.934904 C.3        1 MOL1        -0.1375
      12    H8      18.673283   19.088691   21.238856 H          1 MOL1         0.0976
      13    H9      20.406935   19.278276   21.438461 H          1 MOL1         0.0976
      14    C4      19.260136   19.691440   23.248033 C.3        1 MOL1        -0.1375
      15    H10     18.339085   19.334829   23.729346 H          1 MOL1         0.0976
      16    H11     20.075993   19.488475   23.954104 H          1 MOL1         0.0976
      17    C5      19.174324   21.223186   23.041062 C.3        1 MOL1        -0.1350
      18    H12     20.097832   21.587364   22.569646 H          1 MOL1         0.0976
      19    H13     19.120486   21.708537   24.025643 H          1 MOL1         0.0976
      20    C6      17.953057   21.665086   22.202863 C.3        1 MOL1        -0.2365
      21    H14     17.018568   21.284898   22.635524 H          1 MOL1         0.0987
      22    H15     18.023204   21.309041   21.167702 H          1 MOL1         0.0987
      23    H16     17.886111   22.760248   22.170124 H          1 MOL1         0.0987
@<TRIPOS>BOND
    1     1     2    1
    2     1     3    1
    3     1     4    1
    4     1     5    1
    5     5     6    1
    6     5     7    1
    7     5     8    1
    8     8     9    1
    9     8    10    1
   10     8    11    1
   11    11    12    1
   12    11    13    1
   13    11    14    1
   14    14    15    1
   15    14    16    1
   16    14    17    1
   17    17    18    1
   18    17    19    1
   19    17    20    1
   20    20    21    1
   21    20    22    1
   22    20    23    1
@<TRIPOS>SUBSTRUCTURE
       1 MOL1            1 RESIDUE      1      MOL     
@<SCITEGIC>MOL_PROPERTY
VConf Rank
SciTegic.value.IntegerValue
166

@<SCITEGIC>MOL_PROPERTY
Conf_Id
SciTegic.value.IntegerValue
83

@<SCITEGIC>MOL_PROPERTY
Delta U+W
SciTegic.value.DoubleValue
1.229

@<SCITEGIC>MOL_PROPERTY
U+W
SciTegic.value.DoubleValue
-7.154

@<SCITEGIC>MOL_PROPERTY
Grad RMS
SciTegic.value.DoubleValue
0.000000

@<SCITEGIC>MOL_PROPERTY
U
SciTegic.value.DoubleValue
48.727

@<SCITEGIC>MOL_PROPERTY
W
SciTegic.value.DoubleValue
-55.880

@<SCITEGIC>MOL_PROPERTY
W(PB)
SciTegic.value.DoubleValue
-57.960

@<SCITEGIC>MOL_PROPERTY
W(SA)
SciTegic.value.DoubleValue
2.080

@<SCITEGIC>MOL_PROPERTY
Valence
SciTegic.value.DoubleValue
2.671

@<SCITEGIC>MOL_PROPERTY
Coulomb
SciTegic.value.DoubleValue
45.371

@<SCITEGIC>MOL_PROPERTY
VdW
SciTegic.value.DoubleValue
0.684

@<SCITEGIC>MOL_PROPERTY
VdW6
SciTegic.value.DoubleValue
-6.511

@<SCITEGIC>MOL_PROPERTY
VdW12
SciTegic.value.DoubleValue
7.195

@<SCITEGIC>MOL_PROPERTY
Bond
SciTegic.value.DoubleValue
0.203

@<SCITEGIC>MOL_PROPERTY
Angle
SciTegic.value.DoubleValue
0.915

@<SCITEGIC>MOL_PROPERTY
Pdih
SciTegic.value.DoubleValue
1.554

@<SCITEGIC>MOL_PROPERTY
Idih
SciTegic.value.DoubleValue
0.000

@<SCITEGIC>MOL_PROPERTY
Tether
SciTegic.value.DoubleValue
0.000

@<TRIPOS>MOLECULE
guest-2_confgen4.mol2 : confsearch ligand conformer 167
          23          22           1
SMALL
USER_CHARGES
 
@<TRIPOS>ATOM
       1    N1      20.186283   18.677399   19.730862 N.4        1 MOL1        -0.5940
       2    H1      20.157868   17.698211   19.429305 H          1 MOL1         0.3649
       3    H2      20.965483   18.769433   20.389632 H          1 MOL1         0.3649
       4    H3      20.422107   19.238130   18.905149 H          1 MOL1         0.3649
       5    C1      18.873987   19.113534   20.352118 C.3        1 MOL1         0.0207
       6    H4      18.097616   19.022591   19.587589 H          1 MOL1         0.0950
       7    H5      18.960639   20.169112   20.621817 H          1 MOL1         0.0950
       8    C2      18.469961   18.288461   21.591188 C.3        1 MOL1        -0.1415
       9    H6      17.487977   18.634661   21.940064 H          1 MOL1         0.0976
      10    H7      18.336228   17.239701   21.294501 H          1 MOL1         0.0976
      11    C3      19.482826   18.363053   22.761739 C.3        1 MOL1        -0.1375
      12    H8      20.449639   17.948525   22.446796 H          1 MOL1         0.0976
      13    H9      19.119377   17.712209   23.567457 H          1 MOL1         0.0976
      14    C4      19.680752   19.800575   23.306519 C.3        1 MOL1        -0.1375
      15    H10     20.021036   20.457756   22.495548 H          1 MOL1         0.0976
      16    H11     18.716910   20.203479   23.646884 H          1 MOL1         0.0976
      17    C5      20.711453   19.886324   24.458364 C.3        1 MOL1        -0.1350
      18    H12     20.877148   20.944696   24.703835 H          1 MOL1         0.0976
      19    H13     21.680905   19.494454   24.120242 H          1 MOL1         0.0976
      20    C6      20.268250   19.143593   25.739483 C.3        1 MOL1        -0.2365
      21    H14     19.285230   19.494463   26.079439 H          1 MOL1         0.0987
      22    H15     20.985710   19.317933   26.551759 H          1 MOL1         0.0987
      23    H16     20.210552   18.060020   25.578915 H          1 MOL1         0.0987
@<TRIPOS>BOND
    1     1     2    1
    2     1     3    1
    3     1     4    1
    4     1     5    1
    5     5     6    1
    6     5     7    1
    7     5     8    1
    8     8     9    1
    9     8    10    1
   10     8    11    1
   11    11    12    1
   12    11    13    1
   13    11    14    1
   14    14    15    1
   15    14    16    1
   16    14    17    1
   17    17    18    1
   18    17    19    1
   19    17    20    1
   20    20    21    1
   21    20    22    1
   22    20    23    1
@<TRIPOS>SUBSTRUCTURE
       1 MOL1            1 RESIDUE      1      MOL     
@<SCITEGIC>MOL_PROPERTY
VConf Rank
SciTegic.value.IntegerValue
167

@<SCITEGIC>MOL_PROPERTY
Conf_Id
SciTegic.value.IntegerValue
50

@<SCITEGIC>MOL_PROPERTY
Delta U+W
SciTegic.value.DoubleValue
1.252

@<SCITEGIC>MOL_PROPERTY
U+W
SciTegic.value.DoubleValue
-7.130

@<SCITEGIC>MOL_PROPERTY
Grad RMS
SciTegic.value.DoubleValue
0.000000

@<SCITEGIC>MOL_PROPERTY
U
SciTegic.value.DoubleValue
48.727

@<SCITEGIC>MOL_PROPERTY
W
SciTegic.value.DoubleValue
-55.857

@<SCITEGIC>MOL_PROPERTY
W(PB)
SciTegic.value.DoubleValue
-57.937

@<SCITEGIC>MOL_PROPERTY
W(SA)
SciTegic.value.DoubleValue
2.080

@<SCITEGIC>MOL_PROPERTY
Valence
SciTegic.value.DoubleValue
2.671

@<SCITEGIC>MOL_PROPERTY
Coulomb
SciTegic.value.DoubleValue
45.371

@<SCITEGIC>MOL_PROPERTY
VdW
SciTegic.value.DoubleValue
0.684

@<SCITEGIC>MOL_PROPERTY
VdW6
SciTegic.value.DoubleValue
-6.511

@<SCITEGIC>MOL_PROPERTY
VdW12
SciTegic.value.DoubleValue
7.196

@<SCITEGIC>MOL_PROPERTY
Bond
SciTegic.value.DoubleValue
0.203

@<SCITEGIC>MOL_PROPERTY
Angle
SciTegic.value.DoubleValue
0.915

@<SCITEGIC>MOL_PROPERTY
Pdih
SciTegic.value.DoubleValue
1.554

@<SCITEGIC>MOL_PROPERTY
Idih
SciTegic.value.DoubleValue
0.000

@<SCITEGIC>MOL_PROPERTY
Tether
SciTegic.value.DoubleValue
0.000

@<TRIPOS>MOLECULE
guest-2_confgen4.mol2 : confsearch ligand conformer 168
          23          22           1
SMALL
USER_CHARGES
 
@<TRIPOS>ATOM
       1    N1      17.375563   21.059121   23.117625 N.4        1 MOL1        -0.5940
       2    H1      18.164710   21.553630   23.544523 H          1 MOL1         0.3649
       3    H2      16.544805   21.282104   23.676238 H          1 MOL1         0.3649
       4    H3      17.229055   21.466701   22.188627 H          1 MOL1         0.3649
       5    C1      17.620551   19.564464   23.045378 C.3        1 MOL1         0.0207
       6    H4      16.725631   19.102301   22.619822 H          1 MOL1         0.0950
       7    H5      17.744128   19.191111   24.065549 H          1 MOL1         0.0950
       8    C2      18.847916   19.175063   22.198796 C.3        1 MOL1        -0.1415
       9    H6      18.875261   18.082698   22.117227 H          1 MOL1         0.0976
      10    H7      18.721451   19.556574   21.176923 H          1 MOL1         0.0976
      11    C3      20.177328   19.702105   22.796764 C.3        1 MOL1        -0.1375
      12    H8      20.267489   19.404178   23.850551 H          1 MOL1         0.0976
      13    H9      20.150902   20.799950   22.791785 H          1 MOL1         0.0976
      14    C4      21.431334   19.245287   22.006264 C.3        1 MOL1        -0.1375
      15    H10     21.181253   19.095661   20.946894 H          1 MOL1         0.0976
      16    H11     22.164133   20.063935   22.023988 H          1 MOL1         0.0976
      17    C5      22.130264   17.982797   22.572678 C.3        1 MOL1        -0.1350
      18    H12     22.467510   18.178284   23.600210 H          1 MOL1         0.0976
      19    H13     23.039817   17.794844   21.985141 H          1 MOL1         0.0976
      20    C6      21.257259   16.709005   22.554032 C.3        1 MOL1        -0.2365
      21    H14     20.855876   16.518283   21.550362 H          1 MOL1         0.0987
      22    H15     20.419159   16.789740   23.257128 H          1 MOL1         0.0987
      23    H16     21.849844   15.833812   22.850290 H          1 MOL1         0.0987
@<TRIPOS>BOND
    1     1     2    1
    2     1     3    1
    3     1     4    1
    4     1     5    1
    5     5     6    1
    6     5     7    1
    7     5     8    1
    8     8     9    1
    9     8    10    1
   10     8    11    1
   11    11    12    1
   12    11    13    1
   13    11    14    1
   14    14    15    1
   15    14    16    1
   16    14    17    1
   17    17    18    1
   18    17    19    1
   19    17    20    1
   20    20    21    1
   21    20    22    1
   22    20    23    1
@<TRIPOS>SUBSTRUCTURE
       1 MOL1            1 RESIDUE      1      MOL     
@<SCITEGIC>MOL_PROPERTY
VConf Rank
SciTegic.value.IntegerValue
168

@<SCITEGIC>MOL_PROPERTY
Conf_Id
SciTegic.value.IntegerValue
55

@<SCITEGIC>MOL_PROPERTY
Delta U+W
SciTegic.value.DoubleValue
3.232

@<SCITEGIC>MOL_PROPERTY
U+W
SciTegic.value.DoubleValue
-5.150

@<SCITEGIC>MOL_PROPERTY
Grad RMS
SciTegic.value.DoubleValue
0.000000

@<SCITEGIC>MOL_PROPERTY
U
SciTegic.value.DoubleValue
50.625

@<SCITEGIC>MOL_PROPERTY
W
SciTegic.value.DoubleValue
-55.776

@<SCITEGIC>MOL_PROPERTY
W(PB)
SciTegic.value.DoubleValue
-57.839

@<SCITEGIC>MOL_PROPERTY
W(SA)
SciTegic.value.DoubleValue
2.064

@<SCITEGIC>MOL_PROPERTY
Valence
SciTegic.value.DoubleValue
4.837

@<SCITEGIC>MOL_PROPERTY
Coulomb
SciTegic.value.DoubleValue
45.097

@<SCITEGIC>MOL_PROPERTY
VdW
SciTegic.value.DoubleValue
0.692

@<SCITEGIC>MOL_PROPERTY
VdW6
SciTegic.value.DoubleValue
-6.655

@<SCITEGIC>MOL_PROPERTY
VdW12
SciTegic.value.DoubleValue
7.347

@<SCITEGIC>MOL_PROPERTY
Bond
SciTegic.value.DoubleValue
0.223

@<SCITEGIC>MOL_PROPERTY
Angle
SciTegic.value.DoubleValue
1.167

@<SCITEGIC>MOL_PROPERTY
Pdih
SciTegic.value.DoubleValue
3.447

@<SCITEGIC>MOL_PROPERTY
Idih
SciTegic.value.DoubleValue
0.000

@<SCITEGIC>MOL_PROPERTY
Tether
SciTegic.value.DoubleValue
0.000

@<TRIPOS>MOLECULE
guest-2_confgen4.mol2 : confsearch ligand conformer 169
          23          22           1
SMALL
USER_CHARGES
 
@<TRIPOS>ATOM
       1    N1      20.383556   20.872490   25.076644 N.4        1 MOL1        -0.5940
       2    H1      20.526643   21.883114   24.981809 H          1 MOL1         0.3649
       3    H2      20.986299   20.557329   25.844350 H          1 MOL1         0.3649
       4    H3      19.414894   20.732643   25.381426 H          1 MOL1         0.3649
       5    C1      20.682788   20.135959   23.786826 C.3        1 MOL1         0.0207
       6    H4      20.545138   19.069224   23.972483 H          1 MOL1         0.0950
       7    H5      21.734100   20.305685   23.539164 H          1 MOL1         0.0950
       8    C2      19.796202   20.593833   22.612049 C.3        1 MOL1        -0.1415
       9    H6      18.734416   20.472549   22.864566 H          1 MOL1         0.0976
      10    H7      19.958296   21.669660   22.462586 H          1 MOL1         0.0976
      11    C3      20.116056   19.858494   21.285989 C.3        1 MOL1        -0.1375
      12    H8      21.198739   19.691093   21.200098 H          1 MOL1         0.0976
      13    H9      19.851938   20.525347   20.453495 H          1 MOL1         0.0976
      14    C4      19.352160   18.525071   21.076426 C.3        1 MOL1        -0.1375
      15    H10     18.271183   18.721300   21.059851 H          1 MOL1         0.0976
      16    H11     19.606440   18.138905   20.079602 H          1 MOL1         0.0976
      17    C5      19.659084   17.434636   22.128686 C.3        1 MOL1        -0.1350
      18    H12     19.268235   17.739569   23.108057 H          1 MOL1         0.0976
      19    H13     20.746075   17.312471   22.234535 H          1 MOL1         0.0976
      20    C6      19.026647   16.079715   21.745420 C.3        1 MOL1        -0.2365
      21    H14     19.420194   15.716521   20.787075 H          1 MOL1         0.0987
      22    H15     17.935665   16.164520   21.657009 H          1 MOL1         0.0987
      23    H16     19.244891   15.320660   22.507807 H          1 MOL1         0.0987
@<TRIPOS>BOND
    1     1     2    1
    2     1     3    1
    3     1     4    1
    4     1     5    1
    5     5     6    1
    6     5     7    1
    7     5     8    1
    8     8     9    1
    9     8    10    1
   10     8    11    1
   11    11    12    1
   12    11    13    1
   13    11    14    1
   14    14    15    1
   15    14    16    1
   16    14    17    1
   17    17    18    1
   18    17    19    1
   19    17    20    1
   20    20    21    1
   21    20    22    1
   22    20    23    1
@<TRIPOS>SUBSTRUCTURE
       1 MOL1            1 RESIDUE      1      MOL     
@<SCITEGIC>MOL_PROPERTY
VConf Rank
SciTegic.value.IntegerValue
169

@<SCITEGIC>MOL_PROPERTY
Conf_Id
SciTegic.value.IntegerValue
93

@<SCITEGIC>MOL_PROPERTY
Delta U+W
SciTegic.value.DoubleValue
2.589

@<SCITEGIC>MOL_PROPERTY
U+W
SciTegic.value.DoubleValue
-5.793

@<SCITEGIC>MOL_PROPERTY
Grad RMS
SciTegic.value.DoubleValue
0.000000

@<SCITEGIC>MOL_PROPERTY
U
SciTegic.value.DoubleValue
50.122

@<SCITEGIC>MOL_PROPERTY
W
SciTegic.value.DoubleValue
-55.915

@<SCITEGIC>MOL_PROPERTY
W(PB)
SciTegic.value.DoubleValue
-58.031

@<SCITEGIC>MOL_PROPERTY
W(SA)
SciTegic.value.DoubleValue
2.115

@<SCITEGIC>MOL_PROPERTY
Valence
SciTegic.value.DoubleValue
4.132

@<SCITEGIC>MOL_PROPERTY
Coulomb
SciTegic.value.DoubleValue
45.536

@<SCITEGIC>MOL_PROPERTY
VdW
SciTegic.value.DoubleValue
0.454

@<SCITEGIC>MOL_PROPERTY
VdW6
SciTegic.value.DoubleValue
-6.262

@<SCITEGIC>MOL_PROPERTY
VdW12
SciTegic.value.DoubleValue
6.715

@<SCITEGIC>MOL_PROPERTY
Bond
SciTegic.value.DoubleValue
0.182

@<SCITEGIC>MOL_PROPERTY
Angle
SciTegic.value.DoubleValue
1.157

@<SCITEGIC>MOL_PROPERTY
Pdih
SciTegic.value.DoubleValue
2.794

@<SCITEGIC>MOL_PROPERTY
Idih
SciTegic.value.DoubleValue
0.000

@<SCITEGIC>MOL_PROPERTY
Tether
SciTegic.value.DoubleValue
0.000

@<TRIPOS>MOLECULE
guest-2_confgen4.mol2 : confsearch ligand conformer 170
          23          22           1
SMALL
USER_CHARGES
 
@<TRIPOS>ATOM
       1    N1      22.706086   19.651552   21.980297 N.4        1 MOL1        -0.5940
       2    H1      22.733926   18.884183   21.301235 H          1 MOL1         0.3649
       3    H2      23.438748   19.463613   22.673034 H          1 MOL1         0.3649
       4    H3      22.979528   20.504741   21.482173 H          1 MOL1         0.3649
       5    C1      21.341975   19.786692   22.625731 C.3        1 MOL1         0.0207
       6    H4      21.394192   20.600147   23.354403 H          1 MOL1         0.0950
       7    H5      21.134915   18.860332   23.164547 H          1 MOL1         0.0950
       8    C2      20.220522   20.076898   21.608916 C.3        1 MOL1        -0.1415
       9    H6      20.469101   21.009586   21.085159 H          1 MOL1         0.0976
      10    H7      20.186364   19.290898   20.842822 H          1 MOL1         0.0976
      11    C3      18.827845   20.238664   22.269027 C.3        1 MOL1        -0.1375
      12    H8      18.222867   20.899078   21.632355 H          1 MOL1         0.0976
      13    H9      18.925545   20.761466   23.230659 H          1 MOL1         0.0976
      14    C4      18.035907   18.918582   22.457951 C.3        1 MOL1        -0.1375
      15    H10     17.046423   19.169244   22.864805 H          1 MOL1         0.0976
      16    H11     17.853610   18.457653   21.477336 H          1 MOL1         0.0976
      17    C5      18.713986   17.888439   23.390429 C.3        1 MOL1        -0.1350
      18    H12     19.003998   18.371909   24.333735 H          1 MOL1         0.0976
      19    H13     19.631634   17.508325   22.923147 H          1 MOL1         0.0976
      20    C6      17.783193   16.694598   23.692175 C.3        1 MOL1        -0.2365
      21    H14     18.283726   15.968447   24.345781 H          1 MOL1         0.0987
      22    H15     17.496147   16.174903   22.768719 H          1 MOL1         0.0987
      23    H16     16.866461   17.025651   24.197367 H          1 MOL1         0.0987
@<TRIPOS>BOND
    1     1     2    1
    2     1     3    1
    3     1     4    1
    4     1     5    1
    5     5     6    1
    6     5     7    1
    7     5     8    1
    8     8     9    1
    9     8    10    1
   10     8    11    1
   11    11    12    1
   12    11    13    1
   13    11    14    1
   14    14    15    1
   15    14    16    1
   16    14    17    1
   17    17    18    1
   18    17    19    1
   19    17    20    1
   20    20    21    1
   21    20    22    1
   22    20    23    1
@<TRIPOS>SUBSTRUCTURE
       1 MOL1            1 RESIDUE      1      MOL     
@<SCITEGIC>MOL_PROPERTY
VConf Rank
SciTegic.value.IntegerValue
170

@<SCITEGIC>MOL_PROPERTY
Conf_Id
SciTegic.value.IntegerValue
70

@<SCITEGIC>MOL_PROPERTY
Delta U+W
SciTegic.value.DoubleValue
2.599

@<SCITEGIC>MOL_PROPERTY
U+W
SciTegic.value.DoubleValue
-5.783

@<SCITEGIC>MOL_PROPERTY
Grad RMS
SciTegic.value.DoubleValue
0.000000

@<SCITEGIC>MOL_PROPERTY
U
SciTegic.value.DoubleValue
50.122

@<SCITEGIC>MOL_PROPERTY
W
SciTegic.value.DoubleValue
-55.906

@<SCITEGIC>MOL_PROPERTY
W(PB)
SciTegic.value.DoubleValue
-58.010

@<SCITEGIC>MOL_PROPERTY
W(SA)
SciTegic.value.DoubleValue
2.105

@<SCITEGIC>MOL_PROPERTY
Valence
SciTegic.value.DoubleValue
4.132

@<SCITEGIC>MOL_PROPERTY
Coulomb
SciTegic.value.DoubleValue
45.536

@<SCITEGIC>MOL_PROPERTY
VdW
SciTegic.value.DoubleValue
0.454

@<SCITEGIC>MOL_PROPERTY
VdW6
SciTegic.value.DoubleValue
-6.262

@<SCITEGIC>MOL_PROPERTY
VdW12
SciTegic.value.DoubleValue
6.715

@<SCITEGIC>MOL_PROPERTY
Bond
SciTegic.value.DoubleValue
0.182

@<SCITEGIC>MOL_PROPERTY
Angle
SciTegic.value.DoubleValue
1.157

@<SCITEGIC>MOL_PROPERTY
Pdih
SciTegic.value.DoubleValue
2.794

@<SCITEGIC>MOL_PROPERTY
Idih
SciTegic.value.DoubleValue
0.000

@<SCITEGIC>MOL_PROPERTY
Tether
SciTegic.value.DoubleValue
0.000

@<TRIPOS>MOLECULE
guest-2_confgen4.mol2 : confsearch ligand conformer 171
          23          22           1
SMALL
USER_CHARGES
 
@<TRIPOS>ATOM
       1    N1      18.737304   21.004974   20.899360 N.4        1 MOL1        -0.5940
       2    H1      17.756446   21.302330   20.901185 H          1 MOL1         0.3649
       3    H2      19.171620   21.411107   20.063783 H          1 MOL1         0.3649
       4    H3      19.186230   21.436963   21.712574 H          1 MOL1         0.3649
       5    C1      18.867524   19.494803   20.925052 C.3        1 MOL1         0.0207
       6    H4      19.931042   19.244853   20.887649 H          1 MOL1         0.0950
       7    H5      18.394845   19.104263   20.019762 H          1 MOL1         0.0950
       8    C2      18.222497   18.839961   22.163158 C.3        1 MOL1        -0.1415
       9    H6      17.148580   19.068750   22.171698 H          1 MOL1         0.0976
      10    H7      18.294655   17.749285   22.065009 H          1 MOL1         0.0976
      11    C3      18.849284   19.285749   23.510532 C.3        1 MOL1        -0.1375
      12    H8      18.356544   18.740842   24.327531 H          1 MOL1         0.0976
      13    H9      18.621716   20.346380   23.682306 H          1 MOL1         0.0976
      14    C4      20.382503   19.079362   23.617502 C.3        1 MOL1        -0.1375
      15    H10     20.898721   19.692053   22.866488 H          1 MOL1         0.0976
      16    H11     20.715010   19.455498   24.594895 H          1 MOL1         0.0976
      17    C5      20.818725   17.602254   23.473429 C.3        1 MOL1        -0.1350
      18    H12     20.558943   17.226162   22.474927 H          1 MOL1         0.0976
      19    H13     20.274373   16.982189   24.199317 H          1 MOL1         0.0976
      20    C6      22.337201   17.433230   23.692621 C.3        1 MOL1        -0.2365
      21    H14     22.629663   16.380727   23.584369 H          1 MOL1         0.0987
      22    H15     22.630386   17.762250   24.698097 H          1 MOL1         0.0987
      23    H16     22.909004   18.018772   22.960921 H          1 MOL1         0.0987
@<TRIPOS>BOND
    1     1     2    1
    2     1     3    1
    3     1     4    1
    4     1     5    1
    5     5     6    1
    6     5     7    1
    7     5     8    1
    8     8     9    1
    9     8    10    1
   10     8    11    1
   11    11    12    1
   12    11    13    1
   13    11    14    1
   14    14    15    1
   15    14    16    1
   16    14    17    1
   17    17    18    1
   18    17    19    1
   19    17    20    1
   20    20    21    1
   21    20    22    1
   22    20    23    1
@<TRIPOS>SUBSTRUCTURE
       1 MOL1            1 RESIDUE      1      MOL     
@<SCITEGIC>MOL_PROPERTY
VConf Rank
SciTegic.value.IntegerValue
171

@<SCITEGIC>MOL_PROPERTY
Conf_Id
SciTegic.value.IntegerValue
72

@<SCITEGIC>MOL_PROPERTY
Delta U+W
SciTegic.value.DoubleValue
1.051

@<SCITEGIC>MOL_PROPERTY
U+W
SciTegic.value.DoubleValue
-7.331

@<SCITEGIC>MOL_PROPERTY
Grad RMS
SciTegic.value.DoubleValue
0.000000

@<SCITEGIC>MOL_PROPERTY
U
SciTegic.value.DoubleValue
48.590

@<SCITEGIC>MOL_PROPERTY
W
SciTegic.value.DoubleValue
-55.922

@<SCITEGIC>MOL_PROPERTY
W(PB)
SciTegic.value.DoubleValue
-58.012

@<SCITEGIC>MOL_PROPERTY
W(SA)
SciTegic.value.DoubleValue
2.090

@<SCITEGIC>MOL_PROPERTY
Valence
SciTegic.value.DoubleValue
2.601

@<SCITEGIC>MOL_PROPERTY
Coulomb
SciTegic.value.DoubleValue
45.520

@<SCITEGIC>MOL_PROPERTY
VdW
SciTegic.value.DoubleValue
0.469

@<SCITEGIC>MOL_PROPERTY
VdW6
SciTegic.value.DoubleValue
-6.867

@<SCITEGIC>MOL_PROPERTY
VdW12
SciTegic.value.DoubleValue
7.336

@<SCITEGIC>MOL_PROPERTY
Bond
SciTegic.value.DoubleValue
0.205

@<SCITEGIC>MOL_PROPERTY
Angle
SciTegic.value.DoubleValue
0.962

@<SCITEGIC>MOL_PROPERTY
Pdih
SciTegic.value.DoubleValue
1.434

@<SCITEGIC>MOL_PROPERTY
Idih
SciTegic.value.DoubleValue
0.000

@<SCITEGIC>MOL_PROPERTY
Tether
SciTegic.value.DoubleValue
0.000

@<TRIPOS>MOLECULE
guest-2_confgen4.mol2 : confsearch ligand conformer 172
          23          22           1
SMALL
USER_CHARGES
 
@<TRIPOS>ATOM
       1    N1      16.666509   18.719013   23.108277 N.4        1 MOL1        -0.5940
       2    H1      16.008556   19.392275   23.515430 H          1 MOL1         0.3649
       3    H2      16.343761   17.785169   23.381323 H          1 MOL1         0.3649
       4    H3      16.569577   18.785872   22.090045 H          1 MOL1         0.3649
       5    C1      18.089309   18.979257   23.559446 C.3        1 MOL1         0.0207
       6    H4      18.113871   18.920921   24.650933 H          1 MOL1         0.0950
       7    H5      18.354804   19.997393   23.263062 H          1 MOL1         0.0950
       8    C2      19.103211   17.984214   22.964710 C.3        1 MOL1        -0.1415
       9    H6      18.806215   16.962772   23.237065 H          1 MOL1         0.0976
      10    H7      19.070200   18.032602   21.868808 H          1 MOL1         0.0976
      11    C3      20.548409   18.234155   23.462698 C.3        1 MOL1        -0.1375
      12    H8      21.215319   17.481339   23.021734 H          1 MOL1         0.0976
      13    H9      20.584510   18.062120   24.547324 H          1 MOL1         0.0976
      14    C4      21.102502   19.654397   23.168332 C.3        1 MOL1        -0.1375
      15    H10     20.532536   20.395199   23.745094 H          1 MOL1         0.0976
      16    H11     22.131946   19.714466   23.547550 H          1 MOL1         0.0976
      17    C5      21.095324   20.068527   21.674791 C.3        1 MOL1        -0.1350
      18    H12     21.494852   21.088968   21.592519 H          1 MOL1         0.0976
      19    H13     20.064455   20.118460   21.299381 H          1 MOL1         0.0976
      20    C6      21.933599   19.132330   20.775155 C.3        1 MOL1        -0.2365
      21    H14     22.966517   19.056721   21.138892 H          1 MOL1         0.0987
      22    H15     21.966763   19.515072   19.746927 H          1 MOL1         0.0987
      23    H16     21.507419   18.122102   20.738175 H          1 MOL1         0.0987
@<TRIPOS>BOND
    1     1     2    1
    2     1     3    1
    3     1     4    1
    4     1     5    1
    5     5     6    1
    6     5     7    1
    7     5     8    1
    8     8     9    1
    9     8    10    1
   10     8    11    1
   11    11    12    1
   12    11    13    1
   13    11    14    1
   14    14    15    1
   15    14    16    1
   16    14    17    1
   17    17    18    1
   18    17    19    1
   19    17    20    1
   20    20    21    1
   21    20    22    1
   22    20    23    1
@<TRIPOS>SUBSTRUCTURE
       1 MOL1            1 RESIDUE      1      MOL     
@<SCITEGIC>MOL_PROPERTY
VConf Rank
SciTegic.value.IntegerValue
172

@<SCITEGIC>MOL_PROPERTY
Conf_Id
SciTegic.value.IntegerValue
26

@<SCITEGIC>MOL_PROPERTY
Delta U+W
SciTegic.value.DoubleValue
1.076

@<SCITEGIC>MOL_PROPERTY
U+W
SciTegic.value.DoubleValue
-7.306

@<SCITEGIC>MOL_PROPERTY
Grad RMS
SciTegic.value.DoubleValue
0.000000

@<SCITEGIC>MOL_PROPERTY
U
SciTegic.value.DoubleValue
48.641

@<SCITEGIC>MOL_PROPERTY
W
SciTegic.value.DoubleValue
-55.947

@<SCITEGIC>MOL_PROPERTY
W(PB)
SciTegic.value.DoubleValue
-58.031

@<SCITEGIC>MOL_PROPERTY
W(SA)
SciTegic.value.DoubleValue
2.084

@<SCITEGIC>MOL_PROPERTY
Valence
SciTegic.value.DoubleValue
2.922

@<SCITEGIC>MOL_PROPERTY
Coulomb
SciTegic.value.DoubleValue
45.269

@<SCITEGIC>MOL_PROPERTY
VdW
SciTegic.value.DoubleValue
0.449

@<SCITEGIC>MOL_PROPERTY
VdW6
SciTegic.value.DoubleValue
-7.045

@<SCITEGIC>MOL_PROPERTY
VdW12
SciTegic.value.DoubleValue
7.494

@<SCITEGIC>MOL_PROPERTY
Bond
SciTegic.value.DoubleValue
0.220

@<SCITEGIC>MOL_PROPERTY
Angle
SciTegic.value.DoubleValue
1.205

@<SCITEGIC>MOL_PROPERTY
Pdih
SciTegic.value.DoubleValue
1.497

@<SCITEGIC>MOL_PROPERTY
Idih
SciTegic.value.DoubleValue
0.000

@<SCITEGIC>MOL_PROPERTY
Tether
SciTegic.value.DoubleValue
0.000

@<TRIPOS>MOLECULE
guest-2_confgen4.mol2 : confsearch ligand conformer 173
          23          22           1
SMALL
USER_CHARGES
 
@<TRIPOS>ATOM
       1    N1      18.009431   16.481306   22.111202 N.4        1 MOL1        -0.5940
       2    H1      17.051103   16.688579   21.812157 H          1 MOL1         0.3649
       3    H2      17.980034   15.581279   22.602167 H          1 MOL1         0.3649
       4    H3      18.566330   16.339833   21.262372 H          1 MOL1         0.3649
       5    C1      18.578818   17.580566   22.984735 C.3        1 MOL1         0.0207
       6    H4      19.584802   17.280400   23.289413 H          1 MOL1         0.0950
       7    H5      17.956352   17.657303   23.880278 H          1 MOL1         0.0950
       8    C2      18.636859   18.946526   22.275790 C.3        1 MOL1        -0.1415
       9    H6      19.250821   18.867500   21.369568 H          1 MOL1         0.0976
      10    H7      17.627625   19.220808   21.941209 H          1 MOL1         0.0976
      11    C3      19.183508   20.071368   23.189556 C.3        1 MOL1        -0.1375
      12    H8      18.488562   20.216131   24.028249 H          1 MOL1         0.0976
      13    H9      19.178422   21.018989   22.634632 H          1 MOL1         0.0976
      14    C4      20.603322   19.813113   23.762435 C.3        1 MOL1        -0.1375
      15    H10     20.895074   20.675305   24.377799 H          1 MOL1         0.0976
      16    H11     20.569001   18.958084   24.450947 H          1 MOL1         0.0976
      17    C5      21.705794   19.559591   22.702952 C.3        1 MOL1        -0.1350
      18    H12     21.490042   18.639920   22.142795 H          1 MOL1         0.0976
      19    H13     22.656525   19.378353   23.223487 H          1 MOL1         0.0976
      20    C6      21.893715   20.737377   21.720086 C.3        1 MOL1        -0.2365
      21    H14     21.003187   20.887616   21.097233 H          1 MOL1         0.0987
      22    H15     22.739407   20.545627   21.047124 H          1 MOL1         0.0987
      23    H16     22.098244   21.671694   22.258752 H          1 MOL1         0.0987
@<TRIPOS>BOND
    1     1     2    1
    2     1     3    1
    3     1     4    1
    4     1     5    1
    5     5     6    1
    6     5     7    1
    7     5     8    1
    8     8     9    1
    9     8    10    1
   10     8    11    1
   11    11    12    1
   12    11    13    1
   13    11    14    1
   14    14    15    1
   15    14    16    1
   16    14    17    1
   17    17    18    1
   18    17    19    1
   19    17    20    1
   20    20    21    1
   21    20    22    1
   22    20    23    1
@<TRIPOS>SUBSTRUCTURE
       1 MOL1            1 RESIDUE      1      MOL     
@<SCITEGIC>MOL_PROPERTY
VConf Rank
SciTegic.value.IntegerValue
173

@<SCITEGIC>MOL_PROPERTY
Conf_Id
SciTegic.value.IntegerValue
90

@<SCITEGIC>MOL_PROPERTY
Delta U+W
SciTegic.value.DoubleValue
1.131

@<SCITEGIC>MOL_PROPERTY
U+W
SciTegic.value.DoubleValue
-7.251

@<SCITEGIC>MOL_PROPERTY
Grad RMS
SciTegic.value.DoubleValue
0.000000

@<SCITEGIC>MOL_PROPERTY
U
SciTegic.value.DoubleValue
48.641

@<SCITEGIC>MOL_PROPERTY
W
SciTegic.value.DoubleValue
-55.892

@<SCITEGIC>MOL_PROPERTY
W(PB)
SciTegic.value.DoubleValue
-57.962

@<SCITEGIC>MOL_PROPERTY
W(SA)
SciTegic.value.DoubleValue
2.070

@<SCITEGIC>MOL_PROPERTY
Valence
SciTegic.value.DoubleValue
2.922

@<SCITEGIC>MOL_PROPERTY
Coulomb
SciTegic.value.DoubleValue
45.269

@<SCITEGIC>MOL_PROPERTY
VdW
SciTegic.value.DoubleValue
0.450

@<SCITEGIC>MOL_PROPERTY
VdW6
SciTegic.value.DoubleValue
-7.045

@<SCITEGIC>MOL_PROPERTY
VdW12
SciTegic.value.DoubleValue
7.495

@<SCITEGIC>MOL_PROPERTY
Bond
SciTegic.value.DoubleValue
0.220

@<SCITEGIC>MOL_PROPERTY
Angle
SciTegic.value.DoubleValue
1.205

@<SCITEGIC>MOL_PROPERTY
Pdih
SciTegic.value.DoubleValue
1.497

@<SCITEGIC>MOL_PROPERTY
Idih
SciTegic.value.DoubleValue
0.000

@<SCITEGIC>MOL_PROPERTY
Tether
SciTegic.value.DoubleValue
0.000

@<TRIPOS>MOLECULE
guest-2_confgen4.mol2 : confsearch ligand conformer 174
          23          22           1
SMALL
USER_CHARGES
 
@<TRIPOS>ATOM
       1    N1      19.694711   21.389299   21.587520 N.4        1 MOL1        -0.5940
       2    H1      19.939515   22.333745   21.903660 H          1 MOL1         0.3649
       3    H2      19.068626   20.988425   22.292459 H          1 MOL1         0.3649
       4    H3      19.152517   21.494070   20.724026 H          1 MOL1         0.3649
       5    C1      20.925124   20.528582   21.378613 C.3        1 MOL1         0.0207
       6    H4      21.471551   20.483272   22.324172 H          1 MOL1         0.0950
       7    H5      21.560979   21.029423   20.643517 H          1 MOL1         0.0950
       8    C2      20.606817   19.100284   20.891237 C.3        1 MOL1        -0.1415
       9    H6      20.100291   19.156630   19.918588 H          1 MOL1         0.0976
      10    H7      21.551920   18.570195   20.713391 H          1 MOL1         0.0976
      11    C3      19.737060   18.278257   21.875297 C.3        1 MOL1        -0.1375
      12    H8      19.552645   17.288156   21.436205 H          1 MOL1         0.0976
      13    H9      18.753916   18.754208   21.980191 H          1 MOL1         0.0976
      14    C4      20.396767   18.102054   23.266416 C.3        1 MOL1        -0.1375
      15    H10     21.412196   17.703923   23.133510 H          1 MOL1         0.0976
      16    H11     20.508595   19.077055   23.759164 H          1 MOL1         0.0976
      17    C5      19.613344   17.148666   24.200595 C.3        1 MOL1        -0.1350
      18    H12     20.198106   16.994735   25.118307 H          1 MOL1         0.0976
      19    H13     19.517217   16.160895   23.728526 H          1 MOL1         0.0976
      20    C6      18.213643   17.679862   24.585050 C.3        1 MOL1        -0.2365
      21    H14     18.280109   18.678672   25.035492 H          1 MOL1         0.0987
      22    H15     17.737760   17.013524   25.316121 H          1 MOL1         0.0987
      23    H16     17.550838   17.738472   23.712890 H          1 MOL1         0.0987
@<TRIPOS>BOND
    1     1     2    1
    2     1     3    1
    3     1     4    1
    4     1     5    1
    5     5     6    1
    6     5     7    1
    7     5     8    1
    8     8     9    1
    9     8    10    1
   10     8    11    1
   11    11    12    1
   12    11    13    1
   13    11    14    1
   14    14    15    1
   15    14    16    1
   16    14    17    1
   17    17    18    1
   18    17    19    1
   19    17    20    1
   20    20    21    1
   21    20    22    1
   22    20    23    1
@<TRIPOS>SUBSTRUCTURE
       1 MOL1            1 RESIDUE      1      MOL     
@<SCITEGIC>MOL_PROPERTY
VConf Rank
SciTegic.value.IntegerValue
174

@<SCITEGIC>MOL_PROPERTY
Conf_Id
SciTegic.value.IntegerValue
85

@<SCITEGIC>MOL_PROPERTY
Delta U+W
SciTegic.value.DoubleValue
1.193

@<SCITEGIC>MOL_PROPERTY
U+W
SciTegic.value.DoubleValue
-7.189

@<SCITEGIC>MOL_PROPERTY
Grad RMS
SciTegic.value.DoubleValue
0.000000

@<SCITEGIC>MOL_PROPERTY
U
SciTegic.value.DoubleValue
48.775

@<SCITEGIC>MOL_PROPERTY
W
SciTegic.value.DoubleValue
-55.965

@<SCITEGIC>MOL_PROPERTY
W(PB)
SciTegic.value.DoubleValue
-58.038

@<SCITEGIC>MOL_PROPERTY
W(SA)
SciTegic.value.DoubleValue
2.073

@<SCITEGIC>MOL_PROPERTY
Valence
SciTegic.value.DoubleValue
2.602

@<SCITEGIC>MOL_PROPERTY
Coulomb
SciTegic.value.DoubleValue
45.581

@<SCITEGIC>MOL_PROPERTY
VdW
SciTegic.value.DoubleValue
0.592

@<SCITEGIC>MOL_PROPERTY
VdW6
SciTegic.value.DoubleValue
-6.616

@<SCITEGIC>MOL_PROPERTY
VdW12
SciTegic.value.DoubleValue
7.208

@<SCITEGIC>MOL_PROPERTY
Bond
SciTegic.value.DoubleValue
0.196

@<SCITEGIC>MOL_PROPERTY
Angle
SciTegic.value.DoubleValue
0.832

@<SCITEGIC>MOL_PROPERTY
Pdih
SciTegic.value.DoubleValue
1.574

@<SCITEGIC>MOL_PROPERTY
Idih
SciTegic.value.DoubleValue
0.000

@<SCITEGIC>MOL_PROPERTY
Tether
SciTegic.value.DoubleValue
0.000

@<TRIPOS>MOLECULE
guest-2_confgen4.mol2 : confsearch ligand conformer 175
          23          22           1
SMALL
USER_CHARGES
 
@<TRIPOS>ATOM
       1    N1      18.523948   18.644871   20.891757 N.4        1 MOL1        -0.5940
       2    H1      19.234817   18.095339   21.385062 H          1 MOL1         0.3649
       3    H2      18.733153   18.588948   19.889056 H          1 MOL1         0.3649
       4    H3      17.622444   18.178246   21.035170 H          1 MOL1         0.3649
       5    C1      18.497065   20.079631   21.382067 C.3        1 MOL1         0.0207
       6    H4      17.718947   20.596657   20.813976 H          1 MOL1         0.0950
       7    H5      19.456432   20.548190   21.147133 H          1 MOL1         0.0950
       8    C2      18.199098   20.222161   22.888592 C.3        1 MOL1        -0.1415
       9    H6      17.813085   21.236147   23.057897 H          1 MOL1         0.0976
      10    H7      17.384929   19.541869   23.171796 H          1 MOL1         0.0976
      11    C3      19.418409   20.016655   23.827293 C.3        1 MOL1        -0.1375
      12    H8      19.076216   20.201137   24.855094 H          1 MOL1         0.0976
      13    H9      20.178243   20.785241   23.628804 H          1 MOL1         0.0976
      14    C4      20.060496   18.606383   23.781269 C.3        1 MOL1        -0.1375
      15    H10     20.394120   18.341745   24.794383 H          1 MOL1         0.0976
      16    H11     19.306120   17.854845   23.513253 H          1 MOL1         0.0976
      17    C5      21.287869   18.525888   22.840963 C.3        1 MOL1        -0.1350
      18    H12     22.088586   19.167488   23.235090 H          1 MOL1         0.0976
      19    H13     21.049517   18.918205   21.845195 H          1 MOL1         0.0976
      20    C6      21.813888   17.080754   22.711662 C.3        1 MOL1        -0.2365
      21    H14     22.110991   16.680982   23.690070 H          1 MOL1         0.0987
      22    H15     22.692154   17.045534   22.053947 H          1 MOL1         0.0987
      23    H16     21.050279   16.414922   22.289365 H          1 MOL1         0.0987
@<TRIPOS>BOND
    1     1     2    1
    2     1     3    1
    3     1     4    1
    4     1     5    1
    5     5     6    1
    6     5     7    1
    7     5     8    1
    8     8     9    1
    9     8    10    1
   10     8    11    1
   11    11    12    1
   12    11    13    1
   13    11    14    1
   14    14    15    1
   15    14    16    1
   16    14    17    1
   17    17    18    1
   18    17    19    1
   19    17    20    1
   20    20    21    1
   21    20    22    1
   22    20    23    1
@<TRIPOS>SUBSTRUCTURE
       1 MOL1            1 RESIDUE      1      MOL     
@<SCITEGIC>MOL_PROPERTY
VConf Rank
SciTegic.value.IntegerValue
175

@<SCITEGIC>MOL_PROPERTY
Conf_Id
SciTegic.value.IntegerValue
82

@<SCITEGIC>MOL_PROPERTY
Delta U+W
SciTegic.value.DoubleValue
5.994

@<SCITEGIC>MOL_PROPERTY
U+W
SciTegic.value.DoubleValue
-2.388

@<SCITEGIC>MOL_PROPERTY
Grad RMS
SciTegic.value.DoubleValue
0.000000

@<SCITEGIC>MOL_PROPERTY
U
SciTegic.value.DoubleValue
52.836

@<SCITEGIC>MOL_PROPERTY
W
SciTegic.value.DoubleValue
-55.224

@<SCITEGIC>MOL_PROPERTY
W(PB)
SciTegic.value.DoubleValue
-57.261

@<SCITEGIC>MOL_PROPERTY
W(SA)
SciTegic.value.DoubleValue
2.037

@<SCITEGIC>MOL_PROPERTY
Valence
SciTegic.value.DoubleValue
5.785

@<SCITEGIC>MOL_PROPERTY
Coulomb
SciTegic.value.DoubleValue
46.744

@<SCITEGIC>MOL_PROPERTY
VdW
SciTegic.value.DoubleValue
0.307

@<SCITEGIC>MOL_PROPERTY
VdW6
SciTegic.value.DoubleValue
-7.672

@<SCITEGIC>MOL_PROPERTY
VdW12
SciTegic.value.DoubleValue
7.979

@<SCITEGIC>MOL_PROPERTY
Bond
SciTegic.value.DoubleValue
0.217

@<SCITEGIC>MOL_PROPERTY
Angle
SciTegic.value.DoubleValue
1.470

@<SCITEGIC>MOL_PROPERTY
Pdih
SciTegic.value.DoubleValue
4.098

@<SCITEGIC>MOL_PROPERTY
Idih
SciTegic.value.DoubleValue
0.000

@<SCITEGIC>MOL_PROPERTY
Tether
SciTegic.value.DoubleValue
0.000

@<TRIPOS>MOLECULE
guest-2_confgen4.mol2 : confsearch ligand conformer 176
          23          22           1
SMALL
USER_CHARGES
 
@<TRIPOS>ATOM
       1    N1      20.793890   18.730731   24.391307 N.4        1 MOL1        -0.5940
       2    H1      20.194167   18.592408   25.211194 H          1 MOL1         0.3649
       3    H2      21.732627   18.407934   24.649910 H          1 MOL1         0.3649
       4    H3      20.448704   18.110740   23.651624 H          1 MOL1         0.3649
       5    C1      20.800939   20.178289   23.939440 C.3        1 MOL1         0.0207
       6    H4      21.502646   20.282237   23.107617 H          1 MOL1         0.0950
       7    H5      21.177130   20.772323   24.776765 H          1 MOL1         0.0950
       8    C2      19.414694   20.712960   23.525714 C.3        1 MOL1        -0.1415
       9    H6      18.657562   20.378773   24.247477 H          1 MOL1         0.0976
      10    H7      19.441499   21.807736   23.606874 H          1 MOL1         0.0976
      11    C3      18.971016   20.355782   22.081523 C.3        1 MOL1        -0.1375
      12    H8      19.661499   20.806041   21.354907 H          1 MOL1         0.0976
      13    H9      18.001834   20.842959   21.905886 H          1 MOL1         0.0976
      14    C4      18.805872   18.841427   21.793913 C.3        1 MOL1        -0.1375
      15    H10     18.532138   18.308350   22.714035 H          1 MOL1         0.0976
      16    H11     17.955798   18.706797   21.110549 H          1 MOL1         0.0976
      17    C5      20.053103   18.207372   21.130972 C.3        1 MOL1        -0.1350
      18    H12     20.962470   18.436569   21.699130 H          1 MOL1         0.0976
      19    H13     20.198673   18.650371   20.135635 H          1 MOL1         0.0976
      20    C6      19.907992   16.677519   20.988429 C.3        1 MOL1        -0.2365
      21    H14     19.793230   16.195073   21.967635 H          1 MOL1         0.0987
      22    H15     20.794094   16.247828   20.503281 H          1 MOL1         0.0987
      23    H16     19.032866   16.420369   20.377366 H          1 MOL1         0.0987
@<TRIPOS>BOND
    1     1     2    1
    2     1     3    1
    3     1     4    1
    4     1     5    1
    5     5     6    1
    6     5     7    1
    7     5     8    1
    8     8     9    1
    9     8    10    1
   10     8    11    1
   11    11    12    1
   12    11    13    1
   13    11    14    1
   14    14    15    1
   15    14    16    1
   16    14    17    1
   17    17    18    1
   18    17    19    1
   19    17    20    1
   20    20    21    1
   21    20    22    1
   22    20    23    1
@<TRIPOS>SUBSTRUCTURE
       1 MOL1            1 RESIDUE      1      MOL     
@<SCITEGIC>MOL_PROPERTY
VConf Rank
SciTegic.value.IntegerValue
176

@<SCITEGIC>MOL_PROPERTY
Conf_Id
SciTegic.value.IntegerValue
5

@<SCITEGIC>MOL_PROPERTY
Delta U+W
SciTegic.value.DoubleValue
6.087

@<SCITEGIC>MOL_PROPERTY
U+W
SciTegic.value.DoubleValue
-2.295

@<SCITEGIC>MOL_PROPERTY
Grad RMS
SciTegic.value.DoubleValue
0.000000

@<SCITEGIC>MOL_PROPERTY
U
SciTegic.value.DoubleValue
52.836

@<SCITEGIC>MOL_PROPERTY
W
SciTegic.value.DoubleValue
-55.131

@<SCITEGIC>MOL_PROPERTY
W(PB)
SciTegic.value.DoubleValue
-57.202

@<SCITEGIC>MOL_PROPERTY
W(SA)
SciTegic.value.DoubleValue
2.071

@<SCITEGIC>MOL_PROPERTY
Valence
SciTegic.value.DoubleValue
5.785

@<SCITEGIC>MOL_PROPERTY
Coulomb
SciTegic.value.DoubleValue
46.744

@<SCITEGIC>MOL_PROPERTY
VdW
SciTegic.value.DoubleValue
0.307

@<SCITEGIC>MOL_PROPERTY
VdW6
SciTegic.value.DoubleValue
-7.672

@<SCITEGIC>MOL_PROPERTY
VdW12
SciTegic.value.DoubleValue
7.980

@<SCITEGIC>MOL_PROPERTY
Bond
SciTegic.value.DoubleValue
0.217

@<SCITEGIC>MOL_PROPERTY
Angle
SciTegic.value.DoubleValue
1.470

@<SCITEGIC>MOL_PROPERTY
Pdih
SciTegic.value.DoubleValue
4.098

@<SCITEGIC>MOL_PROPERTY
Idih
SciTegic.value.DoubleValue
0.000

@<SCITEGIC>MOL_PROPERTY
Tether
SciTegic.value.DoubleValue
0.000

@<TRIPOS>MOLECULE
guest-2_confgen4.mol2 : confsearch ligand conformer 177
          23          22           1
SMALL
USER_CHARGES
 
@<TRIPOS>ATOM
       1    N1      17.483943   22.095567   22.530278 N.4        1 MOL1        -0.5940
       2    H1      16.760759   21.688444   21.928497 H          1 MOL1         0.3649
       3    H2      17.524410   23.096889   22.311624 H          1 MOL1         0.3649
       4    H3      17.152330   22.015113   23.496944 H          1 MOL1         0.3649
       5    C1      18.827211   21.422171   22.335171 C.3        1 MOL1         0.0207
       6    H4      19.552889   21.923019   22.981730 H          1 MOL1         0.0950
       7    H5      19.132017   21.571942   21.295865 H          1 MOL1         0.0950
       8    C2      18.800217   19.917066   22.655342 C.3        1 MOL1        -0.1415
       9    H6      18.477978   19.770793   23.694989 H          1 MOL1         0.0976
      10    H7      18.058506   19.420979   22.015138 H          1 MOL1         0.0976
      11    C3      20.186448   19.269042   22.444125 C.3        1 MOL1        -0.1375
      12    H8      20.926642   19.771604   23.082362 H          1 MOL1         0.0976
      13    H9      20.507579   19.422125   21.404297 H          1 MOL1         0.0976
      14    C4      20.170874   17.756728   22.762973 C.3        1 MOL1        -0.1375
      15    H10     19.849936   17.603502   23.802700 H          1 MOL1         0.0976
      16    H11     19.430822   17.254070   22.124874 H          1 MOL1         0.0976
      17    C5      21.557386   17.108930   22.551539 C.3        1 MOL1        -0.1350
      18    H12     22.300935   17.606820   23.189670 H          1 MOL1         0.0976
      19    H13     21.881848   17.257408   21.511995 H          1 MOL1         0.0976
      20    C6      21.537925   15.598916   22.870892 C.3        1 MOL1        -0.2365
      21    H14     22.530574   15.156885   22.715002 H          1 MOL1         0.0987
      22    H15     20.827384   15.067738   22.224200 H          1 MOL1         0.0987
      23    H16     21.249718   15.419878   23.914976 H          1 MOL1         0.0987
@<TRIPOS>BOND
    1     1     2    1
    2     1     3    1
    3     1     4    1
    4     1     5    1
    5     5     6    1
    6     5     7    1
    7     5     8    1
    8     8     9    1
    9     8    10    1
   10     8    11    1
   11    11    12    1
   12    11    13    1
   13    11    14    1
   14    14    15    1
   15    14    16    1
   16    14    17    1
   17    17    18    1
   18    17    19    1
   19    17    20    1
   20    20    21    1
   21    20    22    1
   22    20    23    1
@<TRIPOS>SUBSTRUCTURE
       1 MOL1            1 RESIDUE      1      MOL     
@<SCITEGIC>MOL_PROPERTY
VConf Rank
SciTegic.value.IntegerValue
177

@<SCITEGIC>MOL_PROPERTY
Conf_Id
SciTegic.value.IntegerValue
40

@<SCITEGIC>MOL_PROPERTY
Delta U+W
SciTegic.value.DoubleValue
0.000

@<SCITEGIC>MOL_PROPERTY
U+W
SciTegic.value.DoubleValue
-8.382

@<SCITEGIC>MOL_PROPERTY
Grad RMS
SciTegic.value.DoubleValue
0.000000

@<SCITEGIC>MOL_PROPERTY
U
SciTegic.value.DoubleValue
46.604

@<SCITEGIC>MOL_PROPERTY
W
SciTegic.value.DoubleValue
-54.986

@<SCITEGIC>MOL_PROPERTY
W(PB)
SciTegic.value.DoubleValue
-57.162

@<SCITEGIC>MOL_PROPERTY
W(SA)
SciTegic.value.DoubleValue
2.176

@<SCITEGIC>MOL_PROPERTY
Valence
SciTegic.value.DoubleValue
1.727

@<SCITEGIC>MOL_PROPERTY
Coulomb
SciTegic.value.DoubleValue
44.434

@<SCITEGIC>MOL_PROPERTY
VdW
SciTegic.value.DoubleValue
0.443

@<SCITEGIC>MOL_PROPERTY
VdW6
SciTegic.value.DoubleValue
-4.623

@<SCITEGIC>MOL_PROPERTY
VdW12
SciTegic.value.DoubleValue
5.066

@<SCITEGIC>MOL_PROPERTY
Bond
SciTegic.value.DoubleValue
0.112

@<SCITEGIC>MOL_PROPERTY
Angle
SciTegic.value.DoubleValue
0.386

@<SCITEGIC>MOL_PROPERTY
Pdih
SciTegic.value.DoubleValue
1.228

@<SCITEGIC>MOL_PROPERTY
Idih
SciTegic.value.DoubleValue
0.000

@<SCITEGIC>MOL_PROPERTY
Tether
SciTegic.value.DoubleValue
0.000

@<TRIPOS>MOLECULE
guest-2_confgen4.mol2 : confsearch ligand conformer 178
          23          22           1
SMALL
USER_CHARGES
 
@<TRIPOS>ATOM
       1    N1      19.582713   21.025410   25.564517 N.4        1 MOL1        -0.5940
       2    H1      19.221157   20.472887   26.348632 H          1 MOL1         0.3649
       3    H2      18.823094   21.638953   25.252465 H          1 MOL1         0.3649
       4    H3      20.319349   21.631279   25.941769 H          1 MOL1         0.3649
       5    C1      20.096505   20.146103   24.442635 C.3        1 MOL1         0.0207
       6    H4      20.918954   19.542802   24.836355 H          1 MOL1         0.0950
       7    H5      20.492095   20.798727   23.660261 H          1 MOL1         0.0950
       8    C2      19.012270   19.223115   23.854705 C.3        1 MOL1        -0.1415
       9    H6      18.591340   18.607681   24.660933 H          1 MOL1         0.0976
      10    H7      18.186450   19.828607   23.457987 H          1 MOL1         0.0976
      11    C3      19.554121   18.291598   22.744616 C.3        1 MOL1        -0.1375
      12    H8      18.755210   17.593975   22.461730 H          1 MOL1         0.0976
      13    H9      20.373675   17.680281   23.147099 H          1 MOL1         0.0976
      14    C4      20.041529   19.060197   21.489919 C.3        1 MOL1        -0.1375
      15    H10     19.215795   19.655099   21.075822 H          1 MOL1         0.0976
      16    H11     20.823343   19.775317   21.777802 H          1 MOL1         0.0976
      17    C5      20.616145   18.137906   20.387322 C.3        1 MOL1        -0.1350
      18    H12     21.449681   17.547751   20.793194 H          1 MOL1         0.0976
      19    H13     21.042792   18.764596   19.591643 H          1 MOL1         0.0976
      20    C6      19.564216   17.192405   19.763731 C.3        1 MOL1        -0.2365
      21    H14     19.197470   16.459135   20.492476 H          1 MOL1         0.0987
      22    H15     19.999763   16.633383   18.925435 H          1 MOL1         0.0987
      23    H16     18.704330   17.756466   19.379750 H          1 MOL1         0.0987
@<TRIPOS>BOND
    1     1     2    1
    2     1     3    1
    3     1     4    1
    4     1     5    1
    5     5     6    1
    6     5     7    1
    7     5     8    1
    8     8     9    1
    9     8    10    1
   10     8    11    1
   11    11    12    1
   12    11    13    1
   13    11    14    1
   14    14    15    1
   15    14    16    1
   16    14    17    1
   17    17    18    1
   18    17    19    1
   19    17    20    1
   20    20    21    1
   21    20    22    1
   22    20    23    1
@<TRIPOS>SUBSTRUCTURE
       1 MOL1            1 RESIDUE      1      MOL     
@<SCITEGIC>MOL_PROPERTY
VConf Rank
SciTegic.value.IntegerValue
178

@<SCITEGIC>MOL_PROPERTY
Conf_Id
SciTegic.value.IntegerValue
65

@<SCITEGIC>MOL_PROPERTY
Delta U+W
SciTegic.value.DoubleValue
1.004

@<SCITEGIC>MOL_PROPERTY
U+W
SciTegic.value.DoubleValue
-7.378

@<SCITEGIC>MOL_PROPERTY
Grad RMS
SciTegic.value.DoubleValue
0.000000

@<SCITEGIC>MOL_PROPERTY
U
SciTegic.value.DoubleValue
48.047

@<SCITEGIC>MOL_PROPERTY
W
SciTegic.value.DoubleValue
-55.425

@<SCITEGIC>MOL_PROPERTY
W(PB)
SciTegic.value.DoubleValue
-57.542

@<SCITEGIC>MOL_PROPERTY
W(SA)
SciTegic.value.DoubleValue
2.116

@<SCITEGIC>MOL_PROPERTY
Valence
SciTegic.value.DoubleValue
2.583

@<SCITEGIC>MOL_PROPERTY
Coulomb
SciTegic.value.DoubleValue
44.791

@<SCITEGIC>MOL_PROPERTY
VdW
SciTegic.value.DoubleValue
0.673

@<SCITEGIC>MOL_PROPERTY
VdW6
SciTegic.value.DoubleValue
-5.788

@<SCITEGIC>MOL_PROPERTY
VdW12
SciTegic.value.DoubleValue
6.462

@<SCITEGIC>MOL_PROPERTY
Bond
SciTegic.value.DoubleValue
0.177

@<SCITEGIC>MOL_PROPERTY
Angle
SciTegic.value.DoubleValue
0.787

@<SCITEGIC>MOL_PROPERTY
Pdih
SciTegic.value.DoubleValue
1.619

@<SCITEGIC>MOL_PROPERTY
Idih
SciTegic.value.DoubleValue
0.000

@<SCITEGIC>MOL_PROPERTY
Tether
SciTegic.value.DoubleValue
0.000

@<TRIPOS>MOLECULE
guest-2_confgen4.mol2 : confsearch ligand conformer 179
          23          22           1
SMALL
USER_CHARGES
 
@<TRIPOS>ATOM
       1    N1      22.172452   21.061971   20.929825 N.4        1 MOL1        -0.5940
       2    H1      21.758831   21.483447   20.091902 H          1 MOL1         0.3649
       3    H2      23.135536   20.804064   20.689033 H          1 MOL1         0.3649
       4    H3      22.230097   21.798388   21.640600 H          1 MOL1         0.3649
       5    C1      21.374643   19.868785   21.415195 C.3        1 MOL1         0.0207
       6    H4      21.888353   19.454729   22.286504 H          1 MOL1         0.0950
       7    H5      21.378478   19.115360   20.622891 H          1 MOL1         0.0950
       8    C2      19.922048   20.224336   21.784904 C.3        1 MOL1        -0.1415
       9    H6      19.917582   20.980215   22.581529 H          1 MOL1         0.0976
      10    H7      19.433737   20.682503   20.914513 H          1 MOL1         0.0976
      11    C3      19.097635   18.993572   22.231199 C.3        1 MOL1        -0.1375
      12    H8      19.095725   18.243283   21.428434 H          1 MOL1         0.0976
      13    H9      18.054809   19.309158   22.364924 H          1 MOL1         0.0976
      14    C4      19.619911   18.355066   23.543492 C.3        1 MOL1        -0.1375
      15    H10     20.670457   18.062126   23.416829 H          1 MOL1         0.0976
      16    H11     19.601982   19.100141   24.350810 H          1 MOL1         0.0976
      17    C5      18.820998   17.102850   23.979625 C.3        1 MOL1        -0.1350
      18    H12     19.324451   16.647961   24.844197 H          1 MOL1         0.0976
      19    H13     18.844339   16.349579   23.179727 H          1 MOL1         0.0976
      20    C6      17.355306   17.408947   24.363604 C.3        1 MOL1        -0.2365
      21    H14     16.773315   17.748632   23.498065 H          1 MOL1         0.0987
      22    H15     17.303734   18.184002   25.139258 H          1 MOL1         0.0987
      23    H16     16.865469   16.508536   24.756370 H          1 MOL1         0.0987
@<TRIPOS>BOND
    1     1     2    1
    2     1     3    1
    3     1     4    1
    4     1     5    1
    5     5     6    1
    6     5     7    1
    7     5     8    1
    8     8     9    1
    9     8    10    1
   10     8    11    1
   11    11    12    1
   12    11    13    1
   13    11    14    1
   14    14    15    1
   15    14    16    1
   16    14    17    1
   17    17    18    1
   18    17    19    1
   19    17    20    1
   20    20    21    1
   21    20    22    1
   22    20    23    1
@<TRIPOS>SUBSTRUCTURE
       1 MOL1            1 RESIDUE      1      MOL     
@<SCITEGIC>MOL_PROPERTY
VConf Rank
SciTegic.value.IntegerValue
179

@<SCITEGIC>MOL_PROPERTY
Conf_Id
SciTegic.value.IntegerValue
92

@<SCITEGIC>MOL_PROPERTY
Delta U+W
SciTegic.value.DoubleValue
0.973

@<SCITEGIC>MOL_PROPERTY
U+W
SciTegic.value.DoubleValue
-7.409

@<SCITEGIC>MOL_PROPERTY
Grad RMS
SciTegic.value.DoubleValue
0.000000

@<SCITEGIC>MOL_PROPERTY
U
SciTegic.value.DoubleValue
48.047

@<SCITEGIC>MOL_PROPERTY
W
SciTegic.value.DoubleValue
-55.456

@<SCITEGIC>MOL_PROPERTY
W(PB)
SciTegic.value.DoubleValue
-57.595

@<SCITEGIC>MOL_PROPERTY
W(SA)
SciTegic.value.DoubleValue
2.138

@<SCITEGIC>MOL_PROPERTY
Valence
SciTegic.value.DoubleValue
2.583

@<SCITEGIC>MOL_PROPERTY
Coulomb
SciTegic.value.DoubleValue
44.791

@<SCITEGIC>MOL_PROPERTY
VdW
SciTegic.value.DoubleValue
0.674

@<SCITEGIC>MOL_PROPERTY
VdW6
SciTegic.value.DoubleValue
-5.789

@<SCITEGIC>MOL_PROPERTY
VdW12
SciTegic.value.DoubleValue
6.462

@<SCITEGIC>MOL_PROPERTY
Bond
SciTegic.value.DoubleValue
0.177

@<SCITEGIC>MOL_PROPERTY
Angle
SciTegic.value.DoubleValue
0.787

@<SCITEGIC>MOL_PROPERTY
Pdih
SciTegic.value.DoubleValue
1.619

@<SCITEGIC>MOL_PROPERTY
Idih
SciTegic.value.DoubleValue
0.000

@<SCITEGIC>MOL_PROPERTY
Tether
SciTegic.value.DoubleValue
0.000

@<TRIPOS>MOLECULE
guest-2_confgen4.mol2 : confsearch ligand conformer 180
          23          22           1
SMALL
USER_CHARGES
 
@<TRIPOS>ATOM
       1    N1      22.151998   18.982546   20.012981 N.4        1 MOL1        -0.5940
       2    H1      23.148446   19.119076   20.214186 H          1 MOL1         0.3649
       3    H2      21.933197   19.554796   19.191088 H          1 MOL1         0.3649
       4    H3      22.035349   18.002103   19.737366 H          1 MOL1         0.3649
       5    C1      21.283145   19.343350   21.200707 C.3        1 MOL1         0.0207
       6    H4      21.478513   20.388157   21.456884 H          1 MOL1         0.0950
       7    H5      21.591199   18.718913   22.043248 H          1 MOL1         0.0950
       8    C2      19.779317   19.148918   20.929498 C.3        1 MOL1        -0.1415
       9    H6      19.492556   19.746731   20.054092 H          1 MOL1         0.0976
      10    H7      19.583296   18.099658   20.671384 H          1 MOL1         0.0976
      11    C3      18.896590   19.562532   22.130643 C.3        1 MOL1        -0.1375
      12    H8      17.841101   19.486220   21.834719 H          1 MOL1         0.0976
      13    H9      19.076078   20.619898   22.370251 H          1 MOL1         0.0976
      14    C4      19.136133   18.693831   23.388991 C.3        1 MOL1        -0.1375
      15    H10     18.988069   17.634454   23.137564 H          1 MOL1         0.0976
      16    H11     20.176259   18.798743   23.725428 H          1 MOL1         0.0976
      17    C5      18.188543   19.084749   24.544857 C.3        1 MOL1        -0.1350
      18    H12     17.143700   18.975402   24.221891 H          1 MOL1         0.0976
      19    H13     18.332045   20.144112   24.800074 H          1 MOL1         0.0976
      20    C6      18.429230   18.218723   25.799701 C.3        1 MOL1        -0.2365
      21    H14     18.260313   17.155628   25.584009 H          1 MOL1         0.0987
      22    H15     17.747213   18.510687   26.608808 H          1 MOL1         0.0987
      23    H16     19.457109   18.333801   26.167727 H          1 MOL1         0.0987
@<TRIPOS>BOND
    1     1     2    1
    2     1     3    1
    3     1     4    1
    4     1     5    1
    5     5     6    1
    6     5     7    1
    7     5     8    1
    8     8     9    1
    9     8    10    1
   10     8    11    1
   11    11    12    1
   12    11    13    1
   13    11    14    1
   14    14    15    1
   15    14    16    1
   16    14    17    1
   17    17    18    1
   18    17    19    1
   19    17    20    1
   20    20    21    1
   21    20    22    1
   22    20    23    1
@<TRIPOS>SUBSTRUCTURE
       1 MOL1            1 RESIDUE      1      MOL     
@<SCITEGIC>MOL_PROPERTY
VConf Rank
SciTegic.value.IntegerValue
180

@<SCITEGIC>MOL_PROPERTY
Conf_Id
SciTegic.value.IntegerValue
42

@<SCITEGIC>MOL_PROPERTY
Delta U+W
SciTegic.value.DoubleValue
0.365

@<SCITEGIC>MOL_PROPERTY
U+W
SciTegic.value.DoubleValue
-8.017

@<SCITEGIC>MOL_PROPERTY
Grad RMS
SciTegic.value.DoubleValue
0.000000

@<SCITEGIC>MOL_PROPERTY
U
SciTegic.value.DoubleValue
47.375

@<SCITEGIC>MOL_PROPERTY
W
SciTegic.value.DoubleValue
-55.392

@<SCITEGIC>MOL_PROPERTY
W(PB)
SciTegic.value.DoubleValue
-57.543

@<SCITEGIC>MOL_PROPERTY
W(SA)
SciTegic.value.DoubleValue
2.152

@<SCITEGIC>MOL_PROPERTY
Valence
SciTegic.value.DoubleValue
2.032

@<SCITEGIC>MOL_PROPERTY
Coulomb
SciTegic.value.DoubleValue
44.843

@<SCITEGIC>MOL_PROPERTY
VdW
SciTegic.value.DoubleValue
0.499

@<SCITEGIC>MOL_PROPERTY
VdW6
SciTegic.value.DoubleValue
-5.218

@<SCITEGIC>MOL_PROPERTY
VdW12
SciTegic.value.DoubleValue
5.717

@<SCITEGIC>MOL_PROPERTY
Bond
SciTegic.value.DoubleValue
0.135

@<SCITEGIC>MOL_PROPERTY
Angle
SciTegic.value.DoubleValue
0.514

@<SCITEGIC>MOL_PROPERTY
Pdih
SciTegic.value.DoubleValue
1.383

@<SCITEGIC>MOL_PROPERTY
Idih
SciTegic.value.DoubleValue
0.000

@<SCITEGIC>MOL_PROPERTY
Tether
SciTegic.value.DoubleValue
0.000

@<TRIPOS>MOLECULE
guest-2_confgen4.mol2 : confsearch ligand conformer 181
          23          22           1
SMALL
USER_CHARGES
 
@<TRIPOS>ATOM
       1    N1      18.539388   21.340638   24.371603 N.4        1 MOL1        -0.5940
       2    H1      17.592775   20.948180   24.348504 H          1 MOL1         0.3649
       3    H2      18.450267   22.318476   24.667980 H          1 MOL1         0.3649
       4    H3      19.052678   20.850077   25.110037 H          1 MOL1         0.3649
       5    C1      19.232314   21.220963   23.028058 C.3        1 MOL1         0.0207
       6    H4      20.222282   21.677043   23.113942 H          1 MOL1         0.0950
       7    H5      18.652207   21.800686   22.304892 H          1 MOL1         0.0950
       8    C2      19.370717   19.770913   22.524638 C.3        1 MOL1        -0.1415
       9    H6      18.377665   19.306149   22.465550 H          1 MOL1         0.0976
      10    H7      19.768624   19.807493   21.503144 H          1 MOL1         0.0976
      11    C3      20.308394   18.916221   23.411808 C.3        1 MOL1        -0.1375
      12    H8      19.968872   18.964618   24.454743 H          1 MOL1         0.0976
      13    H9      21.317543   19.350792   23.398647 H          1 MOL1         0.0976
      14    C4      20.386463   17.421680   23.005223 C.3        1 MOL1        -0.1375
      15    H10     21.040942   16.916623   23.729143 H          1 MOL1         0.0976
      16    H11     19.401539   16.947854   23.117645 H          1 MOL1         0.0976
      17    C5      20.948391   17.160276   21.583834 C.3        1 MOL1        -0.1350
      18    H12     21.547435   16.239122   21.608205 H          1 MOL1         0.0976
      19    H13     21.640770   17.962445   21.292743 H          1 MOL1         0.0976
      20    C6      19.847698   16.983698   20.511660 C.3        1 MOL1        -0.2365
      21    H14     19.195694   16.135071   20.756161 H          1 MOL1         0.0987
      22    H15     20.296545   16.785833   19.529671 H          1 MOL1         0.0987
      23    H16     19.218050   17.874970   20.415230 H          1 MOL1         0.0987
@<TRIPOS>BOND
    1     1     2    1
    2     1     3    1
    3     1     4    1
    4     1     5    1
    5     5     6    1
    6     5     7    1
    7     5     8    1
    8     8     9    1
    9     8    10    1
   10     8    11    1
   11    11    12    1
   12    11    13    1
   13    11    14    1
   14    14    15    1
   15    14    16    1
   16    14    17    1
   17    17    18    1
   18    17    19    1
   19    17    20    1
   20    20    21    1
   21    20    22    1
   22    20    23    1
@<TRIPOS>SUBSTRUCTURE
       1 MOL1            1 RESIDUE      1      MOL     
@<SCITEGIC>MOL_PROPERTY
VConf Rank
SciTegic.value.IntegerValue
181

@<SCITEGIC>MOL_PROPERTY
Conf_Id
SciTegic.value.IntegerValue
3

@<SCITEGIC>MOL_PROPERTY
Delta U+W
SciTegic.value.DoubleValue
3.283

@<SCITEGIC>MOL_PROPERTY
U+W
SciTegic.value.DoubleValue
-5.099

@<SCITEGIC>MOL_PROPERTY
Grad RMS
SciTegic.value.DoubleValue
0.000000

@<SCITEGIC>MOL_PROPERTY
U
SciTegic.value.DoubleValue
50.701

@<SCITEGIC>MOL_PROPERTY
W
SciTegic.value.DoubleValue
-55.800

@<SCITEGIC>MOL_PROPERTY
W(PB)
SciTegic.value.DoubleValue
-57.867

@<SCITEGIC>MOL_PROPERTY
W(SA)
SciTegic.value.DoubleValue
2.067

@<SCITEGIC>MOL_PROPERTY
Valence
SciTegic.value.DoubleValue
4.880

@<SCITEGIC>MOL_PROPERTY
Coulomb
SciTegic.value.DoubleValue
45.095

@<SCITEGIC>MOL_PROPERTY
VdW
SciTegic.value.DoubleValue
0.726

@<SCITEGIC>MOL_PROPERTY
VdW6
SciTegic.value.DoubleValue
-6.620

@<SCITEGIC>MOL_PROPERTY
VdW12
SciTegic.value.DoubleValue
7.346

@<SCITEGIC>MOL_PROPERTY
Bond
SciTegic.value.DoubleValue
0.222

@<SCITEGIC>MOL_PROPERTY
Angle
SciTegic.value.DoubleValue
1.260

@<SCITEGIC>MOL_PROPERTY
Pdih
SciTegic.value.DoubleValue
3.398

@<SCITEGIC>MOL_PROPERTY
Idih
SciTegic.value.DoubleValue
0.000

@<SCITEGIC>MOL_PROPERTY
Tether
SciTegic.value.DoubleValue
0.000

@<TRIPOS>MOLECULE
guest-2_confgen4.mol2 : confsearch ligand conformer 182
          23          22           1
SMALL
USER_CHARGES
 
@<TRIPOS>ATOM
       1    N1      22.130123   17.327953   22.591530 N.4        1 MOL1        -0.5940
       2    H1      23.016334   17.832658   22.489270 H          1 MOL1         0.3649
       3    H2      22.362532   16.336140   22.710392 H          1 MOL1         0.3649
       4    H3      21.700653   17.643319   23.466572 H          1 MOL1         0.3649
       5    C1      21.213487   17.553664   21.405307 C.3        1 MOL1         0.0207
       6    H4      20.304977   16.966727   21.562167 H          1 MOL1         0.0950
       7    H5      21.717887   17.164861   20.516522 H          1 MOL1         0.0950
       8    C2      20.846836   19.034584   21.177889 C.3        1 MOL1        -0.1415
       9    H6      21.763657   19.602306   20.970681 H          1 MOL1         0.0976
      10    H7      20.229986   19.109756   20.272514 H          1 MOL1         0.0976
      11    C3      20.095687   19.692127   22.363241 C.3        1 MOL1        -0.1375
      12    H8      19.922892   20.746788   22.112828 H          1 MOL1         0.0976
      13    H9      20.733443   19.690879   23.257116 H          1 MOL1         0.0976
      14    C4      18.742535   19.007271   22.683211 C.3        1 MOL1        -0.1375
      15    H10     18.095125   19.033999   21.795903 H          1 MOL1         0.0976
      16    H11     18.911651   17.946496   22.910174 H          1 MOL1         0.0976
      17    C5      17.999273   19.642422   23.883458 C.3        1 MOL1        -0.1350
      18    H12     18.638159   19.608638   24.776995 H          1 MOL1         0.0976
      19    H13     17.116389   19.029972   24.114292 H          1 MOL1         0.0976
      20    C6      17.540972   21.096081   23.626202 C.3        1 MOL1        -0.2365
      21    H14     16.927393   21.162017   22.718358 H          1 MOL1         0.0987
      22    H15     18.395039   21.775341   23.514743 H          1 MOL1         0.0987
      23    H16     16.936930   21.462370   24.466381 H          1 MOL1         0.0987
@<TRIPOS>BOND
    1     1     2    1
    2     1     3    1
    3     1     4    1
    4     1     5    1
    5     5     6    1
    6     5     7    1
    7     5     8    1
    8     8     9    1
    9     8    10    1
   10     8    11    1
   11    11    12    1
   12    11    13    1
   13    11    14    1
   14    14    15    1
   15    14    16    1
   16    14    17    1
   17    17    18    1
   18    17    19    1
   19    17    20    1
   20    20    21    1
   21    20    22    1
   22    20    23    1
@<TRIPOS>SUBSTRUCTURE
       1 MOL1            1 RESIDUE      1      MOL     
@<SCITEGIC>MOL_PROPERTY
VConf Rank
SciTegic.value.IntegerValue
182

@<SCITEGIC>MOL_PROPERTY
Conf_Id
SciTegic.value.IntegerValue
83

@<SCITEGIC>MOL_PROPERTY
Delta U+W
SciTegic.value.DoubleValue
1.229

@<SCITEGIC>MOL_PROPERTY
U+W
SciTegic.value.DoubleValue
-7.154

@<SCITEGIC>MOL_PROPERTY
Grad RMS
SciTegic.value.DoubleValue
0.000000

@<SCITEGIC>MOL_PROPERTY
U
SciTegic.value.DoubleValue
48.727

@<SCITEGIC>MOL_PROPERTY
W
SciTegic.value.DoubleValue
-55.880

@<SCITEGIC>MOL_PROPERTY
W(PB)
SciTegic.value.DoubleValue
-57.960

@<SCITEGIC>MOL_PROPERTY
W(SA)
SciTegic.value.DoubleValue
2.080

@<SCITEGIC>MOL_PROPERTY
Valence
SciTegic.value.DoubleValue
2.671

@<SCITEGIC>MOL_PROPERTY
Coulomb
SciTegic.value.DoubleValue
45.371

@<SCITEGIC>MOL_PROPERTY
VdW
SciTegic.value.DoubleValue
0.684

@<SCITEGIC>MOL_PROPERTY
VdW6
SciTegic.value.DoubleValue
-6.511

@<SCITEGIC>MOL_PROPERTY
VdW12
SciTegic.value.DoubleValue
7.195

@<SCITEGIC>MOL_PROPERTY
Bond
SciTegic.value.DoubleValue
0.203

@<SCITEGIC>MOL_PROPERTY
Angle
SciTegic.value.DoubleValue
0.915

@<SCITEGIC>MOL_PROPERTY
Pdih
SciTegic.value.DoubleValue
1.554

@<SCITEGIC>MOL_PROPERTY
Idih
SciTegic.value.DoubleValue
0.000

@<SCITEGIC>MOL_PROPERTY
Tether
SciTegic.value.DoubleValue
0.000

@<TRIPOS>MOLECULE
guest-2_confgen4.mol2 : confsearch ligand conformer 183
          23          22           1
SMALL
USER_CHARGES
 
@<TRIPOS>ATOM
       1    N1      22.546309   18.431642   22.294633 N.4        1 MOL1        -0.5940
       2    H1      23.143833   19.264309   22.308265 H          1 MOL1         0.3649
       3    H2      21.936334   18.509378   21.475189 H          1 MOL1         0.3649
       4    H3      23.160250   17.625236   22.137720 H          1 MOL1         0.3649
       5    C1      21.747435   18.290858   23.575365 C.3        1 MOL1         0.0207
       6    H4      22.457227   18.178340   24.399417 H          1 MOL1         0.0950
       7    H5      21.158727   17.372453   23.508693 H          1 MOL1         0.0950
       8    C2      20.818172   19.488322   23.861418 C.3        1 MOL1        -0.1415
       9    H6      20.323720   19.327351   24.828613 H          1 MOL1         0.0976
      10    H7      21.427649   20.394383   23.977158 H          1 MOL1         0.0976
      11    C3      19.742565   19.731797   22.772639 C.3        1 MOL1        -0.1375
      12    H8      20.226005   19.969083   21.815702 H          1 MOL1         0.0976
      13    H9      19.169460   20.624412   23.054886 H          1 MOL1         0.0976
      14    C4      18.777351   18.532901   22.589772 C.3        1 MOL1        -0.1375
      15    H10     19.352128   17.633938   22.331216 H          1 MOL1         0.0976
      16    H11     18.273758   18.314523   23.541547 H          1 MOL1         0.0976
      17    C5      17.716829   18.758860   21.484928 C.3        1 MOL1        -0.1350
      18    H12     17.154446   17.825615   21.341254 H          1 MOL1         0.0976
      19    H13     18.215069   18.967188   20.527806 H          1 MOL1         0.0976
      20    C6      16.719268   19.893970   21.810105 C.3        1 MOL1        -0.2365
      21    H14     16.231697   19.725804   22.779127 H          1 MOL1         0.0987
      22    H15     15.934377   19.946069   21.044490 H          1 MOL1         0.0987
      23    H16     17.215331   20.871883   21.839264 H          1 MOL1         0.0987
@<TRIPOS>BOND
    1     1     2    1
    2     1     3    1
    3     1     4    1
    4     1     5    1
    5     5     6    1
    6     5     7    1
    7     5     8    1
    8     8     9    1
    9     8    10    1
   10     8    11    1
   11    11    12    1
   12    11    13    1
   13    11    14    1
   14    14    15    1
   15    14    16    1
   16    14    17    1
   17    17    18    1
   18    17    19    1
   19    17    20    1
   20    20    21    1
   21    20    22    1
   22    20    23    1
@<TRIPOS>SUBSTRUCTURE
       1 MOL1            1 RESIDUE      1      MOL     
@<SCITEGIC>MOL_PROPERTY
VConf Rank
SciTegic.value.IntegerValue
183

@<SCITEGIC>MOL_PROPERTY
Conf_Id
SciTegic.value.IntegerValue
50

@<SCITEGIC>MOL_PROPERTY
Delta U+W
SciTegic.value.DoubleValue
1.252

@<SCITEGIC>MOL_PROPERTY
U+W
SciTegic.value.DoubleValue
-7.130

@<SCITEGIC>MOL_PROPERTY
Grad RMS
SciTegic.value.DoubleValue
0.000000

@<SCITEGIC>MOL_PROPERTY
U
SciTegic.value.DoubleValue
48.727

@<SCITEGIC>MOL_PROPERTY
W
SciTegic.value.DoubleValue
-55.857

@<SCITEGIC>MOL_PROPERTY
W(PB)
SciTegic.value.DoubleValue
-57.937

@<SCITEGIC>MOL_PROPERTY
W(SA)
SciTegic.value.DoubleValue
2.080

@<SCITEGIC>MOL_PROPERTY
Valence
SciTegic.value.DoubleValue
2.671

@<SCITEGIC>MOL_PROPERTY
Coulomb
SciTegic.value.DoubleValue
45.371

@<SCITEGIC>MOL_PROPERTY
VdW
SciTegic.value.DoubleValue
0.684

@<SCITEGIC>MOL_PROPERTY
VdW6
SciTegic.value.DoubleValue
-6.511

@<SCITEGIC>MOL_PROPERTY
VdW12
SciTegic.value.DoubleValue
7.196

@<SCITEGIC>MOL_PROPERTY
Bond
SciTegic.value.DoubleValue
0.203

@<SCITEGIC>MOL_PROPERTY
Angle
SciTegic.value.DoubleValue
0.915

@<SCITEGIC>MOL_PROPERTY
Pdih
SciTegic.value.DoubleValue
1.554

@<SCITEGIC>MOL_PROPERTY
Idih
SciTegic.value.DoubleValue
0.000

@<SCITEGIC>MOL_PROPERTY
Tether
SciTegic.value.DoubleValue
0.000

@<TRIPOS>MOLECULE
guest-2_confgen4.mol2 : confsearch ligand conformer 184
          23          22           1
SMALL
USER_CHARGES
 
@<TRIPOS>ATOM
       1    N1      17.171673   18.539725   20.904541 N.4        1 MOL1        -0.5940
       2    H1      17.017251   19.484643   21.268982 H          1 MOL1         0.3649
       3    H2      16.253829   18.084966   20.852742 H          1 MOL1         0.3649
       4    H3      17.511279   18.637551   19.942396 H          1 MOL1         0.3649
       5    C1      18.140603   17.755008   21.767463 C.3        1 MOL1         0.0207
       6    H4      18.223435   16.750663   21.343196 H          1 MOL1         0.0950
       7    H5      17.709280   17.667225   22.768296 H          1 MOL1         0.0950
       8    C2      19.543019   18.386840   21.861144 C.3        1 MOL1        -0.1415
       9    H6      20.194026   17.696294   22.408866 H          1 MOL1         0.0976
      10    H7      19.969694   18.477606   20.853435 H          1 MOL1         0.0976
      11    C3      19.528146   19.773631   22.553434 C.3        1 MOL1        -0.1375
      12    H8      19.016940   19.711193   23.524065 H          1 MOL1         0.0976
      13    H9      18.933445   20.463354   21.939754 H          1 MOL1         0.0976
      14    C4      20.941857   20.385398   22.735827 C.3        1 MOL1        -0.1375
      15    H10     21.614411   20.036422   21.940164 H          1 MOL1         0.0976
      16    H11     20.864119   21.473167   22.600892 H          1 MOL1         0.0976
      17    C5      21.582922   20.133424   24.124622 C.3        1 MOL1        -0.1350
      18    H12     20.951606   20.576480   24.907511 H          1 MOL1         0.0976
      19    H13     22.541566   20.669065   24.168277 H          1 MOL1         0.0976
      20    C6      21.832849   18.644594   24.450123 C.3        1 MOL1        -0.2365
      21    H14     22.413015   18.157248   23.655933 H          1 MOL1         0.0987
      22    H15     20.888964   18.100703   24.578717 H          1 MOL1         0.0987
      23    H16     22.397311   18.546447   25.386413 H          1 MOL1         0.0987
@<TRIPOS>BOND
    1     1     2    1
    2     1     3    1
    3     1     4    1
    4     1     5    1
    5     5     6    1
    6     5     7    1
    7     5     8    1
    8     8     9    1
    9     8    10    1
   10     8    11    1
   11    11    12    1
   12    11    13    1
   13    11    14    1
   14    14    15    1
   15    14    16    1
   16    14    17    1
   17    17    18    1
   18    17    19    1
   19    17    20    1
   20    20    21    1
   21    20    22    1
   22    20    23    1
@<TRIPOS>SUBSTRUCTURE
       1 MOL1            1 RESIDUE      1      MOL     
@<SCITEGIC>MOL_PROPERTY
VConf Rank
SciTegic.value.IntegerValue
184

@<SCITEGIC>MOL_PROPERTY
Conf_Id
SciTegic.value.IntegerValue
55

@<SCITEGIC>MOL_PROPERTY
Delta U+W
SciTegic.value.DoubleValue
3.232

@<SCITEGIC>MOL_PROPERTY
U+W
SciTegic.value.DoubleValue
-5.150

@<SCITEGIC>MOL_PROPERTY
Grad RMS
SciTegic.value.DoubleValue
0.000000

@<SCITEGIC>MOL_PROPERTY
U
SciTegic.value.DoubleValue
50.625

@<SCITEGIC>MOL_PROPERTY
W
SciTegic.value.DoubleValue
-55.776

@<SCITEGIC>MOL_PROPERTY
W(PB)
SciTegic.value.DoubleValue
-57.839

@<SCITEGIC>MOL_PROPERTY
W(SA)
SciTegic.value.DoubleValue
2.064

@<SCITEGIC>MOL_PROPERTY
Valence
SciTegic.value.DoubleValue
4.837

@<SCITEGIC>MOL_PROPERTY
Coulomb
SciTegic.value.DoubleValue
45.097

@<SCITEGIC>MOL_PROPERTY
VdW
SciTegic.value.DoubleValue
0.692

@<SCITEGIC>MOL_PROPERTY
VdW6
SciTegic.value.DoubleValue
-6.655

@<SCITEGIC>MOL_PROPERTY
VdW12
SciTegic.value.DoubleValue
7.347

@<SCITEGIC>MOL_PROPERTY
Bond
SciTegic.value.DoubleValue
0.223

@<SCITEGIC>MOL_PROPERTY
Angle
SciTegic.value.DoubleValue
1.167

@<SCITEGIC>MOL_PROPERTY
Pdih
SciTegic.value.DoubleValue
3.447

@<SCITEGIC>MOL_PROPERTY
Idih
SciTegic.value.DoubleValue
0.000

@<SCITEGIC>MOL_PROPERTY
Tether
SciTegic.value.DoubleValue
0.000

@<TRIPOS>MOLECULE
guest-2_confgen4.mol2 : confsearch ligand conformer 185
          23          22           1
SMALL
USER_CHARGES
 
@<TRIPOS>ATOM
       1    N1      20.751952   16.534822   24.282719 N.4        1 MOL1        -0.5940
       2    H1      21.010455   16.609177   25.271899 H          1 MOL1         0.3649
       3    H2      21.357252   15.816944   23.870091 H          1 MOL1         0.3649
       4    H3      19.793634   16.172623   24.248166 H          1 MOL1         0.3649
       5    C1      20.881422   17.862110   23.563558 C.3        1 MOL1         0.0207
       6    H4      20.626983   17.699142   22.514728 H          1 MOL1         0.0950
       7    H5      21.928694   18.171773   23.615820 H          1 MOL1         0.0950
       8    C2      19.987637   18.963645   24.166512 C.3        1 MOL1        -0.1415
       9    H6      18.936151   18.647055   24.163384 H          1 MOL1         0.0976
      10    H7      20.269580   19.091815   25.220125 H          1 MOL1         0.0976
      11    C3      20.135499   20.328375   23.447405 C.3        1 MOL1        -0.1375
      12    H8      21.182760   20.488507   23.155503 H          1 MOL1         0.0976
      13    H9      19.904414   21.122396   24.171027 H          1 MOL1         0.0976
      14    C4      19.204433   20.527165   22.223040 C.3        1 MOL1        -0.1375
      15    H10     18.156178   20.468514   22.547097 H          1 MOL1         0.0976
      16    H11     19.349482   21.549095   21.846128 H          1 MOL1         0.0976
      17    C5      19.439857   19.529015   21.065986 C.3        1 MOL1        -0.1350
      18    H12     19.148602   18.518085   21.379203 H          1 MOL1         0.0976
      19    H13     20.508428   19.496844   20.811428 H          1 MOL1         0.0976
      20    C6      18.625963   19.910150   19.810999 C.3        1 MOL1        -0.2365
      21    H14     18.914101   20.901977   19.438883 H          1 MOL1         0.0987
      22    H15     17.549963   19.925759   20.028325 H          1 MOL1         0.0987
      23    H16     18.796197   19.185798   19.003927 H          1 MOL1         0.0987
@<TRIPOS>BOND
    1     1     2    1
    2     1     3    1
    3     1     4    1
    4     1     5    1
    5     5     6    1
    6     5     7    1
    7     5     8    1
    8     8     9    1
    9     8    10    1
   10     8    11    1
   11    11    12    1
   12    11    13    1
   13    11    14    1
   14    14    15    1
   15    14    16    1
   16    14    17    1
   17    17    18    1
   18    17    19    1
   19    17    20    1
   20    20    21    1
   21    20    22    1
   22    20    23    1
@<TRIPOS>SUBSTRUCTURE
       1 MOL1            1 RESIDUE      1      MOL     
@<SCITEGIC>MOL_PROPERTY
VConf Rank
SciTegic.value.IntegerValue
185

@<SCITEGIC>MOL_PROPERTY
Conf_Id
SciTegic.value.IntegerValue
93

@<SCITEGIC>MOL_PROPERTY
Delta U+W
SciTegic.value.DoubleValue
2.589

@<SCITEGIC>MOL_PROPERTY
U+W
SciTegic.value.DoubleValue
-5.793

@<SCITEGIC>MOL_PROPERTY
Grad RMS
SciTegic.value.DoubleValue
0.000000

@<SCITEGIC>MOL_PROPERTY
U
SciTegic.value.DoubleValue
50.122

@<SCITEGIC>MOL_PROPERTY
W
SciTegic.value.DoubleValue
-55.915

@<SCITEGIC>MOL_PROPERTY
W(PB)
SciTegic.value.DoubleValue
-58.031

@<SCITEGIC>MOL_PROPERTY
W(SA)
SciTegic.value.DoubleValue
2.115

@<SCITEGIC>MOL_PROPERTY
Valence
SciTegic.value.DoubleValue
4.132

@<SCITEGIC>MOL_PROPERTY
Coulomb
SciTegic.value.DoubleValue
45.536

@<SCITEGIC>MOL_PROPERTY
VdW
SciTegic.value.DoubleValue
0.454

@<SCITEGIC>MOL_PROPERTY
VdW6
SciTegic.value.DoubleValue
-6.262

@<SCITEGIC>MOL_PROPERTY
VdW12
SciTegic.value.DoubleValue
6.715

@<SCITEGIC>MOL_PROPERTY
Bond
SciTegic.value.DoubleValue
0.182

@<SCITEGIC>MOL_PROPERTY
Angle
SciTegic.value.DoubleValue
1.157

@<SCITEGIC>MOL_PROPERTY
Pdih
SciTegic.value.DoubleValue
2.794

@<SCITEGIC>MOL_PROPERTY
Idih
SciTegic.value.DoubleValue
0.000

@<SCITEGIC>MOL_PROPERTY
Tether
SciTegic.value.DoubleValue
0.000

@<TRIPOS>MOLECULE
guest-2_confgen4.mol2 : confsearch ligand conformer 186
          23          22           1
SMALL
USER_CHARGES
 
@<TRIPOS>ATOM
       1    N1      17.433986   17.644875   20.887782 N.4        1 MOL1        -0.5940
       2    H1      17.325070   18.522300   20.369111 H          1 MOL1         0.3649
       3    H2      16.522493   17.430730   21.306497 H          1 MOL1         0.3649
       4    H3      17.625192   16.909724   20.199436 H          1 MOL1         0.3649
       5    C1      18.526399   17.737681   21.933567 C.3        1 MOL1         0.0207
       6    H4      18.566263   16.782151   22.463447 H          1 MOL1         0.0950
       7    H5      18.238913   18.511009   22.648168 H          1 MOL1         0.0950
       8    C2      19.910569   18.051781   21.332565 C.3        1 MOL1        -0.1415
       9    H6      20.158985   17.256950   20.616638 H          1 MOL1         0.0976
      10    H7      19.874416   18.986609   20.757541 H          1 MOL1         0.0976
      11    C3      21.033904   18.124261   22.397613 C.3        1 MOL1        -0.1375
      12    H8      21.981780   17.851538   21.913205 H          1 MOL1         0.0976
      13    H9      20.867197   17.363492   23.172882 H          1 MOL1         0.0976
      14    C4      21.227425   19.517579   23.050827 C.3        1 MOL1        -0.1375
      15    H10     22.090237   19.459970   23.728822 H          1 MOL1         0.0976
      16    H11     21.496814   20.250097   22.277433 H          1 MOL1         0.0976
      17    C5      20.003275   20.033878   23.841647 C.3        1 MOL1        -0.1350
      18    H12     19.655563   19.259814   24.539929 H          1 MOL1         0.0976
      19    H13     19.175815   20.247042   23.152600 H          1 MOL1         0.0976
      20    C6      20.334639   21.320527   24.627403 C.3        1 MOL1        -0.2365
      21    H14     19.452551   21.679055   25.173670 H          1 MOL1         0.0987
      22    H15     20.661538   22.122021   23.952130 H          1 MOL1         0.0987
      23    H16     21.133672   21.142516   25.358890 H          1 MOL1         0.0987
@<TRIPOS>BOND
    1     1     2    1
    2     1     3    1
    3     1     4    1
    4     1     5    1
    5     5     6    1
    6     5     7    1
    7     5     8    1
    8     8     9    1
    9     8    10    1
   10     8    11    1
   11    11    12    1
   12    11    13    1
   13    11    14    1
   14    14    15    1
   15    14    16    1
   16    14    17    1
   17    17    18    1
   18    17    19    1
   19    17    20    1
   20    20    21    1
   21    20    22    1
   22    20    23    1
@<TRIPOS>SUBSTRUCTURE
       1 MOL1            1 RESIDUE      1      MOL     
@<SCITEGIC>MOL_PROPERTY
VConf Rank
SciTegic.value.IntegerValue
186

@<SCITEGIC>MOL_PROPERTY
Conf_Id
SciTegic.value.IntegerValue
70

@<SCITEGIC>MOL_PROPERTY
Delta U+W
SciTegic.value.DoubleValue
2.599

@<SCITEGIC>MOL_PROPERTY
U+W
SciTegic.value.DoubleValue
-5.783

@<SCITEGIC>MOL_PROPERTY
Grad RMS
SciTegic.value.DoubleValue
0.000000

@<SCITEGIC>MOL_PROPERTY
U
SciTegic.value.DoubleValue
50.122

@<SCITEGIC>MOL_PROPERTY
W
SciTegic.value.DoubleValue
-55.906

@<SCITEGIC>MOL_PROPERTY
W(PB)
SciTegic.value.DoubleValue
-58.010

@<SCITEGIC>MOL_PROPERTY
W(SA)
SciTegic.value.DoubleValue
2.105

@<SCITEGIC>MOL_PROPERTY
Valence
SciTegic.value.DoubleValue
4.132

@<SCITEGIC>MOL_PROPERTY
Coulomb
SciTegic.value.DoubleValue
45.536

@<SCITEGIC>MOL_PROPERTY
VdW
SciTegic.value.DoubleValue
0.454

@<SCITEGIC>MOL_PROPERTY
VdW6
SciTegic.value.DoubleValue
-6.262

@<SCITEGIC>MOL_PROPERTY
VdW12
SciTegic.value.DoubleValue
6.715

@<SCITEGIC>MOL_PROPERTY
Bond
SciTegic.value.DoubleValue
0.182

@<SCITEGIC>MOL_PROPERTY
Angle
SciTegic.value.DoubleValue
1.157

@<SCITEGIC>MOL_PROPERTY
Pdih
SciTegic.value.DoubleValue
2.794

@<SCITEGIC>MOL_PROPERTY
Idih
SciTegic.value.DoubleValue
0.000

@<SCITEGIC>MOL_PROPERTY
Tether
SciTegic.value.DoubleValue
0.000

@<TRIPOS>MOLECULE
guest-2_confgen4.mol2 : confsearch ligand conformer 187
          23          22           1
SMALL
USER_CHARGES
 
@<TRIPOS>ATOM
       1    N1      17.776468   17.028044   22.262661 N.4        1 MOL1        -0.5940
       2    H1      16.771411   17.219265   22.324312 H          1 MOL1         0.3649
       3    H2      17.888507   16.008702   22.275046 H          1 MOL1         0.3649
       4    H3      18.091101   17.354683   21.344087 H          1 MOL1         0.3649
       5    C1      18.545868   17.693536   23.386663 C.3        1 MOL1         0.0207
       6    H4      19.600134   17.423940   23.282802 H          1 MOL1         0.0950
       7    H5      18.180950   17.279808   24.330675 H          1 MOL1         0.0950
       8    C2      18.401358   19.228577   23.410119 C.3        1 MOL1        -0.1415
       9    H6      17.343385   19.487400   23.549464 H          1 MOL1         0.0976
      10    H7      18.923253   19.620017   24.292624 H          1 MOL1         0.0976
      11    C3      18.934147   19.931431   22.133742 C.3        1 MOL1        -0.1375
      12    H8      18.827301   21.017950   22.257288 H          1 MOL1         0.0976
      13    H9      18.295133   19.666017   21.280835 H          1 MOL1         0.0976
      14    C4      20.407364   19.605653   21.775551 C.3        1 MOL1        -0.1375
      15    H10     20.514073   18.535031   21.555843 H          1 MOL1         0.0976
      16    H11     20.661876   20.131981   20.845207 H          1 MOL1         0.0976
      17    C5      21.415582   20.014387   22.875245 C.3        1 MOL1        -0.1350
      18    H12     21.223530   19.446494   23.795328 H          1 MOL1         0.0976
      19    H13     21.283823   21.076926   23.122960 H          1 MOL1         0.0976
      20    C6      22.873192   19.769232   22.430661 C.3        1 MOL1        -0.2365
      21    H14     23.574483   20.061934   23.222829 H          1 MOL1         0.0987
      22    H15     23.116223   20.353244   21.533411 H          1 MOL1         0.0987
      23    H16     23.043652   18.708505   22.204813 H          1 MOL1         0.0987
@<TRIPOS>BOND
    1     1     2    1
    2     1     3    1
    3     1     4    1
    4     1     5    1
    5     5     6    1
    6     5     7    1
    7     5     8    1
    8     8     9    1
    9     8    10    1
   10     8    11    1
   11    11    12    1
   12    11    13    1
   13    11    14    1
   14    14    15    1
   15    14    16    1
   16    14    17    1
   17    17    18    1
   18    17    19    1
   19    17    20    1
   20    20    21    1
   21    20    22    1
   22    20    23    1
@<TRIPOS>SUBSTRUCTURE
       1 MOL1            1 RESIDUE      1      MOL     
@<SCITEGIC>MOL_PROPERTY
VConf Rank
SciTegic.value.IntegerValue
187

@<SCITEGIC>MOL_PROPERTY
Conf_Id
SciTegic.value.IntegerValue
72

@<SCITEGIC>MOL_PROPERTY
Delta U+W
SciTegic.value.DoubleValue
1.051

@<SCITEGIC>MOL_PROPERTY
U+W
SciTegic.value.DoubleValue
-7.331

@<SCITEGIC>MOL_PROPERTY
Grad RMS
SciTegic.value.DoubleValue
0.000000

@<SCITEGIC>MOL_PROPERTY
U
SciTegic.value.DoubleValue
48.590

@<SCITEGIC>MOL_PROPERTY
W
SciTegic.value.DoubleValue
-55.922

@<SCITEGIC>MOL_PROPERTY
W(PB)
SciTegic.value.DoubleValue
-58.012

@<SCITEGIC>MOL_PROPERTY
W(SA)
SciTegic.value.DoubleValue
2.090

@<SCITEGIC>MOL_PROPERTY
Valence
SciTegic.value.DoubleValue
2.601

@<SCITEGIC>MOL_PROPERTY
Coulomb
SciTegic.value.DoubleValue
45.520

@<SCITEGIC>MOL_PROPERTY
VdW
SciTegic.value.DoubleValue
0.469

@<SCITEGIC>MOL_PROPERTY
VdW6
SciTegic.value.DoubleValue
-6.867

@<SCITEGIC>MOL_PROPERTY
VdW12
SciTegic.value.DoubleValue
7.336

@<SCITEGIC>MOL_PROPERTY
Bond
SciTegic.value.DoubleValue
0.205

@<SCITEGIC>MOL_PROPERTY
Angle
SciTegic.value.DoubleValue
0.962

@<SCITEGIC>MOL_PROPERTY
Pdih
SciTegic.value.DoubleValue
1.434

@<SCITEGIC>MOL_PROPERTY
Idih
SciTegic.value.DoubleValue
0.000

@<SCITEGIC>MOL_PROPERTY
Tether
SciTegic.value.DoubleValue
0.000

@<TRIPOS>MOLECULE
guest-2_confgen4.mol2 : confsearch ligand conformer 188
          23          22           1
SMALL
USER_CHARGES
 
@<TRIPOS>ATOM
       1    N1      19.557108   16.871296   24.936023 N.4        1 MOL1        -0.5940
       2    H1      20.298367   16.443755   25.501445 H          1 MOL1         0.3649
       3    H2      18.823594   16.164181   24.823198 H          1 MOL1         0.3649
       4    H3      19.158385   17.633114   25.493979 H          1 MOL1         0.3649
       5    C1      20.079476   17.361341   23.600873 C.3        1 MOL1         0.0207
       6    H4      20.513817   16.507581   23.073812 H          1 MOL1         0.0950
       7    H5      20.874358   18.085780   23.796534 H          1 MOL1         0.0950
       8    C2      18.989658   18.009630   22.726894 C.3        1 MOL1        -0.1415
       9    H6      18.179169   17.286083   22.567787 H          1 MOL1         0.0976
      10    H7      18.543935   18.858897   23.260287 H          1 MOL1         0.0976
      11    C3      19.525025   18.471573   21.348833 C.3        1 MOL1        -0.1375
      12    H8      18.698212   18.902325   20.768504 H          1 MOL1         0.0976
      13    H9      19.855432   17.589586   20.782934 H          1 MOL1         0.0976
      14    C4      20.698281   19.486546   21.412562 C.3        1 MOL1        -0.1375
      15    H10     21.580778   18.997355   21.846374 H          1 MOL1         0.0976
      16    H11     20.985088   19.755496   20.386611 H          1 MOL1         0.0976
      17    C5      20.404370   20.785213   22.205846 C.3        1 MOL1        -0.1350
      18    H12     21.304854   21.415006   22.192452 H          1 MOL1         0.0976
      19    H13     20.217471   20.550896   23.262389 H          1 MOL1         0.0976
      20    C6      19.220651   21.597957   21.634206 C.3        1 MOL1        -0.2365
      21    H14     19.379544   21.833457   20.573908 H          1 MOL1         0.0987
      22    H15     19.107954   22.546114   22.175631 H          1 MOL1         0.0987
      23    H16     18.274637   21.050160   21.726590 H          1 MOL1         0.0987
@<TRIPOS>BOND
    1     1     2    1
    2     1     3    1
    3     1     4    1
    4     1     5    1
    5     5     6    1
    6     5     7    1
    7     5     8    1
    8     8     9    1
    9     8    10    1
   10     8    11    1
   11    11    12    1
   12    11    13    1
   13    11    14    1
   14    14    15    1
   15    14    16    1
   16    14    17    1
   17    17    18    1
   18    17    19    1
   19    17    20    1
   20    20    21    1
   21    20    22    1
   22    20    23    1
@<TRIPOS>SUBSTRUCTURE
       1 MOL1            1 RESIDUE      1      MOL     
@<SCITEGIC>MOL_PROPERTY
VConf Rank
SciTegic.value.IntegerValue
188

@<SCITEGIC>MOL_PROPERTY
Conf_Id
SciTegic.value.IntegerValue
26

@<SCITEGIC>MOL_PROPERTY
Delta U+W
SciTegic.value.DoubleValue
1.076

@<SCITEGIC>MOL_PROPERTY
U+W
SciTegic.value.DoubleValue
-7.306

@<SCITEGIC>MOL_PROPERTY
Grad RMS
SciTegic.value.DoubleValue
0.000000

@<SCITEGIC>MOL_PROPERTY
U
SciTegic.value.DoubleValue
48.641

@<SCITEGIC>MOL_PROPERTY
W
SciTegic.value.DoubleValue
-55.947

@<SCITEGIC>MOL_PROPERTY
W(PB)
SciTegic.value.DoubleValue
-58.031

@<SCITEGIC>MOL_PROPERTY
W(SA)
SciTegic.value.DoubleValue
2.084

@<SCITEGIC>MOL_PROPERTY
Valence
SciTegic.value.DoubleValue
2.922

@<SCITEGIC>MOL_PROPERTY
Coulomb
SciTegic.value.DoubleValue
45.269

@<SCITEGIC>MOL_PROPERTY
VdW
SciTegic.value.DoubleValue
0.449

@<SCITEGIC>MOL_PROPERTY
VdW6
SciTegic.value.DoubleValue
-7.045

@<SCITEGIC>MOL_PROPERTY
VdW12
SciTegic.value.DoubleValue
7.494

@<SCITEGIC>MOL_PROPERTY
Bond
SciTegic.value.DoubleValue
0.220

@<SCITEGIC>MOL_PROPERTY
Angle
SciTegic.value.DoubleValue
1.205

@<SCITEGIC>MOL_PROPERTY
Pdih
SciTegic.value.DoubleValue
1.497

@<SCITEGIC>MOL_PROPERTY
Idih
SciTegic.value.DoubleValue
0.000

@<SCITEGIC>MOL_PROPERTY
Tether
SciTegic.value.DoubleValue
0.000

@<TRIPOS>MOLECULE
guest-2_confgen4.mol2 : confsearch ligand conformer 189
          23          22           1
SMALL
USER_CHARGES
 
@<TRIPOS>ATOM
       1    N1      17.816832   17.136571   24.159595 N.4        1 MOL1        -0.5940
       2    H1      16.861740   17.122209   23.787607 H          1 MOL1         0.3649
       3    H2      17.749031   16.930694   25.162081 H          1 MOL1         0.3649
       4    H3      18.320358   16.354946   23.728101 H          1 MOL1         0.3649
       5    C1      18.503271   18.462603   23.902547 C.3        1 MOL1         0.0207
       6    H4      19.499668   18.417349   24.349846 H          1 MOL1         0.0950
       7    H5      17.932202   19.243297   24.412201 H          1 MOL1         0.0950
       8    C2      18.621319   18.801429   22.404855 C.3        1 MOL1        -0.1415
       9    H6      19.183232   18.011850   21.889831 H          1 MOL1         0.0976
      10    H7      17.618422   18.807537   21.957766 H          1 MOL1         0.0976
      11    C3      19.288847   20.176395   22.153981 C.3        1 MOL1        -0.1375
      12    H8      18.647506   20.963809   22.573472 H          1 MOL1         0.0976
      13    H9      19.322468   20.367276   21.073062 H          1 MOL1         0.0976
      14    C4      20.713612   20.327768   22.752220 C.3        1 MOL1        -0.1375
      15    H10     21.094318   21.327588   22.502044 H          1 MOL1         0.0976
      16    H11     20.653696   20.301331   23.848584 H          1 MOL1         0.0976
      17    C5      21.742647   19.268971   22.280778 C.3        1 MOL1        -0.1350
      18    H12     21.436373   18.267702   22.612105 H          1 MOL1         0.0976
      19    H13     22.702814   19.468929   22.776547 H          1 MOL1         0.0976
      20    C6      21.963630   19.267654   20.751175 C.3        1 MOL1        -0.2365
      21    H14     21.056287   18.965046   20.213852 H          1 MOL1         0.0987
      22    H15     22.760016   18.563327   20.478163 H          1 MOL1         0.0987
      23    H16     22.258687   20.262984   20.394525 H          1 MOL1         0.0987
@<TRIPOS>BOND
    1     1     2    1
    2     1     3    1
    3     1     4    1
    4     1     5    1
    5     5     6    1
    6     5     7    1
    7     5     8    1
    8     8     9    1
    9     8    10    1
   10     8    11    1
   11    11    12    1
   12    11    13    1
   13    11    14    1
   14    14    15    1
   15    14    16    1
   16    14    17    1
   17    17    18    1
   18    17    19    1
   19    17    20    1
   20    20    21    1
   21    20    22    1
   22    20    23    1
@<TRIPOS>SUBSTRUCTURE
       1 MOL1            1 RESIDUE      1      MOL     
@<SCITEGIC>MOL_PROPERTY
VConf Rank
SciTegic.value.IntegerValue
189

@<SCITEGIC>MOL_PROPERTY
Conf_Id
SciTegic.value.IntegerValue
90

@<SCITEGIC>MOL_PROPERTY
Delta U+W
SciTegic.value.DoubleValue
1.131

@<SCITEGIC>MOL_PROPERTY
U+W
SciTegic.value.DoubleValue
-7.251

@<SCITEGIC>MOL_PROPERTY
Grad RMS
SciTegic.value.DoubleValue
0.000000

@<SCITEGIC>MOL_PROPERTY
U
SciTegic.value.DoubleValue
48.641

@<SCITEGIC>MOL_PROPERTY
W
SciTegic.value.DoubleValue
-55.892

@<SCITEGIC>MOL_PROPERTY
W(PB)
SciTegic.value.DoubleValue
-57.962

@<SCITEGIC>MOL_PROPERTY
W(SA)
SciTegic.value.DoubleValue
2.070

@<SCITEGIC>MOL_PROPERTY
Valence
SciTegic.value.DoubleValue
2.922

@<SCITEGIC>MOL_PROPERTY
Coulomb
SciTegic.value.DoubleValue
45.269

@<SCITEGIC>MOL_PROPERTY
VdW
SciTegic.value.DoubleValue
0.450

@<SCITEGIC>MOL_PROPERTY
VdW6
SciTegic.value.DoubleValue
-7.045

@<SCITEGIC>MOL_PROPERTY
VdW12
SciTegic.value.DoubleValue
7.495

@<SCITEGIC>MOL_PROPERTY
Bond
SciTegic.value.DoubleValue
0.220

@<SCITEGIC>MOL_PROPERTY
Angle
SciTegic.value.DoubleValue
1.205

@<SCITEGIC>MOL_PROPERTY
Pdih
SciTegic.value.DoubleValue
1.497

@<SCITEGIC>MOL_PROPERTY
Idih
SciTegic.value.DoubleValue
0.000

@<SCITEGIC>MOL_PROPERTY
Tether
SciTegic.value.DoubleValue
0.000

@<TRIPOS>MOLECULE
guest-2_confgen4.mol2 : confsearch ligand conformer 190
          23          22           1
SMALL
USER_CHARGES
 
@<TRIPOS>ATOM
       1    N1      18.552857   17.839949   20.536444 N.4        1 MOL1        -0.5940
       2    H1      17.614502   17.470479   20.349811 H          1 MOL1         0.3649
       3    H2      18.907111   17.356801   21.367525 H          1 MOL1         0.3649
       4    H3      19.145880   17.562469   19.747837 H          1 MOL1         0.3649
       5    C1      18.538336   19.343782   20.727939 C.3        1 MOL1         0.0207
       6    H4      17.867133   19.573058   21.559586 H          1 MOL1         0.0950
       7    H5      18.120197   19.790821   19.821939 H          1 MOL1         0.0950
       8    C2      19.931334   19.947300   21.000355 C.3        1 MOL1        -0.1415
       9    H6      20.582888   19.751793   20.138355 H          1 MOL1         0.0976
      10    H7      19.834708   21.038991   21.069051 H          1 MOL1         0.0976
      11    C3      20.608884   19.412181   22.286883 C.3        1 MOL1        -0.1375
      12    H8      21.595243   19.885893   22.385892 H          1 MOL1         0.0976
      13    H9      20.795653   18.336006   22.181674 H          1 MOL1         0.0976
      14    C4      19.781871   19.688426   23.567982 C.3        1 MOL1        -0.1375
      15    H10     19.533019   20.757803   23.610083 H          1 MOL1         0.0976
      16    H11     18.825944   19.149593   23.525621 H          1 MOL1         0.0976
      17    C5      20.523029   19.304530   24.871324 C.3        1 MOL1        -0.1350
      18    H12     19.917955   19.628444   25.729694 H          1 MOL1         0.0976
      19    H13     21.470442   19.857539   24.937426 H          1 MOL1         0.0976
      20    C6      20.795803   17.788387   24.997969 C.3        1 MOL1        -0.2365
      21    H14     19.866558   17.210934   24.908588 H          1 MOL1         0.0987
      22    H15     21.240421   17.558731   25.974959 H          1 MOL1         0.0987
      23    H16     21.494476   17.438493   24.228008 H          1 MOL1         0.0987
@<TRIPOS>BOND
    1     1     2    1
    2     1     3    1
    3     1     4    1
    4     1     5    1
    5     5     6    1
    6     5     7    1
    7     5     8    1
    8     8     9    1
    9     8    10    1
   10     8    11    1
   11    11    12    1
   12    11    13    1
   13    11    14    1
   14    14    15    1
   15    14    16    1
   16    14    17    1
   17    17    18    1
   18    17    19    1
   19    17    20    1
   20    20    21    1
   21    20    22    1
   22    20    23    1
@<TRIPOS>SUBSTRUCTURE
       1 MOL1            1 RESIDUE      1      MOL     
@<SCITEGIC>MOL_PROPERTY
VConf Rank
SciTegic.value.IntegerValue
190

@<SCITEGIC>MOL_PROPERTY
Conf_Id
SciTegic.value.IntegerValue
85

@<SCITEGIC>MOL_PROPERTY
Delta U+W
SciTegic.value.DoubleValue
1.193

@<SCITEGIC>MOL_PROPERTY
U+W
SciTegic.value.DoubleValue
-7.189

@<SCITEGIC>MOL_PROPERTY
Grad RMS
SciTegic.value.DoubleValue
0.000000

@<SCITEGIC>MOL_PROPERTY
U
SciTegic.value.DoubleValue
48.775

@<SCITEGIC>MOL_PROPERTY
W
SciTegic.value.DoubleValue
-55.965

@<SCITEGIC>MOL_PROPERTY
W(PB)
SciTegic.value.DoubleValue
-58.038

@<SCITEGIC>MOL_PROPERTY
W(SA)
SciTegic.value.DoubleValue
2.073

@<SCITEGIC>MOL_PROPERTY
Valence
SciTegic.value.DoubleValue
2.602

@<SCITEGIC>MOL_PROPERTY
Coulomb
SciTegic.value.DoubleValue
45.581

@<SCITEGIC>MOL_PROPERTY
VdW
SciTegic.value.DoubleValue
0.592

@<SCITEGIC>MOL_PROPERTY
VdW6
SciTegic.value.DoubleValue
-6.616

@<SCITEGIC>MOL_PROPERTY
VdW12
SciTegic.value.DoubleValue
7.208

@<SCITEGIC>MOL_PROPERTY
Bond
SciTegic.value.DoubleValue
0.196

@<SCITEGIC>MOL_PROPERTY
Angle
SciTegic.value.DoubleValue
0.832

@<SCITEGIC>MOL_PROPERTY
Pdih
SciTegic.value.DoubleValue
1.574

@<SCITEGIC>MOL_PROPERTY
Idih
SciTegic.value.DoubleValue
0.000

@<SCITEGIC>MOL_PROPERTY
Tether
SciTegic.value.DoubleValue
0.000

@<TRIPOS>MOLECULE
guest-2_confgen4.mol2 : confsearch ligand conformer 191
          23          22           1
SMALL
USER_CHARGES
 
@<TRIPOS>ATOM
       1    N1      18.483359   19.758036   23.987229 N.4        1 MOL1        -0.5940
       2    H1      19.138155   20.120163   23.286675 H          1 MOL1         0.3649
       3    H2      18.674983   20.246455   24.868722 H          1 MOL1         0.3649
       4    H3      17.539638   20.030668   23.693838 H          1 MOL1         0.3649
       5    C1      18.611560   18.254475   24.137325 C.3        1 MOL1         0.0207
       6    H4      17.885703   17.946163   24.894680 H          1 MOL1         0.0950
       7    H5      19.612060   18.023909   24.512781 H          1 MOL1         0.0950
       8    C2      18.346023   17.469377   22.836621 C.3        1 MOL1        -0.1415
       9    H6      18.069766   16.444040   23.116271 H          1 MOL1         0.0976
      10    H7      17.468329   17.885674   22.324544 H          1 MOL1         0.0976
      11    C3      19.547067   17.385737   21.856515 C.3        1 MOL1        -0.1375
      12    H8      19.236872   16.757462   21.010020 H          1 MOL1         0.0976
      13    H9      20.380836   16.848993   22.330019 H          1 MOL1         0.0976
      14    C4      20.037922   18.743438   21.291740 C.3        1 MOL1        -0.1375
      15    H10     20.352781   18.594353   20.249447 H          1 MOL1         0.0976
      16    H11     19.206435   19.459367   21.249323 H          1 MOL1         0.0976
      17    C5      21.240191   19.329211   22.071817 C.3        1 MOL1        -0.1350
      18    H12     22.107621   18.664802   21.952396 H          1 MOL1         0.0976
      19    H13     21.033589   19.365124   23.148062 H          1 MOL1         0.0976
      20    C6      21.611101   20.741540   21.572241 C.3        1 MOL1        -0.2365
      21    H14     21.875168   20.725420   20.506700 H          1 MOL1         0.0987
      22    H15     22.473898   21.134174   22.125955 H          1 MOL1         0.0987
      23    H16     20.777748   21.443256   21.705971 H          1 MOL1         0.0987
@<TRIPOS>BOND
    1     1     2    1
    2     1     3    1
    3     1     4    1
    4     1     5    1
    5     5     6    1
    6     5     7    1
    7     5     8    1
    8     8     9    1
    9     8    10    1
   10     8    11    1
   11    11    12    1
   12    11    13    1
   13    11    14    1
   14    14    15    1
   15    14    16    1
   16    14    17    1
   17    17    18    1
   18    17    19    1
   19    17    20    1
   20    20    21    1
   21    20    22    1
   22    20    23    1
@<TRIPOS>SUBSTRUCTURE
       1 MOL1            1 RESIDUE      1      MOL     
@<SCITEGIC>MOL_PROPERTY
VConf Rank
SciTegic.value.IntegerValue
191

@<SCITEGIC>MOL_PROPERTY
Conf_Id
SciTegic.value.IntegerValue
82

@<SCITEGIC>MOL_PROPERTY
Delta U+W
SciTegic.value.DoubleValue
5.994

@<SCITEGIC>MOL_PROPERTY
U+W
SciTegic.value.DoubleValue
-2.388

@<SCITEGIC>MOL_PROPERTY
Grad RMS
SciTegic.value.DoubleValue
0.000000

@<SCITEGIC>MOL_PROPERTY
U
SciTegic.value.DoubleValue
52.836

@<SCITEGIC>MOL_PROPERTY
W
SciTegic.value.DoubleValue
-55.224

@<SCITEGIC>MOL_PROPERTY
W(PB)
SciTegic.value.DoubleValue
-57.261

@<SCITEGIC>MOL_PROPERTY
W(SA)
SciTegic.value.DoubleValue
2.037

@<SCITEGIC>MOL_PROPERTY
Valence
SciTegic.value.DoubleValue
5.785

@<SCITEGIC>MOL_PROPERTY
Coulomb
SciTegic.value.DoubleValue
46.744

@<SCITEGIC>MOL_PROPERTY
VdW
SciTegic.value.DoubleValue
0.307

@<SCITEGIC>MOL_PROPERTY
VdW6
SciTegic.value.DoubleValue
-7.672

@<SCITEGIC>MOL_PROPERTY
VdW12
SciTegic.value.DoubleValue
7.979

@<SCITEGIC>MOL_PROPERTY
Bond
SciTegic.value.DoubleValue
0.217

@<SCITEGIC>MOL_PROPERTY
Angle
SciTegic.value.DoubleValue
1.470

@<SCITEGIC>MOL_PROPERTY
Pdih
SciTegic.value.DoubleValue
4.098

@<SCITEGIC>MOL_PROPERTY
Idih
SciTegic.value.DoubleValue
0.000

@<SCITEGIC>MOL_PROPERTY
Tether
SciTegic.value.DoubleValue
0.000

@<TRIPOS>MOLECULE
guest-2_confgen4.mol2 : confsearch ligand conformer 192
          23          22           1
SMALL
USER_CHARGES
 
@<TRIPOS>ATOM
       1    N1      18.221272   19.002033   21.296937 N.4        1 MOL1        -0.5940
       2    H1      18.189921   18.296609   20.553695 H          1 MOL1         0.3649
       3    H2      17.266571   19.360042   21.409536 H          1 MOL1         0.3649
       4    H3      18.473158   18.520062   22.165804 H          1 MOL1         0.3649
       5    C1      19.204314   20.111278   20.976221 C.3        1 MOL1         0.0207
       6    H4      19.150845   20.865827   21.765477 H          1 MOL1         0.0950
       7    H5      18.871431   20.572857   20.042602 H          1 MOL1         0.0950
       8    C2      20.660073   19.630197   20.808754 C.3        1 MOL1        -0.1415
       9    H6      20.679636   18.706369   20.215432 H          1 MOL1         0.0976
      10    H7      21.192703   20.380763   20.209758 H          1 MOL1         0.0976
      11    C3      21.448790   19.432982   22.131307 C.3        1 MOL1        -0.1375
      12    H8      21.540881   20.392087   22.659613 H          1 MOL1         0.0976
      13    H9      22.474992   19.146822   21.862003 H          1 MOL1         0.0976
      14    C4      20.883393   18.349798   23.085405 C.3        1 MOL1        -0.1375
      15    H10     20.363592   17.572000   22.510459 H          1 MOL1         0.0976
      16    H11     21.726069   17.841798   23.574865 H          1 MOL1         0.0976
      17    C5      19.970349   18.929786   24.193135 C.3        1 MOL1        -0.1350
      18    H12     19.190100   19.571414   23.766743 H          1 MOL1         0.0976
      19    H13     20.566781   19.576285   24.852258 H          1 MOL1         0.0976
      20    C6      19.315367   17.814324   25.034901 C.3        1 MOL1        -0.2365
      21    H14     18.683472   17.165755   24.414552 H          1 MOL1         0.0987
      22    H15     18.684422   18.244102   25.823811 H          1 MOL1         0.0987
      23    H16     20.076308   17.187397   25.517913 H          1 MOL1         0.0987
@<TRIPOS>BOND
    1     1     2    1
    2     1     3    1
    3     1     4    1
    4     1     5    1
    5     5     6    1
    6     5     7    1
    7     5     8    1
    8     8     9    1
    9     8    10    1
   10     8    11    1
   11    11    12    1
   12    11    13    1
   13    11    14    1
   14    14    15    1
   15    14    16    1
   16    14    17    1
   17    17    18    1
   18    17    19    1
   19    17    20    1
   20    20    21    1
   21    20    22    1
   22    20    23    1
@<TRIPOS>SUBSTRUCTURE
       1 MOL1            1 RESIDUE      1      MOL     
@<SCITEGIC>MOL_PROPERTY
VConf Rank
SciTegic.value.IntegerValue
192

@<SCITEGIC>MOL_PROPERTY
Conf_Id
SciTegic.value.IntegerValue
5

@<SCITEGIC>MOL_PROPERTY
Delta U+W
SciTegic.value.DoubleValue
6.087

@<SCITEGIC>MOL_PROPERTY
U+W
SciTegic.value.DoubleValue
-2.295

@<SCITEGIC>MOL_PROPERTY
Grad RMS
SciTegic.value.DoubleValue
0.000000

@<SCITEGIC>MOL_PROPERTY
U
SciTegic.value.DoubleValue
52.836

@<SCITEGIC>MOL_PROPERTY
W
SciTegic.value.DoubleValue
-55.131

@<SCITEGIC>MOL_PROPERTY
W(PB)
SciTegic.value.DoubleValue
-57.202

@<SCITEGIC>MOL_PROPERTY
W(SA)
SciTegic.value.DoubleValue
2.071

@<SCITEGIC>MOL_PROPERTY
Valence
SciTegic.value.DoubleValue
5.785

@<SCITEGIC>MOL_PROPERTY
Coulomb
SciTegic.value.DoubleValue
46.744

@<SCITEGIC>MOL_PROPERTY
VdW
SciTegic.value.DoubleValue
0.307

@<SCITEGIC>MOL_PROPERTY
VdW6
SciTegic.value.DoubleValue
-7.672

@<SCITEGIC>MOL_PROPERTY
VdW12
SciTegic.value.DoubleValue
7.980

@<SCITEGIC>MOL_PROPERTY
Bond
SciTegic.value.DoubleValue
0.217

@<SCITEGIC>MOL_PROPERTY
Angle
SciTegic.value.DoubleValue
1.470

@<SCITEGIC>MOL_PROPERTY
Pdih
SciTegic.value.DoubleValue
4.098

@<SCITEGIC>MOL_PROPERTY
Idih
SciTegic.value.DoubleValue
0.000

@<SCITEGIC>MOL_PROPERTY
Tether
SciTegic.value.DoubleValue
0.000

@<TRIPOS>MOLECULE
guest-2_confgen4.mol2 : confsearch ligand conformer 193
          23          22           1
SMALL
USER_CHARGES
 
@<TRIPOS>ATOM
       1    N1      19.982760   22.845244   22.626504 N.4        1 MOL1        -0.5940
       2    H1      19.607289   22.974782   23.571557 H          1 MOL1         0.3649
       3    H2      19.676286   23.651318   22.071155 H          1 MOL1         0.3649
       4    H3      21.003805   22.903276   22.697090 H          1 MOL1         0.3649
       5    C1      19.531694   21.535125   22.013294 C.3        1 MOL1         0.0207
       6    H4      19.941913   21.477178   21.001436 H          1 MOL1         0.0950
       7    H5      18.440842   21.554069   21.941331 H          1 MOL1         0.0950
       8    C2      19.976092   20.304545   22.823702 C.3        1 MOL1        -0.1415
       9    H6      21.071125   20.298497   22.907175 H          1 MOL1         0.0976
      10    H7      19.575432   20.375181   23.843790 H          1 MOL1         0.0976
      11    C3      19.497054   18.991356   22.166251 C.3        1 MOL1        -0.1375
      12    H8      19.895621   18.926999   21.144094 H          1 MOL1         0.0976
      13    H9      18.401530   19.003592   22.079764 H          1 MOL1         0.0976
      14    C4      19.938069   17.748406   22.972218 C.3        1 MOL1        -0.1375
      15    H10     21.033462   17.735949   23.058662 H          1 MOL1         0.0976
      16    H11     19.539610   17.812593   23.994287 H          1 MOL1         0.0976
      17    C5      19.458735   16.435254   22.314472 C.3        1 MOL1        -0.1350
      18    H12     19.856799   16.365167   21.292412 H          1 MOL1         0.0976
      19    H13     18.363085   16.441801   22.227968 H          1 MOL1         0.0976
      20    C6      19.900968   15.196386   23.122025 C.3        1 MOL1        -0.2365
      21    H14     19.551573   14.274257   22.639689 H          1 MOL1         0.0987
      22    H15     19.489601   15.220936   24.139573 H          1 MOL1         0.0987
      23    H16     20.994986   15.143717   23.196732 H          1 MOL1         0.0987
@<TRIPOS>BOND
    1     1     2    1
    2     1     3    1
    3     1     4    1
    4     1     5    1
    5     5     6    1
    6     5     7    1
    7     5     8    1
    8     8     9    1
    9     8    10    1
   10     8    11    1
   11    11    12    1
   12    11    13    1
   13    11    14    1
   14    14    15    1
   15    14    16    1
   16    14    17    1
   17    17    18    1
   18    17    19    1
   19    17    20    1
   20    20    21    1
   21    20    22    1
   22    20    23    1
@<TRIPOS>SUBSTRUCTURE
       1 MOL1            1 RESIDUE      1      MOL     
@<SCITEGIC>MOL_PROPERTY
VConf Rank
SciTegic.value.IntegerValue
193

@<SCITEGIC>MOL_PROPERTY
Conf_Id
SciTegic.value.IntegerValue
40

@<SCITEGIC>MOL_PROPERTY
Delta U+W
SciTegic.value.DoubleValue
0.000

@<SCITEGIC>MOL_PROPERTY
U+W
SciTegic.value.DoubleValue
-8.382

@<SCITEGIC>MOL_PROPERTY
Grad RMS
SciTegic.value.DoubleValue
0.000000

@<SCITEGIC>MOL_PROPERTY
U
SciTegic.value.DoubleValue
46.604

@<SCITEGIC>MOL_PROPERTY
W
SciTegic.value.DoubleValue
-54.986

@<SCITEGIC>MOL_PROPERTY
W(PB)
SciTegic.value.DoubleValue
-57.162

@<SCITEGIC>MOL_PROPERTY
W(SA)
SciTegic.value.DoubleValue
2.176

@<SCITEGIC>MOL_PROPERTY
Valence
SciTegic.value.DoubleValue
1.727

@<SCITEGIC>MOL_PROPERTY
Coulomb
SciTegic.value.DoubleValue
44.434

@<SCITEGIC>MOL_PROPERTY
VdW
SciTegic.value.DoubleValue
0.443

@<SCITEGIC>MOL_PROPERTY
VdW6
SciTegic.value.DoubleValue
-4.623

@<SCITEGIC>MOL_PROPERTY
VdW12
SciTegic.value.DoubleValue
5.066

@<SCITEGIC>MOL_PROPERTY
Bond
SciTegic.value.DoubleValue
0.112

@<SCITEGIC>MOL_PROPERTY
Angle
SciTegic.value.DoubleValue
0.386

@<SCITEGIC>MOL_PROPERTY
Pdih
SciTegic.value.DoubleValue
1.228

@<SCITEGIC>MOL_PROPERTY
Idih
SciTegic.value.DoubleValue
0.000

@<SCITEGIC>MOL_PROPERTY
Tether
SciTegic.value.DoubleValue
0.000

@<TRIPOS>MOLECULE
guest-2_confgen4.mol2 : confsearch ligand conformer 194
          23          22           1
SMALL
USER_CHARGES
 
@<TRIPOS>ATOM
       1    N1      22.782728   20.516487   21.415585 N.4        1 MOL1        -0.5940
       2    H1      23.390379   19.806047   20.995020 H          1 MOL1         0.3649
       3    H2      23.179047   20.747820   22.332236 H          1 MOL1         0.3649
       4    H3      22.862850   21.358332   20.835148 H          1 MOL1         0.3649
       5    C1      21.348006   20.041374   21.523395 C.3        1 MOL1         0.0207
       6    H4      20.981905   19.841320   20.512771 H          1 MOL1         0.0950
       7    H5      20.756679   20.856180   21.948768 H          1 MOL1         0.0950
       8    C2      21.194746   18.776768   22.389659 C.3        1 MOL1        -0.1415
       9    H6      21.830911   17.982141   21.977577 H          1 MOL1         0.0976
      10    H7      21.561205   18.977489   23.405239 H          1 MOL1         0.0976
      11    C3      19.735550   18.266725   22.454652 C.3        1 MOL1        -0.1375
      12    H8      19.730451   17.308480   22.990097 H          1 MOL1         0.0976
      13    H9      19.374975   18.057599   21.437980 H          1 MOL1         0.0976
      14    C4      18.774855   19.259838   23.157053 C.3        1 MOL1        -0.1375
      15    H10     19.124512   19.452398   24.180714 H          1 MOL1         0.0976
      16    H11     18.799225   20.225718   22.635528 H          1 MOL1         0.0976
      17    C5      17.306170   18.772093   23.196994 C.3        1 MOL1        -0.1350
      18    H12     16.947544   18.587839   22.174626 H          1 MOL1         0.0976
      19    H13     16.678624   19.578554   23.601568 H          1 MOL1         0.0976
      20    C6      17.100235   17.504355   24.057123 C.3        1 MOL1        -0.2365
      21    H14     17.607471   16.634293   23.622427 H          1 MOL1         0.0987
      22    H15     16.032652   17.259812   24.130687 H          1 MOL1         0.0987
      23    H16     17.481277   17.652012   25.075953 H          1 MOL1         0.0987
@<TRIPOS>BOND
    1     1     2    1
    2     1     3    1
    3     1     4    1
    4     1     5    1
    5     5     6    1
    6     5     7    1
    7     5     8    1
    8     8     9    1
    9     8    10    1
   10     8    11    1
   11    11    12    1
   12    11    13    1
   13    11    14    1
   14    14    15    1
   15    14    16    1
   16    14    17    1
   17    17    18    1
   18    17    19    1
   19    17    20    1
   20    20    21    1
   21    20    22    1
   22    20    23    1
@<TRIPOS>SUBSTRUCTURE
       1 MOL1            1 RESIDUE      1      MOL     
@<SCITEGIC>MOL_PROPERTY
VConf Rank
SciTegic.value.IntegerValue
194

@<SCITEGIC>MOL_PROPERTY
Conf_Id
SciTegic.value.IntegerValue
65

@<SCITEGIC>MOL_PROPERTY
Delta U+W
SciTegic.value.DoubleValue
1.004

@<SCITEGIC>MOL_PROPERTY
U+W
SciTegic.value.DoubleValue
-7.378

@<SCITEGIC>MOL_PROPERTY
Grad RMS
SciTegic.value.DoubleValue
0.000000

@<SCITEGIC>MOL_PROPERTY
U
SciTegic.value.DoubleValue
48.047

@<SCITEGIC>MOL_PROPERTY
W
SciTegic.value.DoubleValue
-55.425

@<SCITEGIC>MOL_PROPERTY
W(PB)
SciTegic.value.DoubleValue
-57.542

@<SCITEGIC>MOL_PROPERTY
W(SA)
SciTegic.value.DoubleValue
2.116

@<SCITEGIC>MOL_PROPERTY
Valence
SciTegic.value.DoubleValue
2.583

@<SCITEGIC>MOL_PROPERTY
Coulomb
SciTegic.value.DoubleValue
44.791

@<SCITEGIC>MOL_PROPERTY
VdW
SciTegic.value.DoubleValue
0.673

@<SCITEGIC>MOL_PROPERTY
VdW6
SciTegic.value.DoubleValue
-5.788

@<SCITEGIC>MOL_PROPERTY
VdW12
SciTegic.value.DoubleValue
6.462

@<SCITEGIC>MOL_PROPERTY
Bond
SciTegic.value.DoubleValue
0.177

@<SCITEGIC>MOL_PROPERTY
Angle
SciTegic.value.DoubleValue
0.787

@<SCITEGIC>MOL_PROPERTY
Pdih
SciTegic.value.DoubleValue
1.619

@<SCITEGIC>MOL_PROPERTY
Idih
SciTegic.value.DoubleValue
0.000

@<SCITEGIC>MOL_PROPERTY
Tether
SciTegic.value.DoubleValue
0.000

@<TRIPOS>MOLECULE
guest-2_confgen4.mol2 : confsearch ligand conformer 195
          23          22           1
SMALL
USER_CHARGES
 
@<TRIPOS>ATOM
       1    N1      23.195803   19.881662   22.081703 N.4        1 MOL1        -0.5940
       2    H1      23.734680   19.051161   21.815775 H          1 MOL1         0.3649
       3    H2      23.792627   20.437288   22.703883 H          1 MOL1         0.3649
       4    H3      23.055678   20.435409   21.230491 H          1 MOL1         0.3649
       5    C1      21.881575   19.515712   22.740992 C.3        1 MOL1         0.0207
       6    H4      21.378954   20.444165   23.023599 H          1 MOL1         0.0950
       7    H5      22.105824   18.954380   23.652051 H          1 MOL1         0.0950
       8    C2      20.962097   18.679743   21.830581 C.3        1 MOL1        -0.1415
       9    H6      20.735552   19.243567   20.915832 H          1 MOL1         0.0976
      10    H7      21.497808   17.773983   21.516640 H          1 MOL1         0.0976
      11    C3      19.643663   18.265801   22.526281 C.3        1 MOL1        -0.1375
      12    H8      19.873375   17.693522   23.435731 H          1 MOL1         0.0976
      13    H9      19.102244   17.583950   21.857770 H          1 MOL1         0.0976
      14    C4      18.738578   19.472875   22.881767 C.3        1 MOL1        -0.1375
      15    H10     19.289383   20.166636   23.530470 H          1 MOL1         0.0976
      16    H11     18.492217   20.032758   21.969047 H          1 MOL1         0.0976
      17    C5      17.432150   19.070232   23.608158 C.3        1 MOL1        -0.1350
      18    H12     16.910476   19.983882   23.925919 H          1 MOL1         0.0976
      19    H13     17.672757   18.518736   24.527810 H          1 MOL1         0.0976
      20    C6      16.473532   18.230407   22.733438 C.3        1 MOL1        -0.2365
      21    H14     16.900915   17.249181   22.493033 H          1 MOL1         0.0987
      22    H15     16.243588   18.746188   21.792106 H          1 MOL1         0.0987
      23    H16     15.526412   18.056415   23.260349 H          1 MOL1         0.0987
@<TRIPOS>BOND
    1     1     2    1
    2     1     3    1
    3     1     4    1
    4     1     5    1
    5     5     6    1
    6     5     7    1
    7     5     8    1
    8     8     9    1
    9     8    10    1
   10     8    11    1
   11    11    12    1
   12    11    13    1
   13    11    14    1
   14    14    15    1
   15    14    16    1
   16    14    17    1
   17    17    18    1
   18    17    19    1
   19    17    20    1
   20    20    21    1
   21    20    22    1
   22    20    23    1
@<TRIPOS>SUBSTRUCTURE
       1 MOL1            1 RESIDUE      1      MOL     
@<SCITEGIC>MOL_PROPERTY
VConf Rank
SciTegic.value.IntegerValue
195

@<SCITEGIC>MOL_PROPERTY
Conf_Id
SciTegic.value.IntegerValue
92

@<SCITEGIC>MOL_PROPERTY
Delta U+W
SciTegic.value.DoubleValue
0.973

@<SCITEGIC>MOL_PROPERTY
U+W
SciTegic.value.DoubleValue
-7.409

@<SCITEGIC>MOL_PROPERTY
Grad RMS
SciTegic.value.DoubleValue
0.000000

@<SCITEGIC>MOL_PROPERTY
U
SciTegic.value.DoubleValue
48.047

@<SCITEGIC>MOL_PROPERTY
W
SciTegic.value.DoubleValue
-55.456

@<SCITEGIC>MOL_PROPERTY
W(PB)
SciTegic.value.DoubleValue
-57.595

@<SCITEGIC>MOL_PROPERTY
W(SA)
SciTegic.value.DoubleValue
2.138

@<SCITEGIC>MOL_PROPERTY
Valence
SciTegic.value.DoubleValue
2.583

@<SCITEGIC>MOL_PROPERTY
Coulomb
SciTegic.value.DoubleValue
44.791

@<SCITEGIC>MOL_PROPERTY
VdW
SciTegic.value.DoubleValue
0.674

@<SCITEGIC>MOL_PROPERTY
VdW6
SciTegic.value.DoubleValue
-5.789

@<SCITEGIC>MOL_PROPERTY
VdW12
SciTegic.value.DoubleValue
6.462

@<SCITEGIC>MOL_PROPERTY
Bond
SciTegic.value.DoubleValue
0.177

@<SCITEGIC>MOL_PROPERTY
Angle
SciTegic.value.DoubleValue
0.787

@<SCITEGIC>MOL_PROPERTY
Pdih
SciTegic.value.DoubleValue
1.619

@<SCITEGIC>MOL_PROPERTY
Idih
SciTegic.value.DoubleValue
0.000

@<SCITEGIC>MOL_PROPERTY
Tether
SciTegic.value.DoubleValue
0.000

@<TRIPOS>MOLECULE
guest-2_confgen4.mol2 : confsearch ligand conformer 196
          23          22           1
SMALL
USER_CHARGES
 
@<TRIPOS>ATOM
       1    N1      20.861775   16.025618   20.997764 N.4        1 MOL1        -0.5940
       2    H1      21.829756   15.932043   20.671745 H          1 MOL1         0.3649
       3    H2      20.260299   15.656650   20.254162 H          1 MOL1         0.3649
       4    H3      20.758141   15.403457   21.805857 H          1 MOL1         0.3649
       5    C1      20.519724   17.461072   21.341639 C.3        1 MOL1         0.0207
       6    H4      20.679088   18.069604   20.447374 H          1 MOL1         0.0950
       7    H5      21.216517   17.795707   22.114422 H          1 MOL1         0.0950
       8    C2      19.070782   17.634605   21.834906 C.3        1 MOL1        -0.1415
       9    H6      18.382915   17.253866   21.068210 H          1 MOL1         0.0976
      10    H7      18.910555   17.022712   22.732631 H          1 MOL1         0.0976
      11    C3      18.715492   19.108890   22.140332 C.3        1 MOL1        -0.1375
      12    H8      17.648259   19.168372   22.395143 H          1 MOL1         0.0976
      13    H9      18.852234   19.714137   21.233345 H          1 MOL1         0.0976
      14    C4      19.549140   19.707898   23.298642 C.3        1 MOL1        -0.1375
      15    H10     19.436227   19.081693   24.194485 H          1 MOL1         0.0976
      16    H11     20.615713   19.699886   23.037076 H          1 MOL1         0.0976
      17    C5      19.119279   21.155228   23.626096 C.3        1 MOL1        -0.1350
      18    H12     18.054473   21.174133   23.897741 H          1 MOL1         0.0976
      19    H13     19.229618   21.786083   22.732885 H          1 MOL1         0.0976
      20    C6      19.952214   21.752095   24.780449 C.3        1 MOL1        -0.2365
      21    H14     19.835500   21.160999   25.698169 H          1 MOL1         0.0987
      22    H15     19.632244   22.779282   24.998513 H          1 MOL1         0.0987
      23    H16     21.019450   21.778999   24.524510 H          1 MOL1         0.0987
@<TRIPOS>BOND
    1     1     2    1
    2     1     3    1
    3     1     4    1
    4     1     5    1
    5     5     6    1
    6     5     7    1
    7     5     8    1
    8     8     9    1
    9     8    10    1
   10     8    11    1
   11    11    12    1
   12    11    13    1
   13    11    14    1
   14    14    15    1
   15    14    16    1
   16    14    17    1
   17    17    18    1
   18    17    19    1
   19    17    20    1
   20    20    21    1
   21    20    22    1
   22    20    23    1
@<TRIPOS>SUBSTRUCTURE
       1 MOL1            1 RESIDUE      1      MOL     
@<SCITEGIC>MOL_PROPERTY
VConf Rank
SciTegic.value.IntegerValue
196

@<SCITEGIC>MOL_PROPERTY
Conf_Id
SciTegic.value.IntegerValue
42

@<SCITEGIC>MOL_PROPERTY
Delta U+W
SciTegic.value.DoubleValue
0.365

@<SCITEGIC>MOL_PROPERTY
U+W
SciTegic.value.DoubleValue
-8.017

@<SCITEGIC>MOL_PROPERTY
Grad RMS
SciTegic.value.DoubleValue
0.000000

@<SCITEGIC>MOL_PROPERTY
U
SciTegic.value.DoubleValue
47.375

@<SCITEGIC>MOL_PROPERTY
W
SciTegic.value.DoubleValue
-55.392

@<SCITEGIC>MOL_PROPERTY
W(PB)
SciTegic.value.DoubleValue
-57.543

@<SCITEGIC>MOL_PROPERTY
W(SA)
SciTegic.value.DoubleValue
2.152

@<SCITEGIC>MOL_PROPERTY
Valence
SciTegic.value.DoubleValue
2.032

@<SCITEGIC>MOL_PROPERTY
Coulomb
SciTegic.value.DoubleValue
44.843

@<SCITEGIC>MOL_PROPERTY
VdW
SciTegic.value.DoubleValue
0.499

@<SCITEGIC>MOL_PROPERTY
VdW6
SciTegic.value.DoubleValue
-5.218

@<SCITEGIC>MOL_PROPERTY
VdW12
SciTegic.value.DoubleValue
5.717

@<SCITEGIC>MOL_PROPERTY
Bond
SciTegic.value.DoubleValue
0.135

@<SCITEGIC>MOL_PROPERTY
Angle
SciTegic.value.DoubleValue
0.514

@<SCITEGIC>MOL_PROPERTY
Pdih
SciTegic.value.DoubleValue
1.383

@<SCITEGIC>MOL_PROPERTY
Idih
SciTegic.value.DoubleValue
0.000

@<SCITEGIC>MOL_PROPERTY
Tether
SciTegic.value.DoubleValue
0.000

@<TRIPOS>MOLECULE
guest-2_confgen4.mol2 : confsearch ligand conformer 197
          23          22           1
SMALL
USER_CHARGES
 
@<TRIPOS>ATOM
       1    N1      18.496141   21.699284   21.549557 N.4        1 MOL1        -0.5940
       2    H1      18.001640   21.885190   22.427931 H          1 MOL1         0.3649
       3    H2      18.071853   22.300228   20.834858 H          1 MOL1         0.3649
       4    H3      19.462075   22.017452   21.672611 H          1 MOL1         0.3649
       5    C1      18.429717   20.234103   21.164310 C.3        1 MOL1         0.0207
       6    H4      18.952449   20.108557   20.212254 H          1 MOL1         0.0950
       7    H5      17.377208   19.980816   21.010555 H          1 MOL1         0.0950
       8    C2      19.033537   19.284361   22.217222 C.3        1 MOL1        -0.1415
       9    H6      18.525528   19.431896   23.179413 H          1 MOL1         0.0976
      10    H7      18.824887   18.255553   21.899202 H          1 MOL1         0.0976
      11    C3      20.561135   19.471055   22.385729 C.3        1 MOL1        -0.1375
      12    H8      20.778663   20.525224   22.601928 H          1 MOL1         0.0976
      13    H9      21.062394   19.244620   21.434481 H          1 MOL1         0.0976
      14    C4      21.189310   18.613792   23.515133 C.3        1 MOL1        -0.1375
      15    H10     22.257833   18.865355   23.564739 H          1 MOL1         0.0976
      16    H11     20.771951   18.907019   24.488300 H          1 MOL1         0.0976
      17    C5      21.064127   17.080891   23.317686 C.3        1 MOL1        -0.1350
      18    H12     21.977755   16.603147   23.698496 H          1 MOL1         0.0976
      19    H13     21.019305   16.835469   22.247472 H          1 MOL1         0.0976
      20    C6      19.857982   16.462613   24.062809 C.3        1 MOL1        -0.2365
      21    H14     19.933873   16.638191   25.143768 H          1 MOL1         0.0987
      22    H15     19.824094   15.377003   23.904012 H          1 MOL1         0.0987
      23    H16     18.903802   16.878003   23.720594 H          1 MOL1         0.0987
@<TRIPOS>BOND
    1     1     2    1
    2     1     3    1
    3     1     4    1
    4     1     5    1
    5     5     6    1
    6     5     7    1
    7     5     8    1
    8     8     9    1
    9     8    10    1
   10     8    11    1
   11    11    12    1
   12    11    13    1
   13    11    14    1
   14    14    15    1
   15    14    16    1
   16    14    17    1
   17    17    18    1
   18    17    19    1
   19    17    20    1
   20    20    21    1
   21    20    22    1
   22    20    23    1
@<TRIPOS>SUBSTRUCTURE
       1 MOL1            1 RESIDUE      1      MOL     
@<SCITEGIC>MOL_PROPERTY
VConf Rank
SciTegic.value.IntegerValue
197

@<SCITEGIC>MOL_PROPERTY
Conf_Id
SciTegic.value.IntegerValue
3

@<SCITEGIC>MOL_PROPERTY
Delta U+W
SciTegic.value.DoubleValue
3.283

@<SCITEGIC>MOL_PROPERTY
U+W
SciTegic.value.DoubleValue
-5.099

@<SCITEGIC>MOL_PROPERTY
Grad RMS
SciTegic.value.DoubleValue
0.000000

@<SCITEGIC>MOL_PROPERTY
U
SciTegic.value.DoubleValue
50.701

@<SCITEGIC>MOL_PROPERTY
W
SciTegic.value.DoubleValue
-55.800

@<SCITEGIC>MOL_PROPERTY
W(PB)
SciTegic.value.DoubleValue
-57.867

@<SCITEGIC>MOL_PROPERTY
W(SA)
SciTegic.value.DoubleValue
2.067

@<SCITEGIC>MOL_PROPERTY
Valence
SciTegic.value.DoubleValue
4.880

@<SCITEGIC>MOL_PROPERTY
Coulomb
SciTegic.value.DoubleValue
45.095

@<SCITEGIC>MOL_PROPERTY
VdW
SciTegic.value.DoubleValue
0.726

@<SCITEGIC>MOL_PROPERTY
VdW6
SciTegic.value.DoubleValue
-6.620

@<SCITEGIC>MOL_PROPERTY
VdW12
SciTegic.value.DoubleValue
7.346

@<SCITEGIC>MOL_PROPERTY
Bond
SciTegic.value.DoubleValue
0.222

@<SCITEGIC>MOL_PROPERTY
Angle
SciTegic.value.DoubleValue
1.260

@<SCITEGIC>MOL_PROPERTY
Pdih
SciTegic.value.DoubleValue
3.398

@<SCITEGIC>MOL_PROPERTY
Idih
SciTegic.value.DoubleValue
0.000

@<SCITEGIC>MOL_PROPERTY
Tether
SciTegic.value.DoubleValue
0.000

@<TRIPOS>MOLECULE
guest-2_confgen4.mol2 : confsearch ligand conformer 198
          23          22           1
SMALL
USER_CHARGES
 
@<TRIPOS>ATOM
       1    N1      18.524885   17.396342   20.568389 N.4        1 MOL1        -0.5940
       2    H1      18.614913   16.392001   20.752095 H          1 MOL1         0.3649
       3    H2      17.956465   17.495746   19.720537 H          1 MOL1         0.3649
       4    H3      17.985774   17.798905   21.340983 H          1 MOL1         0.3649
       5    C1      19.877359   18.065362   20.421695 C.3        1 MOL1         0.0207
       6    H4      19.710589   19.122039   20.197838 H          1 MOL1         0.0950
       7    H5      20.380663   17.613185   19.562772 H          1 MOL1         0.0950
       8    C2      20.774655   17.930120   21.669030 C.3        1 MOL1        -0.1415
       9    H6      20.975857   16.866109   21.851246 H          1 MOL1         0.0976
      10    H7      21.747414   18.392511   21.455032 H          1 MOL1         0.0976
      11    C3      20.179192   18.564384   22.951519 C.3        1 MOL1        -0.1375
      12    H8      20.875315   18.375093   23.778838 H          1 MOL1         0.0976
      13    H9      19.242144   18.058172   23.218797 H          1 MOL1         0.0976
      14    C4      19.932933   20.089036   22.820292 C.3        1 MOL1        -0.1375
      15    H10     20.876982   20.597209   22.580083 H          1 MOL1         0.0976
      16    H11     19.255791   20.281171   21.977726 H          1 MOL1         0.0976
      17    C5      19.313269   20.724362   24.088686 C.3        1 MOL1        -0.1350
      18    H12     18.362828   20.227094   24.327668 H          1 MOL1         0.0976
      19    H13     19.064848   21.772654   23.871348 H          1 MOL1         0.0976
      20    C6      20.247110   20.680943   25.319702 C.3        1 MOL1        -0.2365
      21    H14     21.217462   21.142830   25.095903 H          1 MOL1         0.0987
      22    H15     20.424805   19.652090   25.656055 H          1 MOL1         0.0987
      23    H16     19.800707   21.229010   26.159512 H          1 MOL1         0.0987
@<TRIPOS>BOND
    1     1     2    1
    2     1     3    1
    3     1     4    1
    4     1     5    1
    5     5     6    1
    6     5     7    1
    7     5     8    1
    8     8     9    1
    9     8    10    1
   10     8    11    1
   11    11    12    1
   12    11    13    1
   13    11    14    1
   14    14    15    1
   15    14    16    1
   16    14    17    1
   17    17    18    1
   18    17    19    1
   19    17    20    1
   20    20    21    1
   21    20    22    1
   22    20    23    1
@<TRIPOS>SUBSTRUCTURE
       1 MOL1            1 RESIDUE      1      MOL     
@<SCITEGIC>MOL_PROPERTY
VConf Rank
SciTegic.value.IntegerValue
198

@<SCITEGIC>MOL_PROPERTY
Conf_Id
SciTegic.value.IntegerValue
83

@<SCITEGIC>MOL_PROPERTY
Delta U+W
SciTegic.value.DoubleValue
1.229

@<SCITEGIC>MOL_PROPERTY
U+W
SciTegic.value.DoubleValue
-7.154

@<SCITEGIC>MOL_PROPERTY
Grad RMS
SciTegic.value.DoubleValue
0.000000

@<SCITEGIC>MOL_PROPERTY
U
SciTegic.value.DoubleValue
48.727

@<SCITEGIC>MOL_PROPERTY
W
SciTegic.value.DoubleValue
-55.880

@<SCITEGIC>MOL_PROPERTY
W(PB)
SciTegic.value.DoubleValue
-57.960

@<SCITEGIC>MOL_PROPERTY
W(SA)
SciTegic.value.DoubleValue
2.080

@<SCITEGIC>MOL_PROPERTY
Valence
SciTegic.value.DoubleValue
2.671

@<SCITEGIC>MOL_PROPERTY
Coulomb
SciTegic.value.DoubleValue
45.371

@<SCITEGIC>MOL_PROPERTY
VdW
SciTegic.value.DoubleValue
0.684

@<SCITEGIC>MOL_PROPERTY
VdW6
SciTegic.value.DoubleValue
-6.511

@<SCITEGIC>MOL_PROPERTY
VdW12
SciTegic.value.DoubleValue
7.195

@<SCITEGIC>MOL_PROPERTY
Bond
SciTegic.value.DoubleValue
0.203

@<SCITEGIC>MOL_PROPERTY
Angle
SciTegic.value.DoubleValue
0.915

@<SCITEGIC>MOL_PROPERTY
Pdih
SciTegic.value.DoubleValue
1.554

@<SCITEGIC>MOL_PROPERTY
Idih
SciTegic.value.DoubleValue
0.000

@<SCITEGIC>MOL_PROPERTY
Tether
SciTegic.value.DoubleValue
0.000

@<TRIPOS>MOLECULE
guest-2_confgen4.mol2 : confsearch ligand conformer 199
          23          22           1
SMALL
USER_CHARGES
 
@<TRIPOS>ATOM
       1    N1      19.985691   21.683758   21.422759 N.4        1 MOL1        -0.5940
       2    H1      19.742379   21.723816   20.427898 H          1 MOL1         0.3649
       3    H2      20.793402   21.059956   21.512624 H          1 MOL1         0.3649
       4    H3      20.298625   22.622490   21.692370 H          1 MOL1         0.3649
       5    C1      18.819072   21.213928   22.269254 C.3        1 MOL1         0.0207
       6    H4      18.010013   21.940165   22.152941 H          1 MOL1         0.0950
       7    H5      19.133845   21.223479   23.315828 H          1 MOL1         0.0950
       8    C2      18.303864   19.810170   21.890703 C.3        1 MOL1        -0.1415
       9    H6      17.430245   19.575795   22.513373 H          1 MOL1         0.0976
      10    H7      17.943383   19.829109   20.853640 H          1 MOL1         0.0976
      11    C3      19.357343   18.684087   22.044872 C.3        1 MOL1        -0.1375
      12    H8      20.203350   18.868318   21.369536 H          1 MOL1         0.0976
      13    H9      18.900153   17.743295   21.712060 H          1 MOL1         0.0976
      14    C4      19.871408   18.524464   23.498381 C.3        1 MOL1        -0.1375
      15    H10     20.307056   19.472284   23.840728 H          1 MOL1         0.0976
      16    H11     19.026936   18.312637   24.168580 H          1 MOL1         0.0976
      17    C5      20.943866   17.419074   23.654562 C.3        1 MOL1        -0.1350
      18    H12     21.335479   17.451648   24.680935 H          1 MOL1         0.0976
      19    H13     21.796203   17.631492   22.994163 H          1 MOL1         0.0976
      20    C6      20.409178   15.996401   23.372686 C.3        1 MOL1        -0.2365
      21    H14     19.535148   15.771861   23.997716 H          1 MOL1         0.0987
      22    H15     21.179922   15.246291   23.592282 H          1 MOL1         0.0987
      23    H16     20.121375   15.873797   22.321315 H          1 MOL1         0.0987
@<TRIPOS>BOND
    1     1     2    1
    2     1     3    1
    3     1     4    1
    4     1     5    1
    5     5     6    1
    6     5     7    1
    7     5     8    1
    8     8     9    1
    9     8    10    1
   10     8    11    1
   11    11    12    1
   12    11    13    1
   13    11    14    1
   14    14    15    1
   15    14    16    1
   16    14    17    1
   17    17    18    1
   18    17    19    1
   19    17    20    1
   20    20    21    1
   21    20    22    1
   22    20    23    1
@<TRIPOS>SUBSTRUCTURE
       1 MOL1            1 RESIDUE      1      MOL     
@<SCITEGIC>MOL_PROPERTY
VConf Rank
SciTegic.value.IntegerValue
199

@<SCITEGIC>MOL_PROPERTY
Conf_Id
SciTegic.value.IntegerValue
50

@<SCITEGIC>MOL_PROPERTY
Delta U+W
SciTegic.value.DoubleValue
1.252

@<SCITEGIC>MOL_PROPERTY
U+W
SciTegic.value.DoubleValue
-7.130

@<SCITEGIC>MOL_PROPERTY
Grad RMS
SciTegic.value.DoubleValue
0.000000

@<SCITEGIC>MOL_PROPERTY
U
SciTegic.value.DoubleValue
48.727

@<SCITEGIC>MOL_PROPERTY
W
SciTegic.value.DoubleValue
-55.857

@<SCITEGIC>MOL_PROPERTY
W(PB)
SciTegic.value.DoubleValue
-57.937

@<SCITEGIC>MOL_PROPERTY
W(SA)
SciTegic.value.DoubleValue
2.080

@<SCITEGIC>MOL_PROPERTY
Valence
SciTegic.value.DoubleValue
2.671

@<SCITEGIC>MOL_PROPERTY
Coulomb
SciTegic.value.DoubleValue
45.371

@<SCITEGIC>MOL_PROPERTY
VdW
SciTegic.value.DoubleValue
0.684

@<SCITEGIC>MOL_PROPERTY
VdW6
SciTegic.value.DoubleValue
-6.511

@<SCITEGIC>MOL_PROPERTY
VdW12
SciTegic.value.DoubleValue
7.196

@<SCITEGIC>MOL_PROPERTY
Bond
SciTegic.value.DoubleValue
0.203

@<SCITEGIC>MOL_PROPERTY
Angle
SciTegic.value.DoubleValue
0.915

@<SCITEGIC>MOL_PROPERTY
Pdih
SciTegic.value.DoubleValue
1.554

@<SCITEGIC>MOL_PROPERTY
Idih
SciTegic.value.DoubleValue
0.000

@<SCITEGIC>MOL_PROPERTY
Tether
SciTegic.value.DoubleValue
0.000

@<TRIPOS>MOLECULE
guest-2_confgen4.mol2 : confsearch ligand conformer 200
          23          22           1
SMALL
USER_CHARGES
 
@<TRIPOS>ATOM
       1    N1      17.421493   20.449021   21.039871 N.4        1 MOL1        -0.5940
       2    H1      17.035590   20.365296   21.985176 H          1 MOL1         0.3649
       3    H2      16.640390   20.330286   20.385877 H          1 MOL1         0.3649
       4    H3      17.756566   21.411828   20.933309 H          1 MOL1         0.3649
       5    C1      18.523287   19.437638   20.790083 C.3        1 MOL1         0.0207
       6    H4      18.855637   19.558607   19.755442 H          1 MOL1         0.0950
       7    H5      18.095633   18.436925   20.895430 H          1 MOL1         0.0950
       8    C2      19.731350   19.587051   21.735080 C.3        1 MOL1        -0.1415
       9    H6      20.511490   18.891299   21.406488 H          1 MOL1         0.0976
      10    H7      20.153985   20.595011   21.629417 H          1 MOL1         0.0976
      11    C3      19.365856   19.322218   23.217967 C.3        1 MOL1        -0.1375
      12    H8      18.855519   18.354406   23.319215 H          1 MOL1         0.0976
      13    H9      18.642538   20.083167   23.540081 H          1 MOL1         0.0976
      14    C4      20.587016   19.381436   24.172622 C.3        1 MOL1        -0.1375
      15    H10     21.346779   20.070273   23.778341 H          1 MOL1         0.0976
      16    H11     20.256420   19.819785   25.124488 H          1 MOL1         0.0976
      17    C5      21.227922   18.006338   24.491293 C.3        1 MOL1        -0.1350
      18    H12     20.486158   17.358439   24.978927 H          1 MOL1         0.0976
      19    H13     22.029604   18.157772   25.227627 H          1 MOL1         0.0976
      20    C6      21.815535   17.277505   23.263065 C.3        1 MOL1        -0.2365
      21    H14     22.518534   17.921398   22.718978 H          1 MOL1         0.0987
      22    H15     21.025005   16.959467   22.572277 H          1 MOL1         0.0987
      23    H16     22.358931   16.376482   23.575744 H          1 MOL1         0.0987
@<TRIPOS>BOND
    1     1     2    1
    2     1     3    1
    3     1     4    1
    4     1     5    1
    5     5     6    1
    6     5     7    1
    7     5     8    1
    8     8     9    1
    9     8    10    1
   10     8    11    1
   11    11    12    1
   12    11    13    1
   13    11    14    1
   14    14    15    1
   15    14    16    1
   16    14    17    1
   17    17    18    1
   18    17    19    1
   19    17    20    1
   20    20    21    1
   21    20    22    1
   22    20    23    1
@<TRIPOS>SUBSTRUCTURE
       1 MOL1            1 RESIDUE      1      MOL     
@<SCITEGIC>MOL_PROPERTY
VConf Rank
SciTegic.value.IntegerValue
200

@<SCITEGIC>MOL_PROPERTY
Conf_Id
SciTegic.value.IntegerValue
55

@<SCITEGIC>MOL_PROPERTY
Delta U+W
SciTegic.value.DoubleValue
3.232

@<SCITEGIC>MOL_PROPERTY
U+W
SciTegic.value.DoubleValue
-5.150

@<SCITEGIC>MOL_PROPERTY
Grad RMS
SciTegic.value.DoubleValue
0.000000

@<SCITEGIC>MOL_PROPERTY
U
SciTegic.value.DoubleValue
50.625

@<SCITEGIC>MOL_PROPERTY
W
SciTegic.value.DoubleValue
-55.776

@<SCITEGIC>MOL_PROPERTY
W(PB)
SciTegic.value.DoubleValue
-57.839

@<SCITEGIC>MOL_PROPERTY
W(SA)
SciTegic.value.DoubleValue
2.064

@<SCITEGIC>MOL_PROPERTY
Valence
SciTegic.value.DoubleValue
4.837

@<SCITEGIC>MOL_PROPERTY
Coulomb
SciTegic.value.DoubleValue
45.097

@<SCITEGIC>MOL_PROPERTY
VdW
SciTegic.value.DoubleValue
0.692

@<SCITEGIC>MOL_PROPERTY
VdW6
SciTegic.value.DoubleValue
-6.655

@<SCITEGIC>MOL_PROPERTY
VdW12
SciTegic.value.DoubleValue
7.347

@<SCITEGIC>MOL_PROPERTY
Bond
SciTegic.value.DoubleValue
0.223

@<SCITEGIC>MOL_PROPERTY
Angle
SciTegic.value.DoubleValue
1.167

@<SCITEGIC>MOL_PROPERTY
Pdih
SciTegic.value.DoubleValue
3.447

@<SCITEGIC>MOL_PROPERTY
Idih
SciTegic.value.DoubleValue
0.000

@<SCITEGIC>MOL_PROPERTY
Tether
SciTegic.value.DoubleValue
0.000

@<TRIPOS>MOLECULE
guest-2_confgen4.mol2 : confsearch ligand conformer 201
          23          22           1
SMALL
USER_CHARGES
 
@<TRIPOS>ATOM
       1    N1      18.847108   18.658070   25.552227 N.4        1 MOL1        -0.5940
       2    H1      18.648983   19.456391   26.163994 H          1 MOL1         0.3649
       3    H2      19.231176   17.915704   26.146687 H          1 MOL1         0.3649
       4    H3      17.946931   18.319927   25.197126 H          1 MOL1         0.3649
       5    C1      19.795222   19.027975   24.429775 C.3        1 MOL1         0.0207
       6    H4      19.987710   18.126464   23.845339 H          1 MOL1         0.0950
       7    H5      20.738354   19.350367   24.879180 H          1 MOL1         0.0950
       8    C2      19.247382   20.147352   23.522773 C.3        1 MOL1        -0.1415
       9    H6      18.276459   19.856247   23.100364 H          1 MOL1         0.0976
      10    H7      19.061113   21.031027   24.147626 H          1 MOL1         0.0976
      11    C3      20.225148   20.543766   22.387743 C.3        1 MOL1        -0.1375
      12    H8      21.260515   20.511909   22.754625 H          1 MOL1         0.0976
      13    H9      20.035600   21.593791   22.125034 H          1 MOL1         0.0976
      14    C4      20.093842   19.706535   21.088790 C.3        1 MOL1        -0.1375
      15    H10     19.083805   19.830161   20.674263 H          1 MOL1         0.0976
      16    H11     20.782469   20.125043   20.341739 H          1 MOL1         0.0976
      17    C5      20.396774   18.200079   21.260033 C.3        1 MOL1        -0.1350
      18    H12     19.622860   17.731365   21.881547 H          1 MOL1         0.0976
      19    H13     21.356486   18.068224   21.778921 H          1 MOL1         0.0976
      20    C6      20.445705   17.471166   19.900264 C.3        1 MOL1        -0.2365
      21    H14     21.235471   17.883383   19.258733 H          1 MOL1         0.0987
      22    H15     19.489837   17.563901   19.368317 H          1 MOL1         0.0987
      23    H16     20.650688   16.401939   20.040851 H          1 MOL1         0.0987
@<TRIPOS>BOND
    1     1     2    1
    2     1     3    1
    3     1     4    1
    4     1     5    1
    5     5     6    1
    6     5     7    1
    7     5     8    1
    8     8     9    1
    9     8    10    1
   10     8    11    1
   11    11    12    1
   12    11    13    1
   13    11    14    1
   14    14    15    1
   15    14    16    1
   16    14    17    1
   17    17    18    1
   18    17    19    1
   19    17    20    1
   20    20    21    1
   21    20    22    1
   22    20    23    1
@<TRIPOS>SUBSTRUCTURE
       1 MOL1            1 RESIDUE      1      MOL     
@<SCITEGIC>MOL_PROPERTY
VConf Rank
SciTegic.value.IntegerValue
201

@<SCITEGIC>MOL_PROPERTY
Conf_Id
SciTegic.value.IntegerValue
93

@<SCITEGIC>MOL_PROPERTY
Delta U+W
SciTegic.value.DoubleValue
2.589

@<SCITEGIC>MOL_PROPERTY
U+W
SciTegic.value.DoubleValue
-5.793

@<SCITEGIC>MOL_PROPERTY
Grad RMS
SciTegic.value.DoubleValue
0.000000

@<SCITEGIC>MOL_PROPERTY
U
SciTegic.value.DoubleValue
50.122

@<SCITEGIC>MOL_PROPERTY
W
SciTegic.value.DoubleValue
-55.915

@<SCITEGIC>MOL_PROPERTY
W(PB)
SciTegic.value.DoubleValue
-58.031

@<SCITEGIC>MOL_PROPERTY
W(SA)
SciTegic.value.DoubleValue
2.115

@<SCITEGIC>MOL_PROPERTY
Valence
SciTegic.value.DoubleValue
4.132

@<SCITEGIC>MOL_PROPERTY
Coulomb
SciTegic.value.DoubleValue
45.536

@<SCITEGIC>MOL_PROPERTY
VdW
SciTegic.value.DoubleValue
0.454

@<SCITEGIC>MOL_PROPERTY
VdW6
SciTegic.value.DoubleValue
-6.262

@<SCITEGIC>MOL_PROPERTY
VdW12
SciTegic.value.DoubleValue
6.715

@<SCITEGIC>MOL_PROPERTY
Bond
SciTegic.value.DoubleValue
0.182

@<SCITEGIC>MOL_PROPERTY
Angle
SciTegic.value.DoubleValue
1.157

@<SCITEGIC>MOL_PROPERTY
Pdih
SciTegic.value.DoubleValue
2.794

@<SCITEGIC>MOL_PROPERTY
Idih
SciTegic.value.DoubleValue
0.000

@<SCITEGIC>MOL_PROPERTY
Tether
SciTegic.value.DoubleValue
0.000

@<TRIPOS>MOLECULE
guest-2_confgen4.mol2 : confsearch ligand conformer 202
          23          22           1
SMALL
USER_CHARGES
 
@<TRIPOS>ATOM
       1    N1      20.109485   20.281456   19.777558 N.4        1 MOL1        -0.5940
       2    H1      20.686715   19.482673   19.495586 H          1 MOL1         0.3649
       3    H2      20.688788   21.120969   19.669740 H          1 MOL1         0.3649
       4    H3      19.346628   20.357064   19.096999 H          1 MOL1         0.3649
       5    C1      19.590913   20.132977   21.193426 C.3        1 MOL1         0.0207
       6    H4      19.011724   21.028370   21.434695 H          1 MOL1         0.0950
       7    H5      20.452931   20.095281   21.861889 H          1 MOL1         0.0950
       8    C2      18.710123   18.882556   21.384336 C.3        1 MOL1        -0.1415
       9    H6      17.860989   18.955509   20.691756 H          1 MOL1         0.0976
      10    H7      19.264241   17.977805   21.101065 H          1 MOL1         0.0976
      11    C3      18.159362   18.740806   22.825874 C.3        1 MOL1        -0.1375
      12    H8      17.211279   18.187475   22.776271 H          1 MOL1         0.0976
      13    H9      17.904658   19.730260   23.230487 H          1 MOL1         0.0976
      14    C4      19.089700   17.985559   23.810530 C.3        1 MOL1        -0.1375
      15    H10     18.563738   17.887827   24.770349 H          1 MOL1         0.0976
      16    H11     19.252658   16.961403   23.447433 H          1 MOL1         0.0976
      17    C5      20.456236   18.665929   24.055845 C.3        1 MOL1        -0.1350
      18    H12     20.306729   19.724842   24.308881 H          1 MOL1         0.0976
      19    H13     21.060730   18.631574   23.140245 H          1 MOL1         0.0976
      20    C6      21.240825   17.974245   25.191043 C.3        1 MOL1        -0.2365
      21    H14     22.211967   18.462519   25.344342 H          1 MOL1         0.0987
      22    H15     21.428011   16.918575   24.954882 H          1 MOL1         0.0987
      23    H16     20.688266   18.019926   26.138570 H          1 MOL1         0.0987
@<TRIPOS>BOND
    1     1     2    1
    2     1     3    1
    3     1     4    1
    4     1     5    1
    5     5     6    1
    6     5     7    1
    7     5     8    1
    8     8     9    1
    9     8    10    1
   10     8    11    1
   11    11    12    1
   12    11    13    1
   13    11    14    1
   14    14    15    1
   15    14    16    1
   16    14    17    1
   17    17    18    1
   18    17    19    1
   19    17    20    1
   20    20    21    1
   21    20    22    1
   22    20    23    1
@<TRIPOS>SUBSTRUCTURE
       1 MOL1            1 RESIDUE      1      MOL     
@<SCITEGIC>MOL_PROPERTY
VConf Rank
SciTegic.value.IntegerValue
202

@<SCITEGIC>MOL_PROPERTY
Conf_Id
SciTegic.value.IntegerValue
70

@<SCITEGIC>MOL_PROPERTY
Delta U+W
SciTegic.value.DoubleValue
2.599

@<SCITEGIC>MOL_PROPERTY
U+W
SciTegic.value.DoubleValue
-5.783

@<SCITEGIC>MOL_PROPERTY
Grad RMS
SciTegic.value.DoubleValue
0.000000

@<SCITEGIC>MOL_PROPERTY
U
SciTegic.value.DoubleValue
50.122

@<SCITEGIC>MOL_PROPERTY
W
SciTegic.value.DoubleValue
-55.906

@<SCITEGIC>MOL_PROPERTY
W(PB)
SciTegic.value.DoubleValue
-58.010

@<SCITEGIC>MOL_PROPERTY
W(SA)
SciTegic.value.DoubleValue
2.105

@<SCITEGIC>MOL_PROPERTY
Valence
SciTegic.value.DoubleValue
4.132

@<SCITEGIC>MOL_PROPERTY
Coulomb
SciTegic.value.DoubleValue
45.536

@<SCITEGIC>MOL_PROPERTY
VdW
SciTegic.value.DoubleValue
0.454

@<SCITEGIC>MOL_PROPERTY
VdW6
SciTegic.value.DoubleValue
-6.262

@<SCITEGIC>MOL_PROPERTY
VdW12
SciTegic.value.DoubleValue
6.715

@<SCITEGIC>MOL_PROPERTY
Bond
SciTegic.value.DoubleValue
0.182

@<SCITEGIC>MOL_PROPERTY
Angle
SciTegic.value.DoubleValue
1.157

@<SCITEGIC>MOL_PROPERTY
Pdih
SciTegic.value.DoubleValue
2.794

@<SCITEGIC>MOL_PROPERTY
Idih
SciTegic.value.DoubleValue
0.000

@<SCITEGIC>MOL_PROPERTY
Tether
SciTegic.value.DoubleValue
0.000

@<TRIPOS>MOLECULE
guest-2_confgen4.mol2 : confsearch ligand conformer 203
          23          22           1
SMALL
USER_CHARGES
 
@<TRIPOS>ATOM
       1    N1      20.660011   20.657090   20.448937 N.4        1 MOL1        -0.5940
       2    H1      21.350265   21.409503   20.537994 H          1 MOL1         0.3649
       3    H2      20.209625   20.770785   19.534613 H          1 MOL1         0.3649
       4    H3      21.177237   19.773216   20.422293 H          1 MOL1         0.3649
       5    C1      19.651942   20.681374   21.580946 C.3        1 MOL1         0.0207
       6    H4      18.928820   19.879801   21.409132 H          1 MOL1         0.0950
       7    H5      19.119560   21.635164   21.532475 H          1 MOL1         0.0950
       8    C2      20.286448   20.519129   22.976962 C.3        1 MOL1        -0.1415
       9    H6      20.984696   21.348214   23.152413 H          1 MOL1         0.0976
      10    H7      19.501720   20.623725   23.737012 H          1 MOL1         0.0976
      11    C3      21.032183   19.173576   23.177887 C.3        1 MOL1        -0.1375
      12    H8      21.413703   19.130703   24.207357 H          1 MOL1         0.0976
      13    H9      21.920048   19.151777   22.531781 H          1 MOL1         0.0976
      14    C4      20.180756   17.907403   22.900977 C.3        1 MOL1        -0.1375
      15    H10     19.868548   17.885770   21.848384 H          1 MOL1         0.0976
      16    H11     20.817516   17.023688   23.045621 H          1 MOL1         0.0976
      17    C5      18.938666   17.785928   23.814951 C.3        1 MOL1        -0.1350
      18    H12     18.252525   18.624269   23.635135 H          1 MOL1         0.0976
      19    H13     19.245960   17.845671   24.868381 H          1 MOL1         0.0976
      20    C6      18.183684   16.461021   23.576194 C.3        1 MOL1        -0.2365
      21    H14     17.304767   16.392438   24.230269 H          1 MOL1         0.0987
      22    H15     18.827009   15.596368   23.785245 H          1 MOL1         0.0987
      23    H16     17.837127   16.386144   22.537206 H          1 MOL1         0.0987
@<TRIPOS>BOND
    1     1     2    1
    2     1     3    1
    3     1     4    1
    4     1     5    1
    5     5     6    1
    6     5     7    1
    7     5     8    1
    8     8     9    1
    9     8    10    1
   10     8    11    1
   11    11    12    1
   12    11    13    1
   13    11    14    1
   14    14    15    1
   15    14    16    1
   16    14    17    1
   17    17    18    1
   18    17    19    1
   19    17    20    1
   20    20    21    1
   21    20    22    1
   22    20    23    1
@<TRIPOS>SUBSTRUCTURE
       1 MOL1            1 RESIDUE      1      MOL     
@<SCITEGIC>MOL_PROPERTY
VConf Rank
SciTegic.value.IntegerValue
203

@<SCITEGIC>MOL_PROPERTY
Conf_Id
SciTegic.value.IntegerValue
72

@<SCITEGIC>MOL_PROPERTY
Delta U+W
SciTegic.value.DoubleValue
1.051

@<SCITEGIC>MOL_PROPERTY
U+W
SciTegic.value.DoubleValue
-7.331

@<SCITEGIC>MOL_PROPERTY
Grad RMS
SciTegic.value.DoubleValue
0.000000

@<SCITEGIC>MOL_PROPERTY
U
SciTegic.value.DoubleValue
48.590

@<SCITEGIC>MOL_PROPERTY
W
SciTegic.value.DoubleValue
-55.922

@<SCITEGIC>MOL_PROPERTY
W(PB)
SciTegic.value.DoubleValue
-58.012

@<SCITEGIC>MOL_PROPERTY
W(SA)
SciTegic.value.DoubleValue
2.090

@<SCITEGIC>MOL_PROPERTY
Valence
SciTegic.value.DoubleValue
2.601

@<SCITEGIC>MOL_PROPERTY
Coulomb
SciTegic.value.DoubleValue
45.520

@<SCITEGIC>MOL_PROPERTY
VdW
SciTegic.value.DoubleValue
0.469

@<SCITEGIC>MOL_PROPERTY
VdW6
SciTegic.value.DoubleValue
-6.867

@<SCITEGIC>MOL_PROPERTY
VdW12
SciTegic.value.DoubleValue
7.336

@<SCITEGIC>MOL_PROPERTY
Bond
SciTegic.value.DoubleValue
0.205

@<SCITEGIC>MOL_PROPERTY
Angle
SciTegic.value.DoubleValue
0.962

@<SCITEGIC>MOL_PROPERTY
Pdih
SciTegic.value.DoubleValue
1.434

@<SCITEGIC>MOL_PROPERTY
Idih
SciTegic.value.DoubleValue
0.000

@<SCITEGIC>MOL_PROPERTY
Tether
SciTegic.value.DoubleValue
0.000

@<TRIPOS>MOLECULE
guest-2_confgen4.mol2 : confsearch ligand conformer 204
          23          22           1
SMALL
USER_CHARGES
 
@<TRIPOS>ATOM
       1    N1      16.804052   20.010260   22.822189 N.4        1 MOL1        -0.5940
       2    H1      16.341121   20.530334   23.575298 H          1 MOL1         0.3649
       3    H2      16.095710   19.398664   22.403875 H          1 MOL1         0.3649
       4    H3      17.071363   20.694880   22.107694 H          1 MOL1         0.3649
       5    C1      17.997610   19.227269   23.330110 C.3        1 MOL1         0.0207
       6    H4      17.646488   18.540529   24.104998 H          1 MOL1         0.0950
       7    H5      18.693901   19.935163   23.787273 H          1 MOL1         0.0950
       8    C2      18.715828   18.434437   22.222230 C.3        1 MOL1        -0.1415
       9    H6      17.998522   17.753670   21.744991 H          1 MOL1         0.0976
      10    H7      19.057379   19.121362   21.437432 H          1 MOL1         0.0976
      11    C3      19.910172   17.606560   22.758164 C.3        1 MOL1        -0.1375
      12    H8      20.363026   17.050021   21.926818 H          1 MOL1         0.0976
      13    H9      19.530190   16.844125   23.452151 H          1 MOL1         0.0976
      14    C4      21.003847   18.435532   23.484414 C.3        1 MOL1        -0.1375
      15    H10     20.587717   18.858040   24.408874 H          1 MOL1         0.0976
      16    H11     21.804007   17.754639   23.805815 H          1 MOL1         0.0976
      17    C5      21.628457   19.580326   22.646841 C.3        1 MOL1        -0.1350
      18    H12     22.373881   20.099858   23.265000 H          1 MOL1         0.0976
      19    H13     20.865649   20.331386   22.401587 H          1 MOL1         0.0976
      20    C6      22.312532   19.088836   21.351081 C.3        1 MOL1        -0.2365
      21    H14     23.071596   18.326858   21.570517 H          1 MOL1         0.0987
      22    H15     22.811225   19.922143   20.839468 H          1 MOL1         0.0987
      23    H16     21.585893   18.658450   20.650851 H          1 MOL1         0.0987
@<TRIPOS>BOND
    1     1     2    1
    2     1     3    1
    3     1     4    1
    4     1     5    1
    5     5     6    1
    6     5     7    1
    7     5     8    1
    8     8     9    1
    9     8    10    1
   10     8    11    1
   11    11    12    1
   12    11    13    1
   13    11    14    1
   14    14    15    1
   15    14    16    1
   16    14    17    1
   17    17    18    1
   18    17    19    1
   19    17    20    1
   20    20    21    1
   21    20    22    1
   22    20    23    1
@<TRIPOS>SUBSTRUCTURE
       1 MOL1            1 RESIDUE      1      MOL     
@<SCITEGIC>MOL_PROPERTY
VConf Rank
SciTegic.value.IntegerValue
204

@<SCITEGIC>MOL_PROPERTY
Conf_Id
SciTegic.value.IntegerValue
26

@<SCITEGIC>MOL_PROPERTY
Delta U+W
SciTegic.value.DoubleValue
1.076

@<SCITEGIC>MOL_PROPERTY
U+W
SciTegic.value.DoubleValue
-7.306

@<SCITEGIC>MOL_PROPERTY
Grad RMS
SciTegic.value.DoubleValue
0.000000

@<SCITEGIC>MOL_PROPERTY
U
SciTegic.value.DoubleValue
48.641

@<SCITEGIC>MOL_PROPERTY
W
SciTegic.value.DoubleValue
-55.947

@<SCITEGIC>MOL_PROPERTY
W(PB)
SciTegic.value.DoubleValue
-58.031

@<SCITEGIC>MOL_PROPERTY
W(SA)
SciTegic.value.DoubleValue
2.084

@<SCITEGIC>MOL_PROPERTY
Valence
SciTegic.value.DoubleValue
2.922

@<SCITEGIC>MOL_PROPERTY
Coulomb
SciTegic.value.DoubleValue
45.269

@<SCITEGIC>MOL_PROPERTY
VdW
SciTegic.value.DoubleValue
0.449

@<SCITEGIC>MOL_PROPERTY
VdW6
SciTegic.value.DoubleValue
-7.045

@<SCITEGIC>MOL_PROPERTY
VdW12
SciTegic.value.DoubleValue
7.494

@<SCITEGIC>MOL_PROPERTY
Bond
SciTegic.value.DoubleValue
0.220

@<SCITEGIC>MOL_PROPERTY
Angle
SciTegic.value.DoubleValue
1.205

@<SCITEGIC>MOL_PROPERTY
Pdih
SciTegic.value.DoubleValue
1.497

@<SCITEGIC>MOL_PROPERTY
Idih
SciTegic.value.DoubleValue
0.000

@<SCITEGIC>MOL_PROPERTY
Tether
SciTegic.value.DoubleValue
0.000

@<TRIPOS>MOLECULE
guest-2_confgen4.mol2 : confsearch ligand conformer 205
          23          22           1
SMALL
USER_CHARGES
 
@<TRIPOS>ATOM
       1    N1      21.432609   21.278625   24.020913 N.4        1 MOL1        -0.5940
       2    H1      22.273530   21.585749   23.521603 H          1 MOL1         0.3649
       3    H2      21.598671   21.451488   25.018159 H          1 MOL1         0.3649
       4    H3      20.668274   21.898464   23.734115 H          1 MOL1         0.3649
       5    C1      21.113387   19.822940   23.747577 C.3        1 MOL1         0.0207
       6    H4      20.228648   19.557541   24.332157 H          1 MOL1         0.0950
       7    H5      21.953842   19.220193   24.102092 H          1 MOL1         0.0950
       8    C2      20.858188   19.529949   22.257326 C.3        1 MOL1        -0.1415
       9    H6      20.023055   20.144081   21.897010 H          1 MOL1         0.0976
      10    H7      21.738146   19.834648   21.675465 H          1 MOL1         0.0976
      11    C3      20.571560   18.032705   21.983157 C.3        1 MOL1        -0.1375
      12    H8      21.466072   17.447854   22.238322 H          1 MOL1         0.0976
      13    H9      20.421170   17.887511   20.905079 H          1 MOL1         0.0976
      14    C4      19.360415   17.448440   22.759379 C.3        1 MOL1        -0.1375
      15    H10     19.240317   16.393038   22.478539 H          1 MOL1         0.0976
      16    H11     19.584228   17.443391   23.834639 H          1 MOL1         0.0976
      17    C5      18.014585   18.182460   22.530954 C.3        1 MOL1        -0.1350
      18    H12     18.076731   19.214110   22.902376 H          1 MOL1         0.0976
      19    H13     17.240560   17.691053   23.136839 H          1 MOL1         0.0976
      20    C6      17.561564   18.186145   21.053362 C.3        1 MOL1        -0.2365
      21    H14     18.250209   18.762159   20.422857 H          1 MOL1         0.0987
      22    H15     16.566870   18.640193   20.957108 H          1 MOL1         0.0987
      23    H16     17.504343   17.164529   20.655912 H          1 MOL1         0.0987
@<TRIPOS>BOND
    1     1     2    1
    2     1     3    1
    3     1     4    1
    4     1     5    1
    5     5     6    1
    6     5     7    1
    7     5     8    1
    8     8     9    1
    9     8    10    1
   10     8    11    1
   11    11    12    1
   12    11    13    1
   13    11    14    1
   14    14    15    1
   15    14    16    1
   16    14    17    1
   17    17    18    1
   18    17    19    1
   19    17    20    1
   20    20    21    1
   21    20    22    1
   22    20    23    1
@<TRIPOS>SUBSTRUCTURE
       1 MOL1            1 RESIDUE      1      MOL     
@<SCITEGIC>MOL_PROPERTY
VConf Rank
SciTegic.value.IntegerValue
205

@<SCITEGIC>MOL_PROPERTY
Conf_Id
SciTegic.value.IntegerValue
90

@<SCITEGIC>MOL_PROPERTY
Delta U+W
SciTegic.value.DoubleValue
1.131

@<SCITEGIC>MOL_PROPERTY
U+W
SciTegic.value.DoubleValue
-7.251

@<SCITEGIC>MOL_PROPERTY
Grad RMS
SciTegic.value.DoubleValue
0.000000

@<SCITEGIC>MOL_PROPERTY
U
SciTegic.value.DoubleValue
48.641

@<SCITEGIC>MOL_PROPERTY
W
SciTegic.value.DoubleValue
-55.892

@<SCITEGIC>MOL_PROPERTY
W(PB)
SciTegic.value.DoubleValue
-57.962

@<SCITEGIC>MOL_PROPERTY
W(SA)
SciTegic.value.DoubleValue
2.070

@<SCITEGIC>MOL_PROPERTY
Valence
SciTegic.value.DoubleValue
2.922

@<SCITEGIC>MOL_PROPERTY
Coulomb
SciTegic.value.DoubleValue
45.269

@<SCITEGIC>MOL_PROPERTY
VdW
SciTegic.value.DoubleValue
0.450

@<SCITEGIC>MOL_PROPERTY
VdW6
SciTegic.value.DoubleValue
-7.045

@<SCITEGIC>MOL_PROPERTY
VdW12
SciTegic.value.DoubleValue
7.495

@<SCITEGIC>MOL_PROPERTY
Bond
SciTegic.value.DoubleValue
0.220

@<SCITEGIC>MOL_PROPERTY
Angle
SciTegic.value.DoubleValue
1.205

@<SCITEGIC>MOL_PROPERTY
Pdih
SciTegic.value.DoubleValue
1.497

@<SCITEGIC>MOL_PROPERTY
Idih
SciTegic.value.DoubleValue
0.000

@<SCITEGIC>MOL_PROPERTY
Tether
SciTegic.value.DoubleValue
0.000

@<TRIPOS>MOLECULE
guest-2_confgen4.mol2 : confsearch ligand conformer 206
          23          22           1
SMALL
USER_CHARGES
 
@<TRIPOS>ATOM
       1    N1      20.743986   20.077046   20.389835 N.4        1 MOL1        -0.5940
       2    H1      21.649161   20.134832   19.911115 H          1 MOL1         0.3649
       3    H2      20.891256   20.395851   21.352278 H          1 MOL1         0.3649
       4    H3      20.122380   20.754687   19.937088 H          1 MOL1         0.3649
       5    C1      20.172837   18.673346   20.347286 C.3        1 MOL1         0.0207
       6    H4      20.894529   17.999458   20.816062 H          1 MOL1         0.0950
       7    H5      20.073532   18.385932   19.297023 H          1 MOL1         0.0950
       8    C2      18.804308   18.539684   21.045966 C.3        1 MOL1        -0.1415
       9    H6      18.076118   19.185189   20.537190 H          1 MOL1         0.0976
      10    H7      18.442636   17.510790   20.917847 H          1 MOL1         0.0976
      11    C3      18.831208   18.887773   22.555500 C.3        1 MOL1        -0.1375
      12    H8      17.814790   18.778333   22.958027 H          1 MOL1         0.0976
      13    H9      19.098391   19.944431   22.682741 H          1 MOL1         0.0976
      14    C4      19.798609   17.990246   23.367936 C.3        1 MOL1        -0.1375
      15    H10     19.568854   16.936047   23.160220 H          1 MOL1         0.0976
      16    H11     20.833385   18.152370   23.037956 H          1 MOL1         0.0976
      17    C5      19.711679   18.220443   24.895956 C.3        1 MOL1        -0.1350
      18    H12     20.344385   17.477306   25.401195 H          1 MOL1         0.0976
      19    H13     18.685148   18.035953   25.242333 H          1 MOL1         0.0976
      20    C6      20.160794   19.634397   25.329736 C.3        1 MOL1        -0.2365
      21    H14     21.175326   19.853648   24.972536 H          1 MOL1         0.0987
      22    H15     20.165840   19.716519   26.424343 H          1 MOL1         0.0987
      23    H16     19.485095   20.408121   24.944778 H          1 MOL1         0.0987
@<TRIPOS>BOND
    1     1     2    1
    2     1     3    1
    3     1     4    1
    4     1     5    1
    5     5     6    1
    6     5     7    1
    7     5     8    1
    8     8     9    1
    9     8    10    1
   10     8    11    1
   11    11    12    1
   12    11    13    1
   13    11    14    1
   14    14    15    1
   15    14    16    1
   16    14    17    1
   17    17    18    1
   18    17    19    1
   19    17    20    1
   20    20    21    1
   21    20    22    1
   22    20    23    1
@<TRIPOS>SUBSTRUCTURE
       1 MOL1            1 RESIDUE      1      MOL     
@<SCITEGIC>MOL_PROPERTY
VConf Rank
SciTegic.value.IntegerValue
206

@<SCITEGIC>MOL_PROPERTY
Conf_Id
SciTegic.value.IntegerValue
85

@<SCITEGIC>MOL_PROPERTY
Delta U+W
SciTegic.value.DoubleValue
1.193

@<SCITEGIC>MOL_PROPERTY
U+W
SciTegic.value.DoubleValue
-7.189

@<SCITEGIC>MOL_PROPERTY
Grad RMS
SciTegic.value.DoubleValue
0.000000

@<SCITEGIC>MOL_PROPERTY
U
SciTegic.value.DoubleValue
48.775

@<SCITEGIC>MOL_PROPERTY
W
SciTegic.value.DoubleValue
-55.965

@<SCITEGIC>MOL_PROPERTY
W(PB)
SciTegic.value.DoubleValue
-58.038

@<SCITEGIC>MOL_PROPERTY
W(SA)
SciTegic.value.DoubleValue
2.073

@<SCITEGIC>MOL_PROPERTY
Valence
SciTegic.value.DoubleValue
2.602

@<SCITEGIC>MOL_PROPERTY
Coulomb
SciTegic.value.DoubleValue
45.581

@<SCITEGIC>MOL_PROPERTY
VdW
SciTegic.value.DoubleValue
0.592

@<SCITEGIC>MOL_PROPERTY
VdW6
SciTegic.value.DoubleValue
-6.616

@<SCITEGIC>MOL_PROPERTY
VdW12
SciTegic.value.DoubleValue
7.208

@<SCITEGIC>MOL_PROPERTY
Bond
SciTegic.value.DoubleValue
0.196

@<SCITEGIC>MOL_PROPERTY
Angle
SciTegic.value.DoubleValue
0.832

@<SCITEGIC>MOL_PROPERTY
Pdih
SciTegic.value.DoubleValue
1.574

@<SCITEGIC>MOL_PROPERTY
Idih
SciTegic.value.DoubleValue
0.000

@<SCITEGIC>MOL_PROPERTY
Tether
SciTegic.value.DoubleValue
0.000

@<TRIPOS>MOLECULE
guest-2_confgen4.mol2 : confsearch ligand conformer 207
          23          22           1
SMALL
USER_CHARGES
 
@<TRIPOS>ATOM
       1    N1      19.887399   18.142618   20.644588 N.4        1 MOL1        -0.5940
       2    H1      19.606560   19.043353   21.045184 H          1 MOL1         0.3649
       3    H2      19.185604   17.886537   19.941588 H          1 MOL1         0.3649
       4    H3      20.770016   18.291815   20.144847 H          1 MOL1         0.3649
       5    C1      20.023232   17.079711   21.717640 C.3        1 MOL1         0.0207
       6    H4      20.324372   16.156104   21.215868 H          1 MOL1         0.0950
       7    H5      19.043202   16.914269   22.172941 H          1 MOL1         0.0950
       8    C2      21.057906   17.419573   22.809731 C.3        1 MOL1        -0.1415
       9    H6      21.368955   16.477052   23.279561 H          1 MOL1         0.0976
      10    H7      21.962924   17.835137   22.346998 H          1 MOL1         0.0976
      11    C3      20.549922   18.363538   23.932670 C.3        1 MOL1        -0.1375
      12    H8      21.363833   18.472865   24.662807 H          1 MOL1         0.0976
      13    H9      19.726517   17.885054   24.480873 H          1 MOL1         0.0976
      14    C4      20.129137   19.781192   23.467419 C.3        1 MOL1        -0.1375
      15    H10     20.412239   20.502462   24.246754 H          1 MOL1         0.0976
      16    H11     20.698975   20.072113   22.575021 H          1 MOL1         0.0976
      17    C5      18.605786   19.916344   23.226097 C.3        1 MOL1        -0.1350
      18    H12     18.075007   19.783250   24.179351 H          1 MOL1         0.0976
      19    H13     18.238624   19.123895   22.563154 H          1 MOL1         0.0976
      20    C6      18.242141   21.293355   22.631598 C.3        1 MOL1        -0.2365
      21    H14     18.551407   22.105735   23.302241 H          1 MOL1         0.0987
      22    H15     17.157818   21.376433   22.481525 H          1 MOL1         0.0987
      23    H16     18.729229   21.449432   21.660438 H          1 MOL1         0.0987
@<TRIPOS>BOND
    1     1     2    1
    2     1     3    1
    3     1     4    1
    4     1     5    1
    5     5     6    1
    6     5     7    1
    7     5     8    1
    8     8     9    1
    9     8    10    1
   10     8    11    1
   11    11    12    1
   12    11    13    1
   13    11    14    1
   14    14    15    1
   15    14    16    1
   16    14    17    1
   17    17    18    1
   18    17    19    1
   19    17    20    1
   20    20    21    1
   21    20    22    1
   22    20    23    1
@<TRIPOS>SUBSTRUCTURE
       1 MOL1            1 RESIDUE      1      MOL     
@<SCITEGIC>MOL_PROPERTY
VConf Rank
SciTegic.value.IntegerValue
207

@<SCITEGIC>MOL_PROPERTY
Conf_Id
SciTegic.value.IntegerValue
82

@<SCITEGIC>MOL_PROPERTY
Delta U+W
SciTegic.value.DoubleValue
5.994

@<SCITEGIC>MOL_PROPERTY
U+W
SciTegic.value.DoubleValue
-2.388

@<SCITEGIC>MOL_PROPERTY
Grad RMS
SciTegic.value.DoubleValue
0.000000

@<SCITEGIC>MOL_PROPERTY
U
SciTegic.value.DoubleValue
52.836

@<SCITEGIC>MOL_PROPERTY
W
SciTegic.value.DoubleValue
-55.224

@<SCITEGIC>MOL_PROPERTY
W(PB)
SciTegic.value.DoubleValue
-57.261

@<SCITEGIC>MOL_PROPERTY
W(SA)
SciTegic.value.DoubleValue
2.037

@<SCITEGIC>MOL_PROPERTY
Valence
SciTegic.value.DoubleValue
5.785

@<SCITEGIC>MOL_PROPERTY
Coulomb
SciTegic.value.DoubleValue
46.744

@<SCITEGIC>MOL_PROPERTY
VdW
SciTegic.value.DoubleValue
0.307

@<SCITEGIC>MOL_PROPERTY
VdW6
SciTegic.value.DoubleValue
-7.672

@<SCITEGIC>MOL_PROPERTY
VdW12
SciTegic.value.DoubleValue
7.979

@<SCITEGIC>MOL_PROPERTY
Bond
SciTegic.value.DoubleValue
0.217

@<SCITEGIC>MOL_PROPERTY
Angle
SciTegic.value.DoubleValue
1.470

@<SCITEGIC>MOL_PROPERTY
Pdih
SciTegic.value.DoubleValue
4.098

@<SCITEGIC>MOL_PROPERTY
Idih
SciTegic.value.DoubleValue
0.000

@<SCITEGIC>MOL_PROPERTY
Tether
SciTegic.value.DoubleValue
0.000

@<TRIPOS>MOLECULE
guest-2_confgen4.mol2 : confsearch ligand conformer 208
          23          22           1
SMALL
USER_CHARGES
 
@<TRIPOS>ATOM
       1    N1      20.064194   20.098443   20.825016 N.4        1 MOL1        -0.5940
       2    H1      19.691185   21.053354   20.830158 H          1 MOL1         0.3649
       3    H2      20.718704   20.037581   20.037480 H          1 MOL1         0.3649
       4    H3      20.607237   19.977439   21.685909 H          1 MOL1         0.3649
       5    C1      18.959146   19.065268   20.719778 C.3        1 MOL1         0.0207
       6    H4      19.412652   18.072816   20.652702 H          1 MOL1         0.0950
       7    H5      18.428419   19.259610   19.783792 H          1 MOL1         0.0950
       8    C2      17.951641   19.103372   21.886910 C.3        1 MOL1        -0.1415
       9    H6      17.693396   20.144865   22.120310 H          1 MOL1         0.0976
      10    H7      17.020732   18.635875   21.539501 H          1 MOL1         0.0976
      11    C3      18.401703   18.362644   23.174885 C.3        1 MOL1        -0.1375
      12    H8      18.531539   17.291740   22.965653 H          1 MOL1         0.0976
      13    H9      17.573376   18.422520   23.894465 H          1 MOL1         0.0976
      14    C4      19.672148   18.931370   23.857368 C.3        1 MOL1        -0.1375
      15    H10     19.762248   20.006808   23.654786 H          1 MOL1         0.0976
      16    H11     19.551516   18.845030   24.946281 H          1 MOL1         0.0976
      17    C5      20.965646   18.178101   23.461703 C.3        1 MOL1        -0.1350
      18    H12     21.063435   18.105668   22.371990 H          1 MOL1         0.0976
      19    H13     20.909286   17.143912   23.829686 H          1 MOL1         0.0976
      20    C6      22.222545   18.856278   24.046602 C.3        1 MOL1        -0.2365
      21    H14     22.330856   19.883296   23.674756 H          1 MOL1         0.0987
      22    H15     23.127520   18.300464   23.768628 H          1 MOL1         0.0987
      23    H16     22.175320   18.894132   25.142826 H          1 MOL1         0.0987
@<TRIPOS>BOND
    1     1     2    1
    2     1     3    1
    3     1     4    1
    4     1     5    1
    5     5     6    1
    6     5     7    1
    7     5     8    1
    8     8     9    1
    9     8    10    1
   10     8    11    1
   11    11    12    1
   12    11    13    1
   13    11    14    1
   14    14    15    1
   15    14    16    1
   16    14    17    1
   17    17    18    1
   18    17    19    1
   19    17    20    1
   20    20    21    1
   21    20    22    1
   22    20    23    1
@<TRIPOS>SUBSTRUCTURE
       1 MOL1            1 RESIDUE      1      MOL     
@<SCITEGIC>MOL_PROPERTY
VConf Rank
SciTegic.value.IntegerValue
208

@<SCITEGIC>MOL_PROPERTY
Conf_Id
SciTegic.value.IntegerValue
5

@<SCITEGIC>MOL_PROPERTY
Delta U+W
SciTegic.value.DoubleValue
6.087

@<SCITEGIC>MOL_PROPERTY
U+W
SciTegic.value.DoubleValue
-2.295

@<SCITEGIC>MOL_PROPERTY
Grad RMS
SciTegic.value.DoubleValue
0.000000

@<SCITEGIC>MOL_PROPERTY
U
SciTegic.value.DoubleValue
52.836

@<SCITEGIC>MOL_PROPERTY
W
SciTegic.value.DoubleValue
-55.131

@<SCITEGIC>MOL_PROPERTY
W(PB)
SciTegic.value.DoubleValue
-57.202

@<SCITEGIC>MOL_PROPERTY
W(SA)
SciTegic.value.DoubleValue
2.071

@<SCITEGIC>MOL_PROPERTY
Valence
SciTegic.value.DoubleValue
5.785

@<SCITEGIC>MOL_PROPERTY
Coulomb
SciTegic.value.DoubleValue
46.744

@<SCITEGIC>MOL_PROPERTY
VdW
SciTegic.value.DoubleValue
0.307

@<SCITEGIC>MOL_PROPERTY
VdW6
SciTegic.value.DoubleValue
-7.672

@<SCITEGIC>MOL_PROPERTY
VdW12
SciTegic.value.DoubleValue
7.980

@<SCITEGIC>MOL_PROPERTY
Bond
SciTegic.value.DoubleValue
0.217

@<SCITEGIC>MOL_PROPERTY
Angle
SciTegic.value.DoubleValue
1.470

@<SCITEGIC>MOL_PROPERTY
Pdih
SciTegic.value.DoubleValue
4.098

@<SCITEGIC>MOL_PROPERTY
Idih
SciTegic.value.DoubleValue
0.000

@<SCITEGIC>MOL_PROPERTY
Tether
SciTegic.value.DoubleValue
0.000

@<TRIPOS>MOLECULE
guest-2_confgen4.mol2 : confsearch ligand conformer 209
          23          22           1
SMALL
USER_CHARGES
 
@<TRIPOS>ATOM
       1    N1      16.307829   17.346066   22.576015 N.4        1 MOL1        -0.5940
       2    H1      16.645486   16.378790   22.540682 H          1 MOL1         0.3649
       3    H2      15.428213   17.373930   22.049143 H          1 MOL1         0.3649
       4    H3      16.075775   17.548954   23.553702 H          1 MOL1         0.3649
       5    C1      17.326650   18.321425   22.022322 C.3        1 MOL1         0.0207
       6    H4      16.891255   19.323561   22.062939 H          1 MOL1         0.0950
       7    H5      17.503575   18.065811   20.974059 H          1 MOL1         0.0950
       8    C2      18.659373   18.304060   22.791819 C.3        1 MOL1        -0.1415
       9    H6      18.474654   18.545345   23.847168 H          1 MOL1         0.0976
      10    H7      19.084755   17.291996   22.762215 H          1 MOL1         0.0976
      11    C3      19.669004   19.310493   22.196907 C.3        1 MOL1        -0.1375
      12    H8      19.237610   20.320937   22.223457 H          1 MOL1         0.0976
      13    H9      19.847087   19.068886   21.139686 H          1 MOL1         0.0976
      14    C4      21.011706   19.301437   22.962460 C.3        1 MOL1        -0.1375
      15    H10     20.833829   19.543143   24.019556 H          1 MOL1         0.0976
      16    H11     21.443194   18.291175   22.935991 H          1 MOL1         0.0976
      17    C5      22.021245   20.308023   22.367166 C.3        1 MOL1        -0.1350
      18    H12     21.595116   21.320785   22.393627 H          1 MOL1         0.0976
      19    H13     22.204434   20.068919   21.310169 H          1 MOL1         0.0976
      20    C6      23.360682   20.296151   23.134158 C.3        1 MOL1        -0.2365
      21    H14     24.064062   21.016773   22.697116 H          1 MOL1         0.0987
      22    H15     23.828439   19.303674   23.096447 H          1 MOL1         0.0987
      23    H16     23.214357   20.565293   24.188379 H          1 MOL1         0.0987
@<TRIPOS>BOND
    1     1     2    1
    2     1     3    1
    3     1     4    1
    4     1     5    1
    5     5     6    1
    6     5     7    1
    7     5     8    1
    8     8     9    1
    9     8    10    1
   10     8    11    1
   11    11    12    1
   12    11    13    1
   13    11    14    1
   14    14    15    1
   15    14    16    1
   16    14    17    1
   17    17    18    1
   18    17    19    1
   19    17    20    1
   20    20    21    1
   21    20    22    1
   22    20    23    1
@<TRIPOS>SUBSTRUCTURE
       1 MOL1            1 RESIDUE      1      MOL     
@<SCITEGIC>MOL_PROPERTY
VConf Rank
SciTegic.value.IntegerValue
209

@<SCITEGIC>MOL_PROPERTY
Conf_Id
SciTegic.value.IntegerValue
40

@<SCITEGIC>MOL_PROPERTY
Delta U+W
SciTegic.value.DoubleValue
0.000

@<SCITEGIC>MOL_PROPERTY
U+W
SciTegic.value.DoubleValue
-8.382

@<SCITEGIC>MOL_PROPERTY
Grad RMS
SciTegic.value.DoubleValue
0.000000

@<SCITEGIC>MOL_PROPERTY
U
SciTegic.value.DoubleValue
46.604

@<SCITEGIC>MOL_PROPERTY
W
SciTegic.value.DoubleValue
-54.986

@<SCITEGIC>MOL_PROPERTY
W(PB)
SciTegic.value.DoubleValue
-57.162

@<SCITEGIC>MOL_PROPERTY
W(SA)
SciTegic.value.DoubleValue
2.176

@<SCITEGIC>MOL_PROPERTY
Valence
SciTegic.value.DoubleValue
1.727

@<SCITEGIC>MOL_PROPERTY
Coulomb
SciTegic.value.DoubleValue
44.434

@<SCITEGIC>MOL_PROPERTY
VdW
SciTegic.value.DoubleValue
0.443

@<SCITEGIC>MOL_PROPERTY
VdW6
SciTegic.value.DoubleValue
-4.623

@<SCITEGIC>MOL_PROPERTY
VdW12
SciTegic.value.DoubleValue
5.066

@<SCITEGIC>MOL_PROPERTY
Bond
SciTegic.value.DoubleValue
0.112

@<SCITEGIC>MOL_PROPERTY
Angle
SciTegic.value.DoubleValue
0.386

@<SCITEGIC>MOL_PROPERTY
Pdih
SciTegic.value.DoubleValue
1.228

@<SCITEGIC>MOL_PROPERTY
Idih
SciTegic.value.DoubleValue
0.000

@<SCITEGIC>MOL_PROPERTY
Tether
SciTegic.value.DoubleValue
0.000

@<TRIPOS>MOLECULE
guest-2_confgen4.mol2 : confsearch ligand conformer 210
          23          22           1
SMALL
USER_CHARGES
 
@<TRIPOS>ATOM
       1    N1      23.310133   19.473877   22.604287 N.4        1 MOL1        -0.5940
       2    H1      23.543414   20.455506   22.423110 H          1 MOL1         0.3649
       3    H2      23.500965   18.954442   21.741383 H          1 MOL1         0.3649
       4    H3      23.973933   19.135209   23.309057 H          1 MOL1         0.3649
       5    C1      21.873984   19.308465   23.058047 C.3        1 MOL1         0.0207
       6    H4      21.749562   19.861716   23.992842 H          1 MOL1         0.0950
       7    H5      21.707204   18.247574   23.261060 H          1 MOL1         0.0950
       8    C2      20.851821   19.808999   22.019885 C.3        1 MOL1        -0.1415
       9    H6      21.061728   20.862295   21.790857 H          1 MOL1         0.0976
      10    H7      20.975528   19.252796   21.081099 H          1 MOL1         0.0976
      11    C3      19.389316   19.684860   22.509058 C.3        1 MOL1        -0.1375
      12    H8      18.737407   20.163787   21.767031 H          1 MOL1         0.0976
      13    H9      19.266255   20.250240   23.443174 H          1 MOL1         0.0976
      14    C4      18.942162   18.216245   22.723062 C.3        1 MOL1        -0.1375
      15    H10     19.045830   17.656651   21.783206 H          1 MOL1         0.0976
      16    H11     19.609823   17.730657   23.446899 H          1 MOL1         0.0976
      17    C5      17.490508   18.084185   23.244397 C.3        1 MOL1        -0.1350
      18    H12     17.383596   18.633535   24.190221 H          1 MOL1         0.0976
      19    H13     17.295802   17.028324   23.479174 H          1 MOL1         0.0976
      20    C6      16.425865   18.572544   22.235720 C.3        1 MOL1        -0.2365
      21    H14     16.498389   19.653391   22.063187 H          1 MOL1         0.0987
      22    H15     15.416096   18.366926   22.613920 H          1 MOL1         0.0987
      23    H16     16.532674   18.061448   21.270120 H          1 MOL1         0.0987
@<TRIPOS>BOND
    1     1     2    1
    2     1     3    1
    3     1     4    1
    4     1     5    1
    5     5     6    1
    6     5     7    1
    7     5     8    1
    8     8     9    1
    9     8    10    1
   10     8    11    1
   11    11    12    1
   12    11    13    1
   13    11    14    1
   14    14    15    1
   15    14    16    1
   16    14    17    1
   17    17    18    1
   18    17    19    1
   19    17    20    1
   20    20    21    1
   21    20    22    1
   22    20    23    1
@<TRIPOS>SUBSTRUCTURE
       1 MOL1            1 RESIDUE      1      MOL     
@<SCITEGIC>MOL_PROPERTY
VConf Rank
SciTegic.value.IntegerValue
210

@<SCITEGIC>MOL_PROPERTY
Conf_Id
SciTegic.value.IntegerValue
65

@<SCITEGIC>MOL_PROPERTY
Delta U+W
SciTegic.value.DoubleValue
1.004

@<SCITEGIC>MOL_PROPERTY
U+W
SciTegic.value.DoubleValue
-7.378

@<SCITEGIC>MOL_PROPERTY
Grad RMS
SciTegic.value.DoubleValue
0.000000

@<SCITEGIC>MOL_PROPERTY
U
SciTegic.value.DoubleValue
48.047

@<SCITEGIC>MOL_PROPERTY
W
SciTegic.value.DoubleValue
-55.425

@<SCITEGIC>MOL_PROPERTY
W(PB)
SciTegic.value.DoubleValue
-57.542

@<SCITEGIC>MOL_PROPERTY
W(SA)
SciTegic.value.DoubleValue
2.116

@<SCITEGIC>MOL_PROPERTY
Valence
SciTegic.value.DoubleValue
2.583

@<SCITEGIC>MOL_PROPERTY
Coulomb
SciTegic.value.DoubleValue
44.791

@<SCITEGIC>MOL_PROPERTY
VdW
SciTegic.value.DoubleValue
0.673

@<SCITEGIC>MOL_PROPERTY
VdW6
SciTegic.value.DoubleValue
-5.788

@<SCITEGIC>MOL_PROPERTY
VdW12
SciTegic.value.DoubleValue
6.462

@<SCITEGIC>MOL_PROPERTY
Bond
SciTegic.value.DoubleValue
0.177

@<SCITEGIC>MOL_PROPERTY
Angle
SciTegic.value.DoubleValue
0.787

@<SCITEGIC>MOL_PROPERTY
Pdih
SciTegic.value.DoubleValue
1.619

@<SCITEGIC>MOL_PROPERTY
Idih
SciTegic.value.DoubleValue
0.000

@<SCITEGIC>MOL_PROPERTY
Tether
SciTegic.value.DoubleValue
0.000

@<TRIPOS>MOLECULE
guest-2_confgen4.mol2 : confsearch ligand conformer 211
          23          22           1
SMALL
USER_CHARGES
 
@<TRIPOS>ATOM
       1    N1      21.159725   19.360405   19.336464 N.4        1 MOL1        -0.5940
       2    H1      21.074723   18.479007   18.819985 H          1 MOL1         0.3649
       3    H2      22.073486   19.759510   19.096081 H          1 MOL1         0.3649
       4    H3      20.448802   19.997986   18.963755 H          1 MOL1         0.3649
       5    C1      21.009546   19.157073   20.830411 C.3        1 MOL1         0.0207
       6    H4      21.141892   20.127605   21.315253 H          1 MOL1         0.0950
       7    H5      21.812347   18.493564   21.163092 H          1 MOL1         0.0950
       8    C2      19.645903   18.557931   21.223655 C.3        1 MOL1        -0.1415
       9    H6      18.839192   19.224565   20.890788 H          1 MOL1         0.0976
      10    H7      19.506841   17.606995   20.692309 H          1 MOL1         0.0976
      11    C3      19.517314   18.305060   22.744555 C.3        1 MOL1        -0.1375
      12    H8      20.319793   17.630039   23.072802 H          1 MOL1         0.0976
      13    H9      18.572360   17.776741   22.925948 H          1 MOL1         0.0976
      14    C4      19.553551   19.608255   23.582973 C.3        1 MOL1        -0.1375
      15    H10     20.488127   20.148418   23.382233 H          1 MOL1         0.0976
      16    H11     18.738070   20.274028   23.268399 H          1 MOL1         0.0976
      17    C5      19.458861   19.362027   25.108399 C.3        1 MOL1        -0.1350
      18    H12     19.609400   20.318152   25.629009 H          1 MOL1         0.0976
      19    H13     20.278666   18.704853   25.430644 H          1 MOL1         0.0976
      20    C6      18.105517   18.762429   25.553743 C.3        1 MOL1        -0.2365
      21    H14     17.963496   17.748588   25.159772 H          1 MOL1         0.0987
      22    H15     17.267074   19.384556   25.214655 H          1 MOL1         0.0987
      23    H16     18.055203   18.699866   26.648503 H          1 MOL1         0.0987
@<TRIPOS>BOND
    1     1     2    1
    2     1     3    1
    3     1     4    1
    4     1     5    1
    5     5     6    1
    6     5     7    1
    7     5     8    1
    8     8     9    1
    9     8    10    1
   10     8    11    1
   11    11    12    1
   12    11    13    1
   13    11    14    1
   14    14    15    1
   15    14    16    1
   16    14    17    1
   17    17    18    1
   18    17    19    1
   19    17    20    1
   20    20    21    1
   21    20    22    1
   22    20    23    1
@<TRIPOS>SUBSTRUCTURE
       1 MOL1            1 RESIDUE      1      MOL     
@<SCITEGIC>MOL_PROPERTY
VConf Rank
SciTegic.value.IntegerValue
211

@<SCITEGIC>MOL_PROPERTY
Conf_Id
SciTegic.value.IntegerValue
92

@<SCITEGIC>MOL_PROPERTY
Delta U+W
SciTegic.value.DoubleValue
0.973

@<SCITEGIC>MOL_PROPERTY
U+W
SciTegic.value.DoubleValue
-7.409

@<SCITEGIC>MOL_PROPERTY
Grad RMS
SciTegic.value.DoubleValue
0.000000

@<SCITEGIC>MOL_PROPERTY
U
SciTegic.value.DoubleValue
48.047

@<SCITEGIC>MOL_PROPERTY
W
SciTegic.value.DoubleValue
-55.456

@<SCITEGIC>MOL_PROPERTY
W(PB)
SciTegic.value.DoubleValue
-57.595

@<SCITEGIC>MOL_PROPERTY
W(SA)
SciTegic.value.DoubleValue
2.138

@<SCITEGIC>MOL_PROPERTY
Valence
SciTegic.value.DoubleValue
2.583

@<SCITEGIC>MOL_PROPERTY
Coulomb
SciTegic.value.DoubleValue
44.791

@<SCITEGIC>MOL_PROPERTY
VdW
SciTegic.value.DoubleValue
0.674

@<SCITEGIC>MOL_PROPERTY
VdW6
SciTegic.value.DoubleValue
-5.789

@<SCITEGIC>MOL_PROPERTY
VdW12
SciTegic.value.DoubleValue
6.462

@<SCITEGIC>MOL_PROPERTY
Bond
SciTegic.value.DoubleValue
0.177

@<SCITEGIC>MOL_PROPERTY
Angle
SciTegic.value.DoubleValue
0.787

@<SCITEGIC>MOL_PROPERTY
Pdih
SciTegic.value.DoubleValue
1.619

@<SCITEGIC>MOL_PROPERTY
Idih
SciTegic.value.DoubleValue
0.000

@<SCITEGIC>MOL_PROPERTY
Tether
SciTegic.value.DoubleValue
0.000

@<TRIPOS>MOLECULE
guest-2_confgen4.mol2 : confsearch ligand conformer 212
          23          22           1
SMALL
USER_CHARGES
 
@<TRIPOS>ATOM
       1    N1      17.850342   21.548491   24.101638 N.4        1 MOL1        -0.5940
       2    H1      17.749474   22.464827   23.651985 H          1 MOL1         0.3649
       3    H2      18.026802   21.722859   25.096279 H          1 MOL1         0.3649
       4    H3      16.940129   21.081788   24.034262 H          1 MOL1         0.3649
       5    C1      18.954842   20.728266   23.466747 C.3        1 MOL1         0.0207
       6    H4      19.886074   21.295301   23.548581 H          1 MOL1         0.0950
       7    H5      18.716535   20.608823   22.406730 H          1 MOL1         0.0950
       8    C2      19.131432   19.344919   24.120983 C.3        1 MOL1        -0.1415
       9    H6      19.326073   19.477692   25.193566 H          1 MOL1         0.0976
      10    H7      18.195796   18.775764   24.039484 H          1 MOL1         0.0976
      11    C3      20.290507   18.532014   23.497474 C.3        1 MOL1        -0.1375
      12    H8      20.417294   17.603109   24.070634 H          1 MOL1         0.0976
      13    H9      21.229674   19.092719   23.603420 H          1 MOL1         0.0976
      14    C4      20.055881   18.182671   22.008054 C.3        1 MOL1        -0.1375
      15    H10     19.100052   17.651179   21.901639 H          1 MOL1         0.0976
      16    H11     19.976041   19.103138   21.414401 H          1 MOL1         0.0976
      17    C5      21.195443   17.309589   21.437181 C.3        1 MOL1        -0.1350
      18    H12     21.279084   16.380881   22.018959 H          1 MOL1         0.0976
      19    H13     22.154370   17.836379   21.541734 H          1 MOL1         0.0976
      20    C6      20.961129   16.962948   19.951415 C.3        1 MOL1        -0.2365
      21    H14     20.024692   16.405465   19.819036 H          1 MOL1         0.0987
      22    H15     21.779924   16.342645   19.564318 H          1 MOL1         0.0987
      23    H16     20.907808   17.871562   19.337576 H          1 MOL1         0.0987
@<TRIPOS>BOND
    1     1     2    1
    2     1     3    1
    3     1     4    1
    4     1     5    1
    5     5     6    1
    6     5     7    1
    7     5     8    1
    8     8     9    1
    9     8    10    1
   10     8    11    1
   11    11    12    1
   12    11    13    1
   13    11    14    1
   14    14    15    1
   15    14    16    1
   16    14    17    1
   17    17    18    1
   18    17    19    1
   19    17    20    1
   20    20    21    1
   21    20    22    1
   22    20    23    1
@<TRIPOS>SUBSTRUCTURE
       1 MOL1            1 RESIDUE      1      MOL     
@<SCITEGIC>MOL_PROPERTY
VConf Rank
SciTegic.value.IntegerValue
212

@<SCITEGIC>MOL_PROPERTY
Conf_Id
SciTegic.value.IntegerValue
42

@<SCITEGIC>MOL_PROPERTY
Delta U+W
SciTegic.value.DoubleValue
0.365

@<SCITEGIC>MOL_PROPERTY
U+W
SciTegic.value.DoubleValue
-8.017

@<SCITEGIC>MOL_PROPERTY
Grad RMS
SciTegic.value.DoubleValue
0.000000

@<SCITEGIC>MOL_PROPERTY
U
SciTegic.value.DoubleValue
47.375

@<SCITEGIC>MOL_PROPERTY
W
SciTegic.value.DoubleValue
-55.392

@<SCITEGIC>MOL_PROPERTY
W(PB)
SciTegic.value.DoubleValue
-57.543

@<SCITEGIC>MOL_PROPERTY
W(SA)
SciTegic.value.DoubleValue
2.152

@<SCITEGIC>MOL_PROPERTY
Valence
SciTegic.value.DoubleValue
2.032

@<SCITEGIC>MOL_PROPERTY
Coulomb
SciTegic.value.DoubleValue
44.843

@<SCITEGIC>MOL_PROPERTY
VdW
SciTegic.value.DoubleValue
0.499

@<SCITEGIC>MOL_PROPERTY
VdW6
SciTegic.value.DoubleValue
-5.218

@<SCITEGIC>MOL_PROPERTY
VdW12
SciTegic.value.DoubleValue
5.717

@<SCITEGIC>MOL_PROPERTY
Bond
SciTegic.value.DoubleValue
0.135

@<SCITEGIC>MOL_PROPERTY
Angle
SciTegic.value.DoubleValue
0.514

@<SCITEGIC>MOL_PROPERTY
Pdih
SciTegic.value.DoubleValue
1.383

@<SCITEGIC>MOL_PROPERTY
Idih
SciTegic.value.DoubleValue
0.000

@<SCITEGIC>MOL_PROPERTY
Tether
SciTegic.value.DoubleValue
0.000

@<TRIPOS>MOLECULE
guest-2_confgen4.mol2 : confsearch ligand conformer 213
          23          22           1
SMALL
USER_CHARGES
 
@<TRIPOS>ATOM
       1    N1      19.069955   21.363372   24.612342 N.4        1 MOL1        -0.5940
       2    H1      20.024812   21.735429   24.591008 H          1 MOL1         0.3649
       3    H2      18.605514   21.778928   25.426931 H          1 MOL1         0.3649
       4    H3      18.588229   21.717660   23.780585 H          1 MOL1         0.3649
       5    C1      19.056410   19.848066   24.669342 C.3        1 MOL1         0.0207
       6    H4      18.014858   19.518530   24.714027 H          1 MOL1         0.0950
       7    H5      19.548224   19.548498   25.598831 H          1 MOL1         0.0950
       8    C2      19.763884   19.172771   23.478255 C.3        1 MOL1        -0.1415
       9    H6      20.801750   19.526271   23.418905 H          1 MOL1         0.0976
      10    H7      19.803452   18.095202   23.679249 H          1 MOL1         0.0976
      11    C3      19.038140   19.418980   22.133085 C.3        1 MOL1        -0.1375
      12    H8      18.905686   20.498267   21.981674 H          1 MOL1         0.0976
      13    H9      18.027243   18.991022   22.181503 H          1 MOL1         0.0976
      14    C4      19.778281   18.851522   20.894036 C.3        1 MOL1        -0.1375
      15    H10     19.192713   19.126032   20.005643 H          1 MOL1         0.0976
      16    H11     20.749429   19.350931   20.772848 H          1 MOL1         0.0976
      17    C5      19.962891   17.311926   20.892284 C.3        1 MOL1        -0.1350
      18    H12     19.865422   16.948872   19.859490 H          1 MOL1         0.0976
      19    H13     19.154619   16.829113   21.459017 H          1 MOL1         0.0976
      20    C6      21.341239   16.858491   21.427835 C.3        1 MOL1        -0.2365
      21    H14     22.154124   17.276268   20.819774 H          1 MOL1         0.0987
      22    H15     21.426682   15.764769   21.390597 H          1 MOL1         0.0987
      23    H16     21.503700   17.168902   22.465800 H          1 MOL1         0.0987
@<TRIPOS>BOND
    1     1     2    1
    2     1     3    1
    3     1     4    1
    4     1     5    1
    5     5     6    1
    6     5     7    1
    7     5     8    1
    8     8     9    1
    9     8    10    1
   10     8    11    1
   11    11    12    1
   12    11    13    1
   13    11    14    1
   14    14    15    1
   15    14    16    1
   16    14    17    1
   17    17    18    1
   18    17    19    1
   19    17    20    1
   20    20    21    1
   21    20    22    1
   22    20    23    1
@<TRIPOS>SUBSTRUCTURE
       1 MOL1            1 RESIDUE      1      MOL     
@<SCITEGIC>MOL_PROPERTY
VConf Rank
SciTegic.value.IntegerValue
213

@<SCITEGIC>MOL_PROPERTY
Conf_Id
SciTegic.value.IntegerValue
3

@<SCITEGIC>MOL_PROPERTY
Delta U+W
SciTegic.value.DoubleValue
3.283

@<SCITEGIC>MOL_PROPERTY
U+W
SciTegic.value.DoubleValue
-5.099

@<SCITEGIC>MOL_PROPERTY
Grad RMS
SciTegic.value.DoubleValue
0.000000

@<SCITEGIC>MOL_PROPERTY
U
SciTegic.value.DoubleValue
50.701

@<SCITEGIC>MOL_PROPERTY
W
SciTegic.value.DoubleValue
-55.800

@<SCITEGIC>MOL_PROPERTY
W(PB)
SciTegic.value.DoubleValue
-57.867

@<SCITEGIC>MOL_PROPERTY
W(SA)
SciTegic.value.DoubleValue
2.067

@<SCITEGIC>MOL_PROPERTY
Valence
SciTegic.value.DoubleValue
4.880

@<SCITEGIC>MOL_PROPERTY
Coulomb
SciTegic.value.DoubleValue
45.095

@<SCITEGIC>MOL_PROPERTY
VdW
SciTegic.value.DoubleValue
0.726

@<SCITEGIC>MOL_PROPERTY
VdW6
SciTegic.value.DoubleValue
-6.620

@<SCITEGIC>MOL_PROPERTY
VdW12
SciTegic.value.DoubleValue
7.346

@<SCITEGIC>MOL_PROPERTY
Bond
SciTegic.value.DoubleValue
0.222

@<SCITEGIC>MOL_PROPERTY
Angle
SciTegic.value.DoubleValue
1.260

@<SCITEGIC>MOL_PROPERTY
Pdih
SciTegic.value.DoubleValue
3.398

@<SCITEGIC>MOL_PROPERTY
Idih
SciTegic.value.DoubleValue
0.000

@<SCITEGIC>MOL_PROPERTY
Tether
SciTegic.value.DoubleValue
0.000

@<TRIPOS>MOLECULE
guest-2_confgen4.mol2 : confsearch ligand conformer 214
          23          22           1
SMALL
USER_CHARGES
 
@<TRIPOS>ATOM
       1    N1      17.367478   18.887134   24.168890 N.4        1 MOL1        -0.5940
       2    H1      17.340222   18.069316   24.786129 H          1 MOL1         0.3649
       3    H2      16.512226   19.424634   24.346296 H          1 MOL1         0.3649
       4    H3      18.155842   19.468125   24.469772 H          1 MOL1         0.3649
       5    C1      17.490408   18.488655   22.711359 C.3        1 MOL1         0.0207
       6    H4      17.482788   19.400349   22.108660 H          1 MOL1         0.0950
       7    H5      16.604233   17.903639   22.450636 H          1 MOL1         0.0950
       8    C2      18.756526   17.665120   22.398289 C.3        1 MOL1        -0.1415
       9    H6      18.725208   16.729088   22.971584 H          1 MOL1         0.0976
      10    H7      18.735401   17.375395   21.339293 H          1 MOL1         0.0976
      11    C3      20.085177   18.404050   22.698818 C.3        1 MOL1        -0.1375
      12    H8      20.912901   17.716904   22.480696 H          1 MOL1         0.0976
      13    H9      20.152034   18.632343   23.770807 H          1 MOL1         0.0976
      14    C4      20.260215   19.704337   21.873564 C.3        1 MOL1        -0.1375
      15    H10     20.220744   19.470126   20.800831 H          1 MOL1         0.0976
      16    H11     19.419991   20.382375   22.072669 H          1 MOL1         0.0976
      17    C5      21.573180   20.461644   22.188296 C.3        1 MOL1        -0.1350
      18    H12     21.613202   20.708282   23.258480 H          1 MOL1         0.0976
      19    H13     21.562688   21.421187   21.652544 H          1 MOL1         0.0976
      20    C6      22.846325   19.682854   21.785886 C.3        1 MOL1        -0.2365
      21    H14     22.815339   19.395337   20.726933 H          1 MOL1         0.0987
      22    H15     22.970304   18.773217   22.386250 H          1 MOL1         0.0987
      23    H16     23.739528   20.302257   21.939062 H          1 MOL1         0.0987
@<TRIPOS>BOND
    1     1     2    1
    2     1     3    1
    3     1     4    1
    4     1     5    1
    5     5     6    1
    6     5     7    1
    7     5     8    1
    8     8     9    1
    9     8    10    1
   10     8    11    1
   11    11    12    1
   12    11    13    1
   13    11    14    1
   14    14    15    1
   15    14    16    1
   16    14    17    1
   17    17    18    1
   18    17    19    1
   19    17    20    1
   20    20    21    1
   21    20    22    1
   22    20    23    1
@<TRIPOS>SUBSTRUCTURE
       1 MOL1            1 RESIDUE      1      MOL     
@<SCITEGIC>MOL_PROPERTY
VConf Rank
SciTegic.value.IntegerValue
214

@<SCITEGIC>MOL_PROPERTY
Conf_Id
SciTegic.value.IntegerValue
83

@<SCITEGIC>MOL_PROPERTY
Delta U+W
SciTegic.value.DoubleValue
1.229

@<SCITEGIC>MOL_PROPERTY
U+W
SciTegic.value.DoubleValue
-7.154

@<SCITEGIC>MOL_PROPERTY
Grad RMS
SciTegic.value.DoubleValue
0.000000

@<SCITEGIC>MOL_PROPERTY
U
SciTegic.value.DoubleValue
48.727

@<SCITEGIC>MOL_PROPERTY
W
SciTegic.value.DoubleValue
-55.880

@<SCITEGIC>MOL_PROPERTY
W(PB)
SciTegic.value.DoubleValue
-57.960

@<SCITEGIC>MOL_PROPERTY
W(SA)
SciTegic.value.DoubleValue
2.080

@<SCITEGIC>MOL_PROPERTY
Valence
SciTegic.value.DoubleValue
2.671

@<SCITEGIC>MOL_PROPERTY
Coulomb
SciTegic.value.DoubleValue
45.371

@<SCITEGIC>MOL_PROPERTY
VdW
SciTegic.value.DoubleValue
0.684

@<SCITEGIC>MOL_PROPERTY
VdW6
SciTegic.value.DoubleValue
-6.511

@<SCITEGIC>MOL_PROPERTY
VdW12
SciTegic.value.DoubleValue
7.195

@<SCITEGIC>MOL_PROPERTY
Bond
SciTegic.value.DoubleValue
0.203

@<SCITEGIC>MOL_PROPERTY
Angle
SciTegic.value.DoubleValue
0.915

@<SCITEGIC>MOL_PROPERTY
Pdih
SciTegic.value.DoubleValue
1.554

@<SCITEGIC>MOL_PROPERTY
Idih
SciTegic.value.DoubleValue
0.000

@<SCITEGIC>MOL_PROPERTY
Tether
SciTegic.value.DoubleValue
0.000

@<TRIPOS>MOLECULE
guest-2_confgen4.mol2 : confsearch ligand conformer 215
          23          22           1
SMALL
USER_CHARGES
 
@<TRIPOS>ATOM
       1    N1      17.138767   18.558186   21.315818 N.4        1 MOL1        -0.5940
       2    H1      16.980320   17.577721   21.062568 H          1 MOL1         0.3649
       3    H2      17.943239   18.885632   20.772491 H          1 MOL1         0.3649
       4    H3      16.321547   19.086692   20.992293 H          1 MOL1         0.3649
       5    C1      17.364370   18.725539   22.805580 C.3        1 MOL1         0.0207
       6    H4      16.458738   18.390872   23.318761 H          1 MOL1         0.0950
       7    H5      17.495171   19.790941   23.011254 H          1 MOL1         0.0950
       8    C2      18.576536   17.936556   23.341712 C.3        1 MOL1        -0.1415
       9    H6      18.631027   18.071194   24.430180 H          1 MOL1         0.0976
      10    H7      18.407701   16.864442   23.174764 H          1 MOL1         0.0976
      11    C3      19.930701   18.345142   22.708511 C.3        1 MOL1        -0.1375
      12    H8      19.914889   18.143643   21.629207 H          1 MOL1         0.0976
      13    H9      20.711255   17.697764   23.128645 H          1 MOL1         0.0976
      14    C4      20.298356   19.829779   22.959734 C.3        1 MOL1        -0.1375
      15    H10     19.506383   20.477420   22.561370 H          1 MOL1         0.0976
      16    H11     20.340951   20.022864   24.040509 H          1 MOL1         0.0976
      17    C5      21.637179   20.251767   22.307106 C.3        1 MOL1        -0.1350
      18    H12     21.762972   21.336351   22.432471 H          1 MOL1         0.0976
      19    H13     21.596508   20.070871   21.223894 H          1 MOL1         0.0976
      20    C6      22.868891   19.536903   22.908102 C.3        1 MOL1        -0.2365
      21    H14     22.913904   19.675067   23.996171 H          1 MOL1         0.0987
      22    H15     23.794736   19.942568   22.480104 H          1 MOL1         0.0987
      23    H16     22.853798   18.460402   22.697961 H          1 MOL1         0.0987
@<TRIPOS>BOND
    1     1     2    1
    2     1     3    1
    3     1     4    1
    4     1     5    1
    5     5     6    1
    6     5     7    1
    7     5     8    1
    8     8     9    1
    9     8    10    1
   10     8    11    1
   11    11    12    1
   12    11    13    1
   13    11    14    1
   14    14    15    1
   15    14    16    1
   16    14    17    1
   17    17    18    1
   18    17    19    1
   19    17    20    1
   20    20    21    1
   21    20    22    1
   22    20    23    1
@<TRIPOS>SUBSTRUCTURE
       1 MOL1            1 RESIDUE      1      MOL     
@<SCITEGIC>MOL_PROPERTY
VConf Rank
SciTegic.value.IntegerValue
215

@<SCITEGIC>MOL_PROPERTY
Conf_Id
SciTegic.value.IntegerValue
50

@<SCITEGIC>MOL_PROPERTY
Delta U+W
SciTegic.value.DoubleValue
1.252

@<SCITEGIC>MOL_PROPERTY
U+W
SciTegic.value.DoubleValue
-7.130

@<SCITEGIC>MOL_PROPERTY
Grad RMS
SciTegic.value.DoubleValue
0.000000

@<SCITEGIC>MOL_PROPERTY
U
SciTegic.value.DoubleValue
48.727

@<SCITEGIC>MOL_PROPERTY
W
SciTegic.value.DoubleValue
-55.857

@<SCITEGIC>MOL_PROPERTY
W(PB)
SciTegic.value.DoubleValue
-57.937

@<SCITEGIC>MOL_PROPERTY
W(SA)
SciTegic.value.DoubleValue
2.080

@<SCITEGIC>MOL_PROPERTY
Valence
SciTegic.value.DoubleValue
2.671

@<SCITEGIC>MOL_PROPERTY
Coulomb
SciTegic.value.DoubleValue
45.371

@<SCITEGIC>MOL_PROPERTY
VdW
SciTegic.value.DoubleValue
0.684

@<SCITEGIC>MOL_PROPERTY
VdW6
SciTegic.value.DoubleValue
-6.511

@<SCITEGIC>MOL_PROPERTY
VdW12
SciTegic.value.DoubleValue
7.196

@<SCITEGIC>MOL_PROPERTY
Bond
SciTegic.value.DoubleValue
0.203

@<SCITEGIC>MOL_PROPERTY
Angle
SciTegic.value.DoubleValue
0.915

@<SCITEGIC>MOL_PROPERTY
Pdih
SciTegic.value.DoubleValue
1.554

@<SCITEGIC>MOL_PROPERTY
Idih
SciTegic.value.DoubleValue
0.000

@<SCITEGIC>MOL_PROPERTY
Tether
SciTegic.value.DoubleValue
0.000

@<TRIPOS>MOLECULE
guest-2_confgen4.mol2 : confsearch ligand conformer 216
          23          22           1
SMALL
USER_CHARGES
 
@<TRIPOS>ATOM
       1    N1      21.305606   16.385835   21.777218 N.4        1 MOL1        -0.5940
       2    H1      21.870185   17.114923   21.330884 H          1 MOL1         0.3649
       3    H2      21.321876   15.571101   21.154423 H          1 MOL1         0.3649
       4    H3      21.789044   16.112867   22.638845 H          1 MOL1         0.3649
       5    C1      19.890557   16.857594   22.049838 C.3        1 MOL1         0.0207
       6    H4      19.340067   16.019309   22.485513 H          1 MOL1         0.0950
       7    H5      19.426223   17.108907   21.092421 H          1 MOL1         0.0950
       8    C2      19.810275   18.069253   22.998624 C.3        1 MOL1        -0.1415
       9    H6      18.754443   18.262602   23.218849 H          1 MOL1         0.0976
      10    H7      20.282323   17.813694   23.956552 H          1 MOL1         0.0976
      11    C3      20.475805   19.337287   22.405466 C.3        1 MOL1        -0.1375
      12    H8      20.075911   19.546132   21.403556 H          1 MOL1         0.0976
      13    H9      21.547255   19.137977   22.270340 H          1 MOL1         0.0976
      14    C4      20.327341   20.589700   23.308530 C.3        1 MOL1        -0.1375
      15    H10     20.263196   20.293432   24.364609 H          1 MOL1         0.0976
      16    H11     21.247840   21.183838   23.223824 H          1 MOL1         0.0976
      17    C5      19.139974   21.516359   22.941556 C.3        1 MOL1        -0.1350
      18    H12     19.267118   21.889058   21.915542 H          1 MOL1         0.0976
      19    H13     19.174375   22.401188   23.592484 H          1 MOL1         0.0976
      20    C6      17.750707   20.855737   23.077750 C.3        1 MOL1        -0.2365
      21    H14     17.614874   20.420763   24.076340 H          1 MOL1         0.0987
      22    H15     17.609590   20.066201   22.329423 H          1 MOL1         0.0987
      23    H16     16.956653   21.597891   22.924211 H          1 MOL1         0.0987
@<TRIPOS>BOND
    1     1     2    1
    2     1     3    1
    3     1     4    1
    4     1     5    1
    5     5     6    1
    6     5     7    1
    7     5     8    1
    8     8     9    1
    9     8    10    1
   10     8    11    1
   11    11    12    1
   12    11    13    1
   13    11    14    1
   14    14    15    1
   15    14    16    1
   16    14    17    1
   17    17    18    1
   18    17    19    1
   19    17    20    1
   20    20    21    1
   21    20    22    1
   22    20    23    1
@<TRIPOS>SUBSTRUCTURE
       1 MOL1            1 RESIDUE      1      MOL     
@<SCITEGIC>MOL_PROPERTY
VConf Rank
SciTegic.value.IntegerValue
216

@<SCITEGIC>MOL_PROPERTY
Conf_Id
SciTegic.value.IntegerValue
55

@<SCITEGIC>MOL_PROPERTY
Delta U+W
SciTegic.value.DoubleValue
3.232

@<SCITEGIC>MOL_PROPERTY
U+W
SciTegic.value.DoubleValue
-5.150

@<SCITEGIC>MOL_PROPERTY
Grad RMS
SciTegic.value.DoubleValue
0.000000

@<SCITEGIC>MOL_PROPERTY
U
SciTegic.value.DoubleValue
50.625

@<SCITEGIC>MOL_PROPERTY
W
SciTegic.value.DoubleValue
-55.776

@<SCITEGIC>MOL_PROPERTY
W(PB)
SciTegic.value.DoubleValue
-57.839

@<SCITEGIC>MOL_PROPERTY
W(SA)
SciTegic.value.DoubleValue
2.064

@<SCITEGIC>MOL_PROPERTY
Valence
SciTegic.value.DoubleValue
4.837

@<SCITEGIC>MOL_PROPERTY
Coulomb
SciTegic.value.DoubleValue
45.097

@<SCITEGIC>MOL_PROPERTY
VdW
SciTegic.value.DoubleValue
0.692

@<SCITEGIC>MOL_PROPERTY
VdW6
SciTegic.value.DoubleValue
-6.655

@<SCITEGIC>MOL_PROPERTY
VdW12
SciTegic.value.DoubleValue
7.347

@<SCITEGIC>MOL_PROPERTY
Bond
SciTegic.value.DoubleValue
0.223

@<SCITEGIC>MOL_PROPERTY
Angle
SciTegic.value.DoubleValue
1.167

@<SCITEGIC>MOL_PROPERTY
Pdih
SciTegic.value.DoubleValue
3.447

@<SCITEGIC>MOL_PROPERTY
Idih
SciTegic.value.DoubleValue
0.000

@<SCITEGIC>MOL_PROPERTY
Tether
SciTegic.value.DoubleValue
0.000

@<TRIPOS>MOLECULE
guest-2_confgen4.mol2 : confsearch ligand conformer 217
          23          22           1
SMALL
USER_CHARGES
 
@<TRIPOS>ATOM
       1    N1      22.337404   18.428609   20.792279 N.4        1 MOL1        -0.5940
       2    H1      22.430931   17.556698   20.261382 H          1 MOL1         0.3649
       3    H2      23.280208   18.694543   21.096249 H          1 MOL1         0.3649
       4    H3      22.021715   19.149133   20.135055 H          1 MOL1         0.3649
       5    C1      21.389343   18.277501   21.964454 C.3        1 MOL1         0.0207
       6    H4      21.368134   19.227953   22.500675 H          1 MOL1         0.0950
       7    H5      21.801449   17.517785   22.634081 H          1 MOL1         0.0950
       8    C2      19.964850   17.871021   21.538568 C.3        1 MOL1        -0.1415
       9    H6      19.555024   18.601654   20.828581 H          1 MOL1         0.0976
      10    H7      20.030362   16.917092   20.998432 H          1 MOL1         0.0976
      11    C3      18.999050   17.693110   22.737335 C.3        1 MOL1        -0.1375
      12    H8      19.531348   17.240709   23.585624 H          1 MOL1         0.0976
      13    H9      18.227499   16.965685   22.449134 H          1 MOL1         0.0976
      14    C4      18.274401   18.986987   23.191471 C.3        1 MOL1        -0.1375
      15    H10     17.661934   19.372772   22.364824 H          1 MOL1         0.0976
      16    H11     17.571021   18.721114   23.992726 H          1 MOL1         0.0976
      17    C5      19.212384   20.105947   23.700017 C.3        1 MOL1        -0.1350
      18    H12     19.816462   20.493635   22.869535 H          1 MOL1         0.0976
      19    H13     19.907750   19.699910   24.447866 H          1 MOL1         0.0976
      20    C6      18.418904   21.275508   24.320660 C.3        1 MOL1        -0.2365
      21    H14     17.828384   20.939308   25.182907 H          1 MOL1         0.0987
      22    H15     17.732200   21.719124   23.587931 H          1 MOL1         0.0987
      23    H16     19.098882   22.064993   24.666164 H          1 MOL1         0.0987
@<TRIPOS>BOND
    1     1     2    1
    2     1     3    1
    3     1     4    1
    4     1     5    1
    5     5     6    1
    6     5     7    1
    7     5     8    1
    8     8     9    1
    9     8    10    1
   10     8    11    1
   11    11    12    1
   12    11    13    1
   13    11    14    1
   14    14    15    1
   15    14    16    1
   16    14    17    1
   17    17    18    1
   18    17    19    1
   19    17    20    1
   20    20    21    1
   21    20    22    1
   22    20    23    1
@<TRIPOS>SUBSTRUCTURE
       1 MOL1            1 RESIDUE      1      MOL     
@<SCITEGIC>MOL_PROPERTY
VConf Rank
SciTegic.value.IntegerValue
217

@<SCITEGIC>MOL_PROPERTY
Conf_Id
SciTegic.value.IntegerValue
93

@<SCITEGIC>MOL_PROPERTY
Delta U+W
SciTegic.value.DoubleValue
2.589

@<SCITEGIC>MOL_PROPERTY
U+W
SciTegic.value.DoubleValue
-5.793

@<SCITEGIC>MOL_PROPERTY
Grad RMS
SciTegic.value.DoubleValue
0.000000

@<SCITEGIC>MOL_PROPERTY
U
SciTegic.value.DoubleValue
50.122

@<SCITEGIC>MOL_PROPERTY
W
SciTegic.value.DoubleValue
-55.915

@<SCITEGIC>MOL_PROPERTY
W(PB)
SciTegic.value.DoubleValue
-58.031

@<SCITEGIC>MOL_PROPERTY
W(SA)
SciTegic.value.DoubleValue
2.115

@<SCITEGIC>MOL_PROPERTY
Valence
SciTegic.value.DoubleValue
4.132

@<SCITEGIC>MOL_PROPERTY
Coulomb
SciTegic.value.DoubleValue
45.536

@<SCITEGIC>MOL_PROPERTY
VdW
SciTegic.value.DoubleValue
0.454

@<SCITEGIC>MOL_PROPERTY
VdW6
SciTegic.value.DoubleValue
-6.262

@<SCITEGIC>MOL_PROPERTY
VdW12
SciTegic.value.DoubleValue
6.715

@<SCITEGIC>MOL_PROPERTY
Bond
SciTegic.value.DoubleValue
0.182

@<SCITEGIC>MOL_PROPERTY
Angle
SciTegic.value.DoubleValue
1.157

@<SCITEGIC>MOL_PROPERTY
Pdih
SciTegic.value.DoubleValue
2.794

@<SCITEGIC>MOL_PROPERTY
Idih
SciTegic.value.DoubleValue
0.000

@<SCITEGIC>MOL_PROPERTY
Tether
SciTegic.value.DoubleValue
0.000

@<TRIPOS>MOLECULE
guest-2_confgen4.mol2 : confsearch ligand conformer 218
          23          22           1
SMALL
USER_CHARGES
 
@<TRIPOS>ATOM
       1    N1      20.542187   16.013960   23.250240 N.4        1 MOL1        -0.5940
       2    H1      21.366299   16.122205   22.650341 H          1 MOL1         0.3649
       3    H2      20.004350   15.223667   22.878531 H          1 MOL1         0.3649
       4    H3      20.878951   15.734759   24.177313 H          1 MOL1         0.3649
       5    C1      19.714016   17.281415   23.308015 C.3        1 MOL1         0.0207
       6    H4      18.842292   17.084705   23.937937 H          1 MOL1         0.0950
       7    H5      19.361805   17.495806   22.297409 H          1 MOL1         0.0950
       8    C2      20.494548   18.485930   23.869885 C.3        1 MOL1        -0.1415
       9    H6      20.836129   18.228215   24.881282 H          1 MOL1         0.0976
      10    H7      21.399019   18.666918   23.274033 H          1 MOL1         0.0976
      11    C3      19.642868   19.777981   23.951799 C.3        1 MOL1        -0.1375
      12    H8      20.042569   20.399387   24.765182 H          1 MOL1         0.0976
      13    H9      18.612820   19.531855   24.245105 H          1 MOL1         0.0976
      14    C4      19.638427   20.641590   22.663531 C.3        1 MOL1        -0.1375
      15    H10     19.064771   21.556306   22.867623 H          1 MOL1         0.0976
      16    H11     20.662954   20.968958   22.438887 H          1 MOL1         0.0976
      17    C5      19.039792   19.942284   21.421311 C.3        1 MOL1        -0.1350
      18    H12     18.060389   19.510746   21.670754 H          1 MOL1         0.0976
      19    H13     19.690255   19.115476   21.107939 H          1 MOL1         0.0976
      20    C6      18.881557   20.920967   20.238170 C.3        1 MOL1        -0.2365
      21    H14     18.466043   20.406106   19.362216 H          1 MOL1         0.0987
      22    H15     19.849782   21.350070   19.948927 H          1 MOL1         0.0987
      23    H16     18.204874   21.746293   20.495370 H          1 MOL1         0.0987
@<TRIPOS>BOND
    1     1     2    1
    2     1     3    1
    3     1     4    1
    4     1     5    1
    5     5     6    1
    6     5     7    1
    7     5     8    1
    8     8     9    1
    9     8    10    1
   10     8    11    1
   11    11    12    1
   12    11    13    1
   13    11    14    1
   14    14    15    1
   15    14    16    1
   16    14    17    1
   17    17    18    1
   18    17    19    1
   19    17    20    1
   20    20    21    1
   21    20    22    1
   22    20    23    1
@<TRIPOS>SUBSTRUCTURE
       1 MOL1            1 RESIDUE      1      MOL     
@<SCITEGIC>MOL_PROPERTY
VConf Rank
SciTegic.value.IntegerValue
218

@<SCITEGIC>MOL_PROPERTY
Conf_Id
SciTegic.value.IntegerValue
70

@<SCITEGIC>MOL_PROPERTY
Delta U+W
SciTegic.value.DoubleValue
2.599

@<SCITEGIC>MOL_PROPERTY
U+W
SciTegic.value.DoubleValue
-5.783

@<SCITEGIC>MOL_PROPERTY
Grad RMS
SciTegic.value.DoubleValue
0.000000

@<SCITEGIC>MOL_PROPERTY
U
SciTegic.value.DoubleValue
50.122

@<SCITEGIC>MOL_PROPERTY
W
SciTegic.value.DoubleValue
-55.906

@<SCITEGIC>MOL_PROPERTY
W(PB)
SciTegic.value.DoubleValue
-58.010

@<SCITEGIC>MOL_PROPERTY
W(SA)
SciTegic.value.DoubleValue
2.105

@<SCITEGIC>MOL_PROPERTY
Valence
SciTegic.value.DoubleValue
4.132

@<SCITEGIC>MOL_PROPERTY
Coulomb
SciTegic.value.DoubleValue
45.536

@<SCITEGIC>MOL_PROPERTY
VdW
SciTegic.value.DoubleValue
0.454

@<SCITEGIC>MOL_PROPERTY
VdW6
SciTegic.value.DoubleValue
-6.262

@<SCITEGIC>MOL_PROPERTY
VdW12
SciTegic.value.DoubleValue
6.715

@<SCITEGIC>MOL_PROPERTY
Bond
SciTegic.value.DoubleValue
0.182

@<SCITEGIC>MOL_PROPERTY
Angle
SciTegic.value.DoubleValue
1.157

@<SCITEGIC>MOL_PROPERTY
Pdih
SciTegic.value.DoubleValue
2.794

@<SCITEGIC>MOL_PROPERTY
Idih
SciTegic.value.DoubleValue
0.000

@<SCITEGIC>MOL_PROPERTY
Tether
SciTegic.value.DoubleValue
0.000

@<TRIPOS>MOLECULE
guest-2_confgen4.mol2 : confsearch ligand conformer 219
          23          22           1
SMALL
USER_CHARGES
 
@<TRIPOS>ATOM
       1    N1      20.053626   16.250257   23.323920 N.4        1 MOL1        -0.5940
       2    H1      20.859857   15.657437   23.102418 H          1 MOL1         0.3649
       3    H2      19.307819   15.629437   23.655760 H          1 MOL1         0.3649
       4    H3      20.323237   16.845817   24.112643 H          1 MOL1         0.3649
       5    C1      19.613385   17.071271   22.127943 C.3        1 MOL1         0.0207
       6    H4      18.734500   17.652159   22.419622 H          1 MOL1         0.0950
       7    H5      19.314430   16.376220   21.338625 H          1 MOL1         0.0950
       8    C2      20.706986   18.016572   21.591077 C.3        1 MOL1        -0.1415
       9    H6      21.570774   17.419942   21.269180 H          1 MOL1         0.0976
      10    H7      20.333214   18.513004   20.686497 H          1 MOL1         0.0976
      11    C3      21.177210   19.082608   22.615511 C.3        1 MOL1        -0.1375
      12    H8      21.922315   19.731200   22.134522 H          1 MOL1         0.0976
      13    H9      21.705778   18.584556   23.439400 H          1 MOL1         0.0976
      14    C4      20.046281   19.963636   23.206771 C.3        1 MOL1        -0.1375
      15    H10     19.340522   19.341361   23.772961 H          1 MOL1         0.0976
      16    H11     20.491395   20.655209   23.935426 H          1 MOL1         0.0976
      17    C5      19.279707   20.782286   22.141376 C.3        1 MOL1        -0.1350
      18    H12     18.767084   20.108257   21.442204 H          1 MOL1         0.0976
      19    H13     19.989235   21.376709   21.548970 H          1 MOL1         0.0976
      20    C6      18.238130   21.721413   22.786001 C.3        1 MOL1        -0.2365
      21    H14     17.702203   22.292201   22.016588 H          1 MOL1         0.0987
      22    H15     18.718876   22.439012   23.463591 H          1 MOL1         0.0987
      23    H16     17.496251   21.152192   23.361159 H          1 MOL1         0.0987
@<TRIPOS>BOND
    1     1     2    1
    2     1     3    1
    3     1     4    1
    4     1     5    1
    5     5     6    1
    6     5     7    1
    7     5     8    1
    8     8     9    1
    9     8    10    1
   10     8    11    1
   11    11    12    1
   12    11    13    1
   13    11    14    1
   14    14    15    1
   15    14    16    1
   16    14    17    1
   17    17    18    1
   18    17    19    1
   19    17    20    1
   20    20    21    1
   21    20    22    1
   22    20    23    1
@<TRIPOS>SUBSTRUCTURE
       1 MOL1            1 RESIDUE      1      MOL     
@<SCITEGIC>MOL_PROPERTY
VConf Rank
SciTegic.value.IntegerValue
219

@<SCITEGIC>MOL_PROPERTY
Conf_Id
SciTegic.value.IntegerValue
72

@<SCITEGIC>MOL_PROPERTY
Delta U+W
SciTegic.value.DoubleValue
1.051

@<SCITEGIC>MOL_PROPERTY
U+W
SciTegic.value.DoubleValue
-7.331

@<SCITEGIC>MOL_PROPERTY
Grad RMS
SciTegic.value.DoubleValue
0.000000

@<SCITEGIC>MOL_PROPERTY
U
SciTegic.value.DoubleValue
48.590

@<SCITEGIC>MOL_PROPERTY
W
SciTegic.value.DoubleValue
-55.922

@<SCITEGIC>MOL_PROPERTY
W(PB)
SciTegic.value.DoubleValue
-58.012

@<SCITEGIC>MOL_PROPERTY
W(SA)
SciTegic.value.DoubleValue
2.090

@<SCITEGIC>MOL_PROPERTY
Valence
SciTegic.value.DoubleValue
2.601

@<SCITEGIC>MOL_PROPERTY
Coulomb
SciTegic.value.DoubleValue
45.520

@<SCITEGIC>MOL_PROPERTY
VdW
SciTegic.value.DoubleValue
0.469

@<SCITEGIC>MOL_PROPERTY
VdW6
SciTegic.value.DoubleValue
-6.867

@<SCITEGIC>MOL_PROPERTY
VdW12
SciTegic.value.DoubleValue
7.336

@<SCITEGIC>MOL_PROPERTY
Bond
SciTegic.value.DoubleValue
0.205

@<SCITEGIC>MOL_PROPERTY
Angle
SciTegic.value.DoubleValue
0.962

@<SCITEGIC>MOL_PROPERTY
Pdih
SciTegic.value.DoubleValue
1.434

@<SCITEGIC>MOL_PROPERTY
Idih
SciTegic.value.DoubleValue
0.000

@<SCITEGIC>MOL_PROPERTY
Tether
SciTegic.value.DoubleValue
0.000

@<TRIPOS>MOLECULE
guest-2_confgen4.mol2 : confsearch ligand conformer 220
          23          22           1
SMALL
USER_CHARGES
 
@<TRIPOS>ATOM
       1    N1      19.861396   20.173725   25.502062 N.4        1 MOL1        -0.5940
       2    H1      20.526732   20.001602   26.263416 H          1 MOL1         0.3649
       3    H2      18.948809   20.343320   25.937039 H          1 MOL1         0.3649
       4    H3      20.146573   21.047737   25.048808 H          1 MOL1         0.3649
       5    C1      19.814670   19.017970   24.523448 C.3        1 MOL1         0.0207
       6    H4      19.533449   18.117800   25.076584 H          1 MOL1         0.0950
       7    H5      20.821954   18.875579   24.123404 H          1 MOL1         0.0950
       8    C2      18.823876   19.245626   23.366591 C.3        1 MOL1        -0.1415
       9    H6      17.822849   19.424600   23.780887 H          1 MOL1         0.0976
      10    H7      19.097589   20.156185   22.818508 H          1 MOL1         0.0976
      11    C3      18.754421   18.042427   22.393682 C.3        1 MOL1        -0.1375
      12    H8      18.017595   18.257781   21.608406 H          1 MOL1         0.0976
      13    H9      18.362809   17.170407   22.935469 H          1 MOL1         0.0976
      14    C4      20.108627   17.652641   21.741797 C.3        1 MOL1        -0.1375
      15    H10     20.792179   17.279095   22.516085 H          1 MOL1         0.0976
      16    H11     19.939955   16.804696   21.063779 H          1 MOL1         0.0976
      17    C5      20.813311   18.787843   20.956332 C.3        1 MOL1        -0.1350
      18    H12     21.759914   18.400241   20.554590 H          1 MOL1         0.0976
      19    H13     21.087940   19.605980   21.635559 H          1 MOL1         0.0976
      20    C6      19.966870   19.341532   19.787794 C.3        1 MOL1        -0.2365
      21    H14     19.669443   18.538403   19.101164 H          1 MOL1         0.0987
      22    H15     20.541002   20.079530   19.212838 H          1 MOL1         0.0987
      23    H16     19.058202   19.838624   20.149429 H          1 MOL1         0.0987
@<TRIPOS>BOND
    1     1     2    1
    2     1     3    1
    3     1     4    1
    4     1     5    1
    5     5     6    1
    6     5     7    1
    7     5     8    1
    8     8     9    1
    9     8    10    1
   10     8    11    1
   11    11    12    1
   12    11    13    1
   13    11    14    1
   14    14    15    1
   15    14    16    1
   16    14    17    1
   17    17    18    1
   18    17    19    1
   19    17    20    1
   20    20    21    1
   21    20    22    1
   22    20    23    1
@<TRIPOS>SUBSTRUCTURE
       1 MOL1            1 RESIDUE      1      MOL     
@<SCITEGIC>MOL_PROPERTY
VConf Rank
SciTegic.value.IntegerValue
220

@<SCITEGIC>MOL_PROPERTY
Conf_Id
SciTegic.value.IntegerValue
26

@<SCITEGIC>MOL_PROPERTY
Delta U+W
SciTegic.value.DoubleValue
1.076

@<SCITEGIC>MOL_PROPERTY
U+W
SciTegic.value.DoubleValue
-7.306

@<SCITEGIC>MOL_PROPERTY
Grad RMS
SciTegic.value.DoubleValue
0.000000

@<SCITEGIC>MOL_PROPERTY
U
SciTegic.value.DoubleValue
48.641

@<SCITEGIC>MOL_PROPERTY
W
SciTegic.value.DoubleValue
-55.947

@<SCITEGIC>MOL_PROPERTY
W(PB)
SciTegic.value.DoubleValue
-58.031

@<SCITEGIC>MOL_PROPERTY
W(SA)
SciTegic.value.DoubleValue
2.084

@<SCITEGIC>MOL_PROPERTY
Valence
SciTegic.value.DoubleValue
2.922

@<SCITEGIC>MOL_PROPERTY
Coulomb
SciTegic.value.DoubleValue
45.269

@<SCITEGIC>MOL_PROPERTY
VdW
SciTegic.value.DoubleValue
0.449

@<SCITEGIC>MOL_PROPERTY
VdW6
SciTegic.value.DoubleValue
-7.045

@<SCITEGIC>MOL_PROPERTY
VdW12
SciTegic.value.DoubleValue
7.494

@<SCITEGIC>MOL_PROPERTY
Bond
SciTegic.value.DoubleValue
0.220

@<SCITEGIC>MOL_PROPERTY
Angle
SciTegic.value.DoubleValue
1.205

@<SCITEGIC>MOL_PROPERTY
Pdih
SciTegic.value.DoubleValue
1.497

@<SCITEGIC>MOL_PROPERTY
Idih
SciTegic.value.DoubleValue
0.000

@<SCITEGIC>MOL_PROPERTY
Tether
SciTegic.value.DoubleValue
0.000

@<TRIPOS>MOLECULE
guest-2_confgen4.mol2 : confsearch ligand conformer 221
          23          22           1
SMALL
USER_CHARGES
 
@<TRIPOS>ATOM
       1    N1      22.276254   19.801905   24.378176 N.4        1 MOL1        -0.5940
       2    H1      22.560838   20.783720   24.301790 H          1 MOL1         0.3649
       3    H2      23.116223   19.266620   24.622880 H          1 MOL1         0.3649
       4    H3      21.636707   19.734477   25.176360 H          1 MOL1         0.3649
       5    C1      21.639948   19.297070   23.099157 C.3        1 MOL1         0.0207
       6    H4      21.390800   18.242272   23.241495 H          1 MOL1         0.0950
       7    H5      22.382612   19.370651   22.300167 H          1 MOL1         0.0950
       8    C2      20.374517   20.080750   22.703749 C.3        1 MOL1        -0.1415
       9    H6      19.633247   20.018450   23.510639 H          1 MOL1         0.0976
      10    H7      20.628229   21.144036   22.599905 H          1 MOL1         0.0976
      11    C3      19.754035   19.582785   21.374804 C.3        1 MOL1        -0.1375
      12    H8      20.467662   19.765946   20.559635 H          1 MOL1         0.0976
      13    H9      18.872680   20.193934   21.138873 H          1 MOL1         0.0976
      14    C4      19.362425   18.080381   21.361268 C.3        1 MOL1        -0.1375
      15    H10     18.920983   17.842101   20.383762 H          1 MOL1         0.0976
      16    H11     20.270122   17.466071   21.432069 H          1 MOL1         0.0976
      17    C5      18.375238   17.646210   22.474452 C.3        1 MOL1        -0.1350
      18    H12     18.835972   17.776611   23.462804 H          1 MOL1         0.0976
      19    H13     18.183773   16.568935   22.371926 H          1 MOL1         0.0976
      20    C6      17.025871   18.398019   22.424369 C.3        1 MOL1        -0.2365
      21    H14     17.153431   19.467804   22.631366 H          1 MOL1         0.0987
      22    H15     16.333512   17.996163   23.175364 H          1 MOL1         0.0987
      23    H16     16.551899   18.292353   21.439927 H          1 MOL1         0.0987
@<TRIPOS>BOND
    1     1     2    1
    2     1     3    1
    3     1     4    1
    4     1     5    1
    5     5     6    1
    6     5     7    1
    7     5     8    1
    8     8     9    1
    9     8    10    1
   10     8    11    1
   11    11    12    1
   12    11    13    1
   13    11    14    1
   14    14    15    1
   15    14    16    1
   16    14    17    1
   17    17    18    1
   18    17    19    1
   19    17    20    1
   20    20    21    1
   21    20    22    1
   22    20    23    1
@<TRIPOS>SUBSTRUCTURE
       1 MOL1            1 RESIDUE      1      MOL     
@<SCITEGIC>MOL_PROPERTY
VConf Rank
SciTegic.value.IntegerValue
221

@<SCITEGIC>MOL_PROPERTY
Conf_Id
SciTegic.value.IntegerValue
90

@<SCITEGIC>MOL_PROPERTY
Delta U+W
SciTegic.value.DoubleValue
1.131

@<SCITEGIC>MOL_PROPERTY
U+W
SciTegic.value.DoubleValue
-7.251

@<SCITEGIC>MOL_PROPERTY
Grad RMS
SciTegic.value.DoubleValue
0.000000

@<SCITEGIC>MOL_PROPERTY
U
SciTegic.value.DoubleValue
48.641

@<SCITEGIC>MOL_PROPERTY
W
SciTegic.value.DoubleValue
-55.892

@<SCITEGIC>MOL_PROPERTY
W(PB)
SciTegic.value.DoubleValue
-57.962

@<SCITEGIC>MOL_PROPERTY
W(SA)
SciTegic.value.DoubleValue
2.070

@<SCITEGIC>MOL_PROPERTY
Valence
SciTegic.value.DoubleValue
2.922

@<SCITEGIC>MOL_PROPERTY
Coulomb
SciTegic.value.DoubleValue
45.269

@<SCITEGIC>MOL_PROPERTY
VdW
SciTegic.value.DoubleValue
0.450

@<SCITEGIC>MOL_PROPERTY
VdW6
SciTegic.value.DoubleValue
-7.045

@<SCITEGIC>MOL_PROPERTY
VdW12
SciTegic.value.DoubleValue
7.495

@<SCITEGIC>MOL_PROPERTY
Bond
SciTegic.value.DoubleValue
0.220

@<SCITEGIC>MOL_PROPERTY
Angle
SciTegic.value.DoubleValue
1.205

@<SCITEGIC>MOL_PROPERTY
Pdih
SciTegic.value.DoubleValue
1.497

@<SCITEGIC>MOL_PROPERTY
Idih
SciTegic.value.DoubleValue
0.000

@<SCITEGIC>MOL_PROPERTY
Tether
SciTegic.value.DoubleValue
0.000

@<TRIPOS>MOLECULE
guest-2_confgen4.mol2 : confsearch ligand conformer 222
          23          22           1
SMALL
USER_CHARGES
 
@<TRIPOS>ATOM
       1    N1      21.901197   17.328469   22.552747 N.4        1 MOL1        -0.5940
       2    H1      22.101696   16.377803   22.224287 H          1 MOL1         0.3649
       3    H2      21.092682   17.266650   23.178930 H          1 MOL1         0.3649
       4    H3      22.702404   17.624350   23.119400 H          1 MOL1         0.3649
       5    C1      21.644448   18.280041   21.400799 C.3        1 MOL1         0.0207
       6    H4      20.802170   17.892199   20.822126 H          1 MOL1         0.0950
       7    H5      22.529244   18.271727   20.758470 H          1 MOL1         0.0950
       8    C2      21.349050   19.726852   21.846184 C.3        1 MOL1        -0.1415
       9    H6      22.220142   20.122193   22.385344 H          1 MOL1         0.0976
      10    H7      21.232732   20.353635   20.952060 H          1 MOL1         0.0976
      11    C3      20.088477   19.866900   22.736085 C.3        1 MOL1        -0.1375
      12    H8      19.971089   20.923678   23.012763 H          1 MOL1         0.0976
      13    H9      20.240794   19.320022   23.675142 H          1 MOL1         0.0976
      14    C4      18.794795   19.378242   22.036747 C.3        1 MOL1        -0.1375
      15    H10     18.705688   19.874917   21.060713 H          1 MOL1         0.0976
      16    H11     18.858487   18.301346   21.831397 H          1 MOL1         0.0976
      17    C5      17.510985   19.663820   22.852632 C.3        1 MOL1        -0.1350
      18    H12     16.638035   19.386762   22.245152 H          1 MOL1         0.0976
      19    H13     17.422939   20.742701   23.042488 H          1 MOL1         0.0976
      20    C6      17.450987   18.893499   24.191341 C.3        1 MOL1        -0.2365
      21    H14     17.563392   17.813401   24.031058 H          1 MOL1         0.0987
      22    H15     16.485872   19.060086   24.687060 H          1 MOL1         0.0987
      23    H16     18.236944   19.223110   24.882021 H          1 MOL1         0.0987
@<TRIPOS>BOND
    1     1     2    1
    2     1     3    1
    3     1     4    1
    4     1     5    1
    5     5     6    1
    6     5     7    1
    7     5     8    1
    8     8     9    1
    9     8    10    1
   10     8    11    1
   11    11    12    1
   12    11    13    1
   13    11    14    1
   14    14    15    1
   15    14    16    1
   16    14    17    1
   17    17    18    1
   18    17    19    1
   19    17    20    1
   20    20    21    1
   21    20    22    1
   22    20    23    1
@<TRIPOS>SUBSTRUCTURE
       1 MOL1            1 RESIDUE      1      MOL     
@<SCITEGIC>MOL_PROPERTY
VConf Rank
SciTegic.value.IntegerValue
222

@<SCITEGIC>MOL_PROPERTY
Conf_Id
SciTegic.value.IntegerValue
85

@<SCITEGIC>MOL_PROPERTY
Delta U+W
SciTegic.value.DoubleValue
1.193

@<SCITEGIC>MOL_PROPERTY
U+W
SciTegic.value.DoubleValue
-7.189

@<SCITEGIC>MOL_PROPERTY
Grad RMS
SciTegic.value.DoubleValue
0.000000

@<SCITEGIC>MOL_PROPERTY
U
SciTegic.value.DoubleValue
48.775

@<SCITEGIC>MOL_PROPERTY
W
SciTegic.value.DoubleValue
-55.965

@<SCITEGIC>MOL_PROPERTY
W(PB)
SciTegic.value.DoubleValue
-58.038

@<SCITEGIC>MOL_PROPERTY
W(SA)
SciTegic.value.DoubleValue
2.073

@<SCITEGIC>MOL_PROPERTY
Valence
SciTegic.value.DoubleValue
2.602

@<SCITEGIC>MOL_PROPERTY
Coulomb
SciTegic.value.DoubleValue
45.581

@<SCITEGIC>MOL_PROPERTY
VdW
SciTegic.value.DoubleValue
0.592

@<SCITEGIC>MOL_PROPERTY
VdW6
SciTegic.value.DoubleValue
-6.616

@<SCITEGIC>MOL_PROPERTY
VdW12
SciTegic.value.DoubleValue
7.208

@<SCITEGIC>MOL_PROPERTY
Bond
SciTegic.value.DoubleValue
0.196

@<SCITEGIC>MOL_PROPERTY
Angle
SciTegic.value.DoubleValue
0.832

@<SCITEGIC>MOL_PROPERTY
Pdih
SciTegic.value.DoubleValue
1.574

@<SCITEGIC>MOL_PROPERTY
Idih
SciTegic.value.DoubleValue
0.000

@<SCITEGIC>MOL_PROPERTY
Tether
SciTegic.value.DoubleValue
0.000

@<TRIPOS>MOLECULE
guest-2_confgen4.mol2 : confsearch ligand conformer 223
          23          22           1
SMALL
USER_CHARGES
 
@<TRIPOS>ATOM
       1    N1      20.273128   19.480739   24.473157 N.4        1 MOL1        -0.5940
       2    H1      20.770487   19.233949   23.611531 H          1 MOL1         0.3649
       3    H2      20.713743   18.963264   25.241519 H          1 MOL1         0.3649
       4    H3      20.441119   20.476681   24.648922 H          1 MOL1         0.3649
       5    C1      18.792372   19.172628   24.363197 C.3        1 MOL1         0.0207
       6    H4      18.334540   19.462547   25.312853 H          1 MOL1         0.0950
       7    H5      18.667147   18.093403   24.241865 H          1 MOL1         0.0950
       8    C2      18.080818   19.915341   23.213942 C.3        1 MOL1        -0.1415
       9    H6      17.009760   19.952471   23.453304 H          1 MOL1         0.0976
      10    H7      18.416170   20.960571   23.183834 H          1 MOL1         0.0976
      11    C3      18.230624   19.265225   21.812151 C.3        1 MOL1        -0.1375
      12    H8      17.633538   19.861476   21.108248 H          1 MOL1         0.0976
      13    H9      17.773401   18.266018   21.811369 H          1 MOL1         0.0976
      14    C4      19.680127   19.189747   21.267628 C.3        1 MOL1        -0.1375
      15    H10     19.653670   19.353813   20.181295 H          1 MOL1         0.0976
      16    H11     20.281847   20.012583   21.675794 H          1 MOL1         0.0976
      17    C5      20.357371   17.821437   21.524862 C.3        1 MOL1        -0.1350
      18    H12     19.823646   17.041984   20.962968 H          1 MOL1         0.0976
      19    H13     20.283588   17.536049   22.580981 H          1 MOL1         0.0976
      20    C6      21.840148   17.829176   21.096915 C.3        1 MOL1        -0.2365
      21    H14     21.940220   18.060154   20.028269 H          1 MOL1         0.0987
      22    H15     22.299213   16.847551   21.272562 H          1 MOL1         0.0987
      23    H16     22.414128   18.575032   21.661726 H          1 MOL1         0.0987
@<TRIPOS>BOND
    1     1     2    1
    2     1     3    1
    3     1     4    1
    4     1     5    1
    5     5     6    1
    6     5     7    1
    7     5     8    1
    8     8     9    1
    9     8    10    1
   10     8    11    1
   11    11    12    1
   12    11    13    1
   13    11    14    1
   14    14    15    1
   15    14    16    1
   16    14    17    1
   17    17    18    1
   18    17    19    1
   19    17    20    1
   20    20    21    1
   21    20    22    1
   22    20    23    1
@<TRIPOS>SUBSTRUCTURE
       1 MOL1            1 RESIDUE      1      MOL     
@<SCITEGIC>MOL_PROPERTY
VConf Rank
SciTegic.value.IntegerValue
223

@<SCITEGIC>MOL_PROPERTY
Conf_Id
SciTegic.value.IntegerValue
82

@<SCITEGIC>MOL_PROPERTY
Delta U+W
SciTegic.value.DoubleValue
5.994

@<SCITEGIC>MOL_PROPERTY
U+W
SciTegic.value.DoubleValue
-2.388

@<SCITEGIC>MOL_PROPERTY
Grad RMS
SciTegic.value.DoubleValue
0.000000

@<SCITEGIC>MOL_PROPERTY
U
SciTegic.value.DoubleValue
52.836

@<SCITEGIC>MOL_PROPERTY
W
SciTegic.value.DoubleValue
-55.224

@<SCITEGIC>MOL_PROPERTY
W(PB)
SciTegic.value.DoubleValue
-57.261

@<SCITEGIC>MOL_PROPERTY
W(SA)
SciTegic.value.DoubleValue
2.037

@<SCITEGIC>MOL_PROPERTY
Valence
SciTegic.value.DoubleValue
5.785

@<SCITEGIC>MOL_PROPERTY
Coulomb
SciTegic.value.DoubleValue
46.744

@<SCITEGIC>MOL_PROPERTY
VdW
SciTegic.value.DoubleValue
0.307

@<SCITEGIC>MOL_PROPERTY
VdW6
SciTegic.value.DoubleValue
-7.672

@<SCITEGIC>MOL_PROPERTY
VdW12
SciTegic.value.DoubleValue
7.979

@<SCITEGIC>MOL_PROPERTY
Bond
SciTegic.value.DoubleValue
0.217

@<SCITEGIC>MOL_PROPERTY
Angle
SciTegic.value.DoubleValue
1.470

@<SCITEGIC>MOL_PROPERTY
Pdih
SciTegic.value.DoubleValue
4.098

@<SCITEGIC>MOL_PROPERTY
Idih
SciTegic.value.DoubleValue
0.000

@<SCITEGIC>MOL_PROPERTY
Tether
SciTegic.value.DoubleValue
0.000

@<TRIPOS>MOLECULE
guest-2_confgen4.mol2 : confsearch ligand conformer 224
          23          22           1
SMALL
USER_CHARGES
 
@<TRIPOS>ATOM
       1    N1      19.556527   20.782407   21.576739 N.4        1 MOL1        -0.5940
       2    H1      20.347416   21.177728   21.057865 H          1 MOL1         0.3649
       3    H2      18.709343   21.242709   21.226450 H          1 MOL1         0.3649
       4    H3      19.492453   19.790174   21.327652 H          1 MOL1         0.3649
       5    C1      19.719396   20.966328   23.073169 C.3        1 MOL1         0.0207
       6    H4      18.823394   20.587866   23.572243 H          1 MOL1         0.0950
       7    H5      19.781562   22.042238   23.257730 H          1 MOL1         0.0950
       8    C2      20.972687   20.282382   23.656434 C.3        1 MOL1        -0.1415
       9    H6      21.832510   20.458385   22.996434 H          1 MOL1         0.0976
      10    H7      21.215893   20.782926   24.603083 H          1 MOL1         0.0976
      11    C3      20.824076   18.764740   23.947626 C.3        1 MOL1        -0.1375
      12    H8      20.049370   18.603262   24.710008 H          1 MOL1         0.0976
      13    H9      21.762801   18.425129   24.406934 H          1 MOL1         0.0976
      14    C4      20.547261   17.875662   22.708200 C.3        1 MOL1        -0.1375
      15    H10     20.985181   18.330514   21.809834 H          1 MOL1         0.0976
      16    H11     21.072026   16.919216   22.840753 H          1 MOL1         0.0976
      17    C5      19.043923   17.567920   22.502356 C.3        1 MOL1        -0.1350
      18    H12     18.447489   18.487980   22.508622 H          1 MOL1         0.0976
      19    H13     18.678951   16.965170   23.345933 H          1 MOL1         0.0976
      20    C6      18.793245   16.801828   21.186268 C.3        1 MOL1        -0.2365
      21    H14     19.115928   17.388006   20.316189 H          1 MOL1         0.0987
      22    H15     17.725086   16.579387   21.064878 H          1 MOL1         0.0987
      23    H16     19.337922   15.848630   21.175785 H          1 MOL1         0.0987
@<TRIPOS>BOND
    1     1     2    1
    2     1     3    1
    3     1     4    1
    4     1     5    1
    5     5     6    1
    6     5     7    1
    7     5     8    1
    8     8     9    1
    9     8    10    1
   10     8    11    1
   11    11    12    1
   12    11    13    1
   13    11    14    1
   14    14    15    1
   15    14    16    1
   16    14    17    1
   17    17    18    1
   18    17    19    1
   19    17    20    1
   20    20    21    1
   21    20    22    1
   22    20    23    1
@<TRIPOS>SUBSTRUCTURE
       1 MOL1            1 RESIDUE      1      MOL     
@<SCITEGIC>MOL_PROPERTY
VConf Rank
SciTegic.value.IntegerValue
224

@<SCITEGIC>MOL_PROPERTY
Conf_Id
SciTegic.value.IntegerValue
5

@<SCITEGIC>MOL_PROPERTY
Delta U+W
SciTegic.value.DoubleValue
6.087

@<SCITEGIC>MOL_PROPERTY
U+W
SciTegic.value.DoubleValue
-2.295

@<SCITEGIC>MOL_PROPERTY
Grad RMS
SciTegic.value.DoubleValue
0.000000

@<SCITEGIC>MOL_PROPERTY
U
SciTegic.value.DoubleValue
52.836

@<SCITEGIC>MOL_PROPERTY
W
SciTegic.value.DoubleValue
-55.131

@<SCITEGIC>MOL_PROPERTY
W(PB)
SciTegic.value.DoubleValue
-57.202

@<SCITEGIC>MOL_PROPERTY
W(SA)
SciTegic.value.DoubleValue
2.071

@<SCITEGIC>MOL_PROPERTY
Valence
SciTegic.value.DoubleValue
5.785

@<SCITEGIC>MOL_PROPERTY
Coulomb
SciTegic.value.DoubleValue
46.744

@<SCITEGIC>MOL_PROPERTY
VdW
SciTegic.value.DoubleValue
0.307

@<SCITEGIC>MOL_PROPERTY
VdW6
SciTegic.value.DoubleValue
-7.672

@<SCITEGIC>MOL_PROPERTY
VdW12
SciTegic.value.DoubleValue
7.980

@<SCITEGIC>MOL_PROPERTY
Bond
SciTegic.value.DoubleValue
0.217

@<SCITEGIC>MOL_PROPERTY
Angle
SciTegic.value.DoubleValue
1.470

@<SCITEGIC>MOL_PROPERTY
Pdih
SciTegic.value.DoubleValue
4.098

@<SCITEGIC>MOL_PROPERTY
Idih
SciTegic.value.DoubleValue
0.000

@<SCITEGIC>MOL_PROPERTY
Tether
SciTegic.value.DoubleValue
0.000

@<TRIPOS>MOLECULE
guest-2_confgen4.mol2 : confsearch ligand conformer 225
          23          22           1
SMALL
USER_CHARGES
 
@<TRIPOS>ATOM
       1    N1      18.924600   21.259166   19.604997 N.4        1 MOL1        -0.5940
       2    H1      17.985680   21.522734   19.920979 H          1 MOL1         0.3649
       3    H2      18.894669   21.222417   18.580377 H          1 MOL1         0.3649
       4    H3      19.554426   22.027720   19.857042 H          1 MOL1         0.3649
       5    C1      19.373267   19.941019   20.202564 C.3        1 MOL1         0.0207
       6    H4      20.363644   19.708512   19.801828 H          1 MOL1         0.0950
       7    H5      18.677469   19.165715   19.870503 H          1 MOL1         0.0950
       8    C2      19.428797   19.963083   21.740422 C.3        1 MOL1        -0.1415
       9    H6      20.116231   20.753799   22.069516 H          1 MOL1         0.0976
      10    H7      18.436020   20.213026   22.137939 H          1 MOL1         0.0976
      11    C3      19.889736   18.602862   22.309208 C.3        1 MOL1        -0.1375
      12    H8      20.880924   18.353913   21.905014 H          1 MOL1         0.0976
      13    H9      19.202475   17.813742   21.973402 H          1 MOL1         0.0976
      14    C4      19.949167   18.613727   23.853667 C.3        1 MOL1        -0.1375
      15    H10     20.636425   19.402615   24.189592 H          1 MOL1         0.0976
      16    H11     18.958156   18.862615   24.257975 H          1 MOL1         0.0976
      17    C5      20.410099   17.253181   24.422187 C.3        1 MOL1        -0.1350
      18    H12     21.402333   17.000808   24.022496 H          1 MOL1         0.0976
      19    H13     19.724208   16.460864   24.090884 H          1 MOL1         0.0976
      20    C6      20.468229   17.267869   25.964559 C.3        1 MOL1        -0.2365
      21    H14     20.797311   16.293878   26.349387 H          1 MOL1         0.0987
      22    H15     19.481625   17.484090   26.394782 H          1 MOL1         0.0987
      23    H16     21.172841   18.028272   26.325861 H          1 MOL1         0.0987
@<TRIPOS>BOND
    1     1     2    1
    2     1     3    1
    3     1     4    1
    4     1     5    1
    5     5     6    1
    6     5     7    1
    7     5     8    1
    8     8     9    1
    9     8    10    1
   10     8    11    1
   11    11    12    1
   12    11    13    1
   13    11    14    1
   14    14    15    1
   15    14    16    1
   16    14    17    1
   17    17    18    1
   18    17    19    1
   19    17    20    1
   20    20    21    1
   21    20    22    1
   22    20    23    1
@<TRIPOS>SUBSTRUCTURE
       1 MOL1            1 RESIDUE      1      MOL     
@<SCITEGIC>MOL_PROPERTY
VConf Rank
SciTegic.value.IntegerValue
225

@<SCITEGIC>MOL_PROPERTY
Conf_Id
SciTegic.value.IntegerValue
40

@<SCITEGIC>MOL_PROPERTY
Delta U+W
SciTegic.value.DoubleValue
0.000

@<SCITEGIC>MOL_PROPERTY
U+W
SciTegic.value.DoubleValue
-8.382

@<SCITEGIC>MOL_PROPERTY
Grad RMS
SciTegic.value.DoubleValue
0.000000

@<SCITEGIC>MOL_PROPERTY
U
SciTegic.value.DoubleValue
46.604

@<SCITEGIC>MOL_PROPERTY
W
SciTegic.value.DoubleValue
-54.986

@<SCITEGIC>MOL_PROPERTY
W(PB)
SciTegic.value.DoubleValue
-57.162

@<SCITEGIC>MOL_PROPERTY
W(SA)
SciTegic.value.DoubleValue
2.176

@<SCITEGIC>MOL_PROPERTY
Valence
SciTegic.value.DoubleValue
1.727

@<SCITEGIC>MOL_PROPERTY
Coulomb
SciTegic.value.DoubleValue
44.434

@<SCITEGIC>MOL_PROPERTY
VdW
SciTegic.value.DoubleValue
0.443

@<SCITEGIC>MOL_PROPERTY
VdW6
SciTegic.value.DoubleValue
-4.623

@<SCITEGIC>MOL_PROPERTY
VdW12
SciTegic.value.DoubleValue
5.066

@<SCITEGIC>MOL_PROPERTY
Bond
SciTegic.value.DoubleValue
0.112

@<SCITEGIC>MOL_PROPERTY
Angle
SciTegic.value.DoubleValue
0.386

@<SCITEGIC>MOL_PROPERTY
Pdih
SciTegic.value.DoubleValue
1.228

@<SCITEGIC>MOL_PROPERTY
Idih
SciTegic.value.DoubleValue
0.000

@<SCITEGIC>MOL_PROPERTY
Tether
SciTegic.value.DoubleValue
0.000

@<TRIPOS>MOLECULE
guest-2_confgen4.mol2 : confsearch ligand conformer 226
          23          22           1
SMALL
USER_CHARGES
 
@<TRIPOS>ATOM
       1    N1      18.241683   16.214246   24.218995 N.4        1 MOL1        -0.5940
       2    H1      17.638997   16.527415   24.986807 H          1 MOL1         0.3649
       3    H2      19.094885   15.834051   24.641287 H          1 MOL1         0.3649
       4    H3      17.760527   15.431606   23.762933 H          1 MOL1         0.3649
       5    C1      18.543771   17.334349   23.244370 C.3        1 MOL1         0.0207
       6    H4      17.597136   17.670837   22.813012 H          1 MOL1         0.0950
       7    H5      19.160685   16.922347   22.441756 H          1 MOL1         0.0950
       8    C2      19.266834   18.526076   23.900189 C.3        1 MOL1        -0.1415
       9    H6      18.657393   18.898718   24.734255 H          1 MOL1         0.0976
      10    H7      20.218328   18.188917   24.332586 H          1 MOL1         0.0976
      11    C3      19.527253   19.687877   22.912252 C.3        1 MOL1        -0.1375
      12    H8      19.937361   20.534290   23.478255 H          1 MOL1         0.0976
      13    H9      18.572654   20.029450   22.488649 H          1 MOL1         0.0976
      14    C4      20.501254   19.306717   21.768305 C.3        1 MOL1        -0.1375
      15    H10     21.462638   18.985057   22.191973 H          1 MOL1         0.0976
      16    H11     20.102253   18.444436   21.218055 H          1 MOL1         0.0976
      17    C5      20.741521   20.453323   20.756330 C.3        1 MOL1        -0.1350
      18    H12     19.783971   20.772176   20.321325 H          1 MOL1         0.0976
      19    H13     21.343514   20.066011   19.922382 H          1 MOL1         0.0976
      20    C6      21.467515   21.673533   21.367402 C.3        1 MOL1        -0.2365
      21    H14     20.849764   22.174789   22.122639 H          1 MOL1         0.0987
      22    H15     21.698758   22.411961   20.588815 H          1 MOL1         0.0987
      23    H16     22.413300   21.375491   21.838224 H          1 MOL1         0.0987
@<TRIPOS>BOND
    1     1     2    1
    2     1     3    1
    3     1     4    1
    4     1     5    1
    5     5     6    1
    6     5     7    1
    7     5     8    1
    8     8     9    1
    9     8    10    1
   10     8    11    1
   11    11    12    1
   12    11    13    1
   13    11    14    1
   14    14    15    1
   15    14    16    1
   16    14    17    1
   17    17    18    1
   18    17    19    1
   19    17    20    1
   20    20    21    1
   21    20    22    1
   22    20    23    1
@<TRIPOS>SUBSTRUCTURE
       1 MOL1            1 RESIDUE      1      MOL     
@<SCITEGIC>MOL_PROPERTY
VConf Rank
SciTegic.value.IntegerValue
226

@<SCITEGIC>MOL_PROPERTY
Conf_Id
SciTegic.value.IntegerValue
65

@<SCITEGIC>MOL_PROPERTY
Delta U+W
SciTegic.value.DoubleValue
1.004

@<SCITEGIC>MOL_PROPERTY
U+W
SciTegic.value.DoubleValue
-7.378

@<SCITEGIC>MOL_PROPERTY
Grad RMS
SciTegic.value.DoubleValue
0.000000

@<SCITEGIC>MOL_PROPERTY
U
SciTegic.value.DoubleValue
48.047

@<SCITEGIC>MOL_PROPERTY
W
SciTegic.value.DoubleValue
-55.425

@<SCITEGIC>MOL_PROPERTY
W(PB)
SciTegic.value.DoubleValue
-57.542

@<SCITEGIC>MOL_PROPERTY
W(SA)
SciTegic.value.DoubleValue
2.116

@<SCITEGIC>MOL_PROPERTY
Valence
SciTegic.value.DoubleValue
2.583

@<SCITEGIC>MOL_PROPERTY
Coulomb
SciTegic.value.DoubleValue
44.791

@<SCITEGIC>MOL_PROPERTY
VdW
SciTegic.value.DoubleValue
0.673

@<SCITEGIC>MOL_PROPERTY
VdW6
SciTegic.value.DoubleValue
-5.788

@<SCITEGIC>MOL_PROPERTY
VdW12
SciTegic.value.DoubleValue
6.462

@<SCITEGIC>MOL_PROPERTY
Bond
SciTegic.value.DoubleValue
0.177

@<SCITEGIC>MOL_PROPERTY
Angle
SciTegic.value.DoubleValue
0.787

@<SCITEGIC>MOL_PROPERTY
Pdih
SciTegic.value.DoubleValue
1.619

@<SCITEGIC>MOL_PROPERTY
Idih
SciTegic.value.DoubleValue
0.000

@<SCITEGIC>MOL_PROPERTY
Tether
SciTegic.value.DoubleValue
0.000

@<TRIPOS>MOLECULE
guest-2_confgen4.mol2 : confsearch ligand conformer 227
          23          22           1
SMALL
USER_CHARGES
 
@<TRIPOS>ATOM
       1    N1      20.157691   16.286853   20.342045 N.4        1 MOL1        -0.5940
       2    H1      20.819373   15.601459   20.720530 H          1 MOL1         0.3649
       3    H2      20.334703   16.346226   19.333497 H          1 MOL1         0.3649
       4    H3      19.217892   15.893900   20.456936 H          1 MOL1         0.3649
       5    C1      20.292913   17.636230   21.017820 C.3        1 MOL1         0.0207
       6    H4      19.583228   18.319900   20.545100 H          1 MOL1         0.0950
       7    H5      21.304485   18.007028   20.831699 H          1 MOL1         0.0950
       8    C2      20.032874   17.579820   22.535163 C.3        1 MOL1        -0.1415
       9    H6      19.016513   17.208562   22.722678 H          1 MOL1         0.0976
      10    H7      20.720981   16.854144   22.988869 H          1 MOL1         0.0976
      11    C3      20.222090   18.950089   23.228111 C.3        1 MOL1        -0.1375
      12    H8      21.242828   19.314319   23.047003 H          1 MOL1         0.0976
      13    H9      20.132109   18.801876   24.312039 H          1 MOL1         0.0976
      14    C4      19.195967   20.014207   22.761958 C.3        1 MOL1        -0.1375
      15    H10     19.269649   20.143929   21.674186 H          1 MOL1         0.0976
      16    H11     18.176011   19.658202   22.962386 H          1 MOL1         0.0976
      17    C5      19.398955   21.397885   23.425849 C.3        1 MOL1        -0.1350
      18    H12     18.712657   22.116987   22.957064 H          1 MOL1         0.0976
      19    H13     20.414515   21.763888   23.219746 H          1 MOL1         0.0976
      20    C6      19.146909   21.393408   24.950920 C.3        1 MOL1        -0.2365
      21    H14     19.890054   20.785598   25.481541 H          1 MOL1         0.0987
      22    H15     18.149191   21.000167   25.185293 H          1 MOL1         0.0987
      23    H16     19.208304   22.412974   25.352993 H          1 MOL1         0.0987
@<TRIPOS>BOND
    1     1     2    1
    2     1     3    1
    3     1     4    1
    4     1     5    1
    5     5     6    1
    6     5     7    1
    7     5     8    1
    8     8     9    1
    9     8    10    1
   10     8    11    1
   11    11    12    1
   12    11    13    1
   13    11    14    1
   14    14    15    1
   15    14    16    1
   16    14    17    1
   17    17    18    1
   18    17    19    1
   19    17    20    1
   20    20    21    1
   21    20    22    1
   22    20    23    1
@<TRIPOS>SUBSTRUCTURE
       1 MOL1            1 RESIDUE      1      MOL     
@<SCITEGIC>MOL_PROPERTY
VConf Rank
SciTegic.value.IntegerValue
227

@<SCITEGIC>MOL_PROPERTY
Conf_Id
SciTegic.value.IntegerValue
92

@<SCITEGIC>MOL_PROPERTY
Delta U+W
SciTegic.value.DoubleValue
0.973

@<SCITEGIC>MOL_PROPERTY
U+W
SciTegic.value.DoubleValue
-7.409

@<SCITEGIC>MOL_PROPERTY
Grad RMS
SciTegic.value.DoubleValue
0.000000

@<SCITEGIC>MOL_PROPERTY
U
SciTegic.value.DoubleValue
48.047

@<SCITEGIC>MOL_PROPERTY
W
SciTegic.value.DoubleValue
-55.456

@<SCITEGIC>MOL_PROPERTY
W(PB)
SciTegic.value.DoubleValue
-57.595

@<SCITEGIC>MOL_PROPERTY
W(SA)
SciTegic.value.DoubleValue
2.138

@<SCITEGIC>MOL_PROPERTY
Valence
SciTegic.value.DoubleValue
2.583

@<SCITEGIC>MOL_PROPERTY
Coulomb
SciTegic.value.DoubleValue
44.791

@<SCITEGIC>MOL_PROPERTY
VdW
SciTegic.value.DoubleValue
0.674

@<SCITEGIC>MOL_PROPERTY
VdW6
SciTegic.value.DoubleValue
-5.789

@<SCITEGIC>MOL_PROPERTY
VdW12
SciTegic.value.DoubleValue
6.462

@<SCITEGIC>MOL_PROPERTY
Bond
SciTegic.value.DoubleValue
0.177

@<SCITEGIC>MOL_PROPERTY
Angle
SciTegic.value.DoubleValue
0.787

@<SCITEGIC>MOL_PROPERTY
Pdih
SciTegic.value.DoubleValue
1.619

@<SCITEGIC>MOL_PROPERTY
Idih
SciTegic.value.DoubleValue
0.000

@<SCITEGIC>MOL_PROPERTY
Tether
SciTegic.value.DoubleValue
0.000

@<TRIPOS>MOLECULE
guest-2_confgen4.mol2 : confsearch ligand conformer 228
          23          22           1
SMALL
USER_CHARGES
 
@<TRIPOS>ATOM
       1    N1      19.847631   22.500523   22.736434 N.4        1 MOL1        -0.5940
       2    H1      20.307758   22.989733   23.511669 H          1 MOL1         0.3649
       3    H2      18.963473   22.988243   22.559667 H          1 MOL1         0.3649
       4    H3      20.436609   22.634483   21.908183 H          1 MOL1         0.3649
       5    C1      19.631851   21.033000   23.045607 C.3        1 MOL1         0.0207
       6    H4      19.023371   20.964763   23.951430 H          1 MOL1         0.0950
       7    H5      20.608102   20.587000   23.252275 H          1 MOL1         0.0950
       8    C2      18.941694   20.269913   21.899205 C.3        1 MOL1        -0.1415
       9    H6      17.982946   20.754722   21.671808 H          1 MOL1         0.0976
      10    H7      19.552510   20.339201   20.989205 H          1 MOL1         0.0976
      11    C3      18.683825   18.783261   22.240381 C.3        1 MOL1        -0.1375
      12    H8      18.109820   18.328431   21.421174 H          1 MOL1         0.0976
      13    H9      18.051165   18.717461   23.136518 H          1 MOL1         0.0976
      14    C4      19.985435   17.974986   22.459390 C.3        1 MOL1        -0.1375
      15    H10     20.630075   18.070084   21.574623 H          1 MOL1         0.0976
      16    H11     20.546409   18.388988   23.307899 H          1 MOL1         0.0976
      17    C5      19.695155   16.481059   22.725272 C.3        1 MOL1        -0.1350
      18    H12     19.140819   16.053715   21.877895 H          1 MOL1         0.0976
      19    H13     19.049859   16.380121   23.609231 H          1 MOL1         0.0976
      20    C6      20.993820   15.676204   22.944904 C.3        1 MOL1        -0.2365
      21    H14     21.645803   15.730539   22.063318 H          1 MOL1         0.0987
      22    H15     20.767382   14.618416   23.131600 H          1 MOL1         0.0987
      23    H16     21.553885   16.058182   23.808408 H          1 MOL1         0.0987
@<TRIPOS>BOND
    1     1     2    1
    2     1     3    1
    3     1     4    1
    4     1     5    1
    5     5     6    1
    6     5     7    1
    7     5     8    1
    8     8     9    1
    9     8    10    1
   10     8    11    1
   11    11    12    1
   12    11    13    1
   13    11    14    1
   14    14    15    1
   15    14    16    1
   16    14    17    1
   17    17    18    1
   18    17    19    1
   19    17    20    1
   20    20    21    1
   21    20    22    1
   22    20    23    1
@<TRIPOS>SUBSTRUCTURE
       1 MOL1            1 RESIDUE      1      MOL     
@<SCITEGIC>MOL_PROPERTY
VConf Rank
SciTegic.value.IntegerValue
228

@<SCITEGIC>MOL_PROPERTY
Conf_Id
SciTegic.value.IntegerValue
42

@<SCITEGIC>MOL_PROPERTY
Delta U+W
SciTegic.value.DoubleValue
0.365

@<SCITEGIC>MOL_PROPERTY
U+W
SciTegic.value.DoubleValue
-8.017

@<SCITEGIC>MOL_PROPERTY
Grad RMS
SciTegic.value.DoubleValue
0.000000

@<SCITEGIC>MOL_PROPERTY
U
SciTegic.value.DoubleValue
47.375

@<SCITEGIC>MOL_PROPERTY
W
SciTegic.value.DoubleValue
-55.392

@<SCITEGIC>MOL_PROPERTY
W(PB)
SciTegic.value.DoubleValue
-57.543

@<SCITEGIC>MOL_PROPERTY
W(SA)
SciTegic.value.DoubleValue
2.152

@<SCITEGIC>MOL_PROPERTY
Valence
SciTegic.value.DoubleValue
2.032

@<SCITEGIC>MOL_PROPERTY
Coulomb
SciTegic.value.DoubleValue
44.843

@<SCITEGIC>MOL_PROPERTY
VdW
SciTegic.value.DoubleValue
0.499

@<SCITEGIC>MOL_PROPERTY
VdW6
SciTegic.value.DoubleValue
-5.218

@<SCITEGIC>MOL_PROPERTY
VdW12
SciTegic.value.DoubleValue
5.717

@<SCITEGIC>MOL_PROPERTY
Bond
SciTegic.value.DoubleValue
0.135

@<SCITEGIC>MOL_PROPERTY
Angle
SciTegic.value.DoubleValue
0.514

@<SCITEGIC>MOL_PROPERTY
Pdih
SciTegic.value.DoubleValue
1.383

@<SCITEGIC>MOL_PROPERTY
Idih
SciTegic.value.DoubleValue
0.000

@<SCITEGIC>MOL_PROPERTY
Tether
SciTegic.value.DoubleValue
0.000

@<TRIPOS>MOLECULE
guest-2_confgen4.mol2 : confsearch ligand conformer 229
          23          22           1
SMALL
USER_CHARGES
 
@<TRIPOS>ATOM
       1    N1      21.269572   21.777563   22.529177 N.4        1 MOL1        -0.5940
       2    H1      22.171903   21.363283   22.783743 H          1 MOL1         0.3649
       3    H2      21.350603   22.788251   22.683745 H          1 MOL1         0.3649
       4    H3      21.145747   21.638201   21.521880 H          1 MOL1         0.3649
       5    C1      20.128174   21.176308   23.326226 C.3        1 MOL1         0.0207
       6    H4      19.203120   21.675602   23.025557 H          1 MOL1         0.0950
       7    H5      20.308440   21.400496   24.381127 H          1 MOL1         0.0950
       8    C2      19.977451   19.652924   23.147854 C.3        1 MOL1        -0.1415
       9    H6      20.916770   19.155941   23.424148 H          1 MOL1         0.0976
      10    H7      19.212357   19.307085   23.853647 H          1 MOL1         0.0976
      11    C3      19.566773   19.256495   21.708760 C.3        1 MOL1        -0.1375
      12    H8      20.276811   19.691580   20.993302 H          1 MOL1         0.0976
      13    H9      18.588224   19.698304   21.474979 H          1 MOL1         0.0976
      14    C4      19.514092   17.727107   21.457256 C.3        1 MOL1        -0.1375
      15    H10     19.257337   17.575367   20.399646 H          1 MOL1         0.0976
      16    H11     20.513748   17.289014   21.583698 H          1 MOL1         0.0976
      17    C5      18.478877   16.959027   22.319127 C.3        1 MOL1        -0.1350
      18    H12     18.049959   16.149354   21.712142 H          1 MOL1         0.0976
      19    H13     17.638206   17.615779   22.582847 H          1 MOL1         0.0976
      20    C6      19.088522   16.327225   23.592477 C.3        1 MOL1        -0.2365
      21    H14     19.879681   15.611477   23.333961 H          1 MOL1         0.0987
      22    H15     18.319973   15.783540   24.156972 H          1 MOL1         0.0987
      23    H16     19.520915   17.079897   24.260789 H          1 MOL1         0.0987
@<TRIPOS>BOND
    1     1     2    1
    2     1     3    1
    3     1     4    1
    4     1     5    1
    5     5     6    1
    6     5     7    1
    7     5     8    1
    8     8     9    1
    9     8    10    1
   10     8    11    1
   11    11    12    1
   12    11    13    1
   13    11    14    1
   14    14    15    1
   15    14    16    1
   16    14    17    1
   17    17    18    1
   18    17    19    1
   19    17    20    1
   20    20    21    1
   21    20    22    1
   22    20    23    1
@<TRIPOS>SUBSTRUCTURE
       1 MOL1            1 RESIDUE      1      MOL     
@<SCITEGIC>MOL_PROPERTY
VConf Rank
SciTegic.value.IntegerValue
229

@<SCITEGIC>MOL_PROPERTY
Conf_Id
SciTegic.value.IntegerValue
3

@<SCITEGIC>MOL_PROPERTY
Delta U+W
SciTegic.value.DoubleValue
3.283

@<SCITEGIC>MOL_PROPERTY
U+W
SciTegic.value.DoubleValue
-5.099

@<SCITEGIC>MOL_PROPERTY
Grad RMS
SciTegic.value.DoubleValue
0.000000

@<SCITEGIC>MOL_PROPERTY
U
SciTegic.value.DoubleValue
50.701

@<SCITEGIC>MOL_PROPERTY
W
SciTegic.value.DoubleValue
-55.800

@<SCITEGIC>MOL_PROPERTY
W(PB)
SciTegic.value.DoubleValue
-57.867

@<SCITEGIC>MOL_PROPERTY
W(SA)
SciTegic.value.DoubleValue
2.067

@<SCITEGIC>MOL_PROPERTY
Valence
SciTegic.value.DoubleValue
4.880

@<SCITEGIC>MOL_PROPERTY
Coulomb
SciTegic.value.DoubleValue
45.095

@<SCITEGIC>MOL_PROPERTY
VdW
SciTegic.value.DoubleValue
0.726

@<SCITEGIC>MOL_PROPERTY
VdW6
SciTegic.value.DoubleValue
-6.620

@<SCITEGIC>MOL_PROPERTY
VdW12
SciTegic.value.DoubleValue
7.346

@<SCITEGIC>MOL_PROPERTY
Bond
SciTegic.value.DoubleValue
0.222

@<SCITEGIC>MOL_PROPERTY
Angle
SciTegic.value.DoubleValue
1.260

@<SCITEGIC>MOL_PROPERTY
Pdih
SciTegic.value.DoubleValue
3.398

@<SCITEGIC>MOL_PROPERTY
Idih
SciTegic.value.DoubleValue
0.000

@<SCITEGIC>MOL_PROPERTY
Tether
SciTegic.value.DoubleValue
0.000

@<TRIPOS>MOLECULE
guest-2_confgen4.mol2 : confsearch ligand conformer 230
          23          22           1
SMALL
USER_CHARGES
 
@<TRIPOS>ATOM
       1    N1      19.826848   17.998628   19.876627 N.4        1 MOL1        -0.5940
       2    H1      18.921385   17.626006   19.573570 H          1 MOL1         0.3649
       3    H2      20.468333   17.909896   19.081355 H          1 MOL1         0.3649
       4    H3      19.699850   19.000253   20.050459 H          1 MOL1         0.3649
       5    C1      20.349099   17.279483   21.104787 C.3        1 MOL1         0.0207
       6    H4      21.325580   17.701578   21.355410 H          1 MOL1         0.0950
       7    H5      20.493192   16.228763   20.838794 H          1 MOL1         0.0950
       8    C2      19.409820   17.373480   22.324703 C.3        1 MOL1        -0.1415
       9    H6      18.451054   16.899828   22.075254 H          1 MOL1         0.0976
      10    H7      19.837935   16.782549   23.145298 H          1 MOL1         0.0976
      11    C3      19.152080   18.819874   22.817819 C.3        1 MOL1        -0.1375
      12    H8      18.444327   18.772148   23.655485 H          1 MOL1         0.0976
      13    H9      18.654264   19.400553   22.029949 H          1 MOL1         0.0976
      14    C4      20.442629   19.548959   23.270969 C.3        1 MOL1        -0.1375
      15    H10     20.924737   18.980794   24.078390 H          1 MOL1         0.0976
      16    H11     21.160759   19.575839   22.440956 H          1 MOL1         0.0976
      17    C5      20.196093   21.003577   23.739748 C.3        1 MOL1        -0.1350
      18    H12     19.723708   21.579904   22.932019 H          1 MOL1         0.0976
      19    H13     21.167525   21.481159   23.929745 H          1 MOL1         0.0976
      20    C6      19.336259   21.101732   25.020527 C.3        1 MOL1        -0.2365
      21    H14     19.770213   20.506270   25.834232 H          1 MOL1         0.0987
      22    H15     18.311126   20.752193   24.846829 H          1 MOL1         0.0987
      23    H16     19.275141   22.142901   25.362823 H          1 MOL1         0.0987
@<TRIPOS>BOND
    1     1     2    1
    2     1     3    1
    3     1     4    1
    4     1     5    1
    5     5     6    1
    6     5     7    1
    7     5     8    1
    8     8     9    1
    9     8    10    1
   10     8    11    1
   11    11    12    1
   12    11    13    1
   13    11    14    1
   14    14    15    1
   15    14    16    1
   16    14    17    1
   17    17    18    1
   18    17    19    1
   19    17    20    1
   20    20    21    1
   21    20    22    1
   22    20    23    1
@<TRIPOS>SUBSTRUCTURE
       1 MOL1            1 RESIDUE      1      MOL     
@<SCITEGIC>MOL_PROPERTY
VConf Rank
SciTegic.value.IntegerValue
230

@<SCITEGIC>MOL_PROPERTY
Conf_Id
SciTegic.value.IntegerValue
83

@<SCITEGIC>MOL_PROPERTY
Delta U+W
SciTegic.value.DoubleValue
1.229

@<SCITEGIC>MOL_PROPERTY
U+W
SciTegic.value.DoubleValue
-7.154

@<SCITEGIC>MOL_PROPERTY
Grad RMS
SciTegic.value.DoubleValue
0.000000

@<SCITEGIC>MOL_PROPERTY
U
SciTegic.value.DoubleValue
48.727

@<SCITEGIC>MOL_PROPERTY
W
SciTegic.value.DoubleValue
-55.880

@<SCITEGIC>MOL_PROPERTY
W(PB)
SciTegic.value.DoubleValue
-57.960

@<SCITEGIC>MOL_PROPERTY
W(SA)
SciTegic.value.DoubleValue
2.080

@<SCITEGIC>MOL_PROPERTY
Valence
SciTegic.value.DoubleValue
2.671

@<SCITEGIC>MOL_PROPERTY
Coulomb
SciTegic.value.DoubleValue
45.371

@<SCITEGIC>MOL_PROPERTY
VdW
SciTegic.value.DoubleValue
0.684

@<SCITEGIC>MOL_PROPERTY
VdW6
SciTegic.value.DoubleValue
-6.511

@<SCITEGIC>MOL_PROPERTY
VdW12
SciTegic.value.DoubleValue
7.195

@<SCITEGIC>MOL_PROPERTY
Bond
SciTegic.value.DoubleValue
0.203

@<SCITEGIC>MOL_PROPERTY
Angle
SciTegic.value.DoubleValue
0.915

@<SCITEGIC>MOL_PROPERTY
Pdih
SciTegic.value.DoubleValue
1.554

@<SCITEGIC>MOL_PROPERTY
Idih
SciTegic.value.DoubleValue
0.000

@<SCITEGIC>MOL_PROPERTY
Tether
SciTegic.value.DoubleValue
0.000

@<TRIPOS>MOLECULE
guest-2_confgen4.mol2 : confsearch ligand conformer 231
          23          22           1
SMALL
USER_CHARGES
 
@<TRIPOS>ATOM
       1    N1      22.530674   19.751467   22.648146 N.4        1 MOL1        -0.5940
       2    H1      23.160175   18.961814   22.472846 H          1 MOL1         0.3649
       3    H2      22.015342   19.543330   23.508792 H          1 MOL1         0.3649
       4    H3      23.120953   20.567815   22.840452 H          1 MOL1         0.3649
       5    C1      21.594714   19.995332   21.480754 C.3        1 MOL1         0.0207
       6    H4      22.207144   20.244223   20.609829 H          1 MOL1         0.0950
       7    H5      20.975753   20.864280   21.718049 H          1 MOL1         0.0950
       8    C2      20.695068   18.788313   21.144573 C.3        1 MOL1        -0.1415
       9    H6      20.093907   19.032910   20.258774 H          1 MOL1         0.0976
      10    H7      21.328890   17.938549   20.858262 H          1 MOL1         0.0976
      11    C3      19.753281   18.357560   22.297455 C.3        1 MOL1        -0.1375
      12    H8      20.345842   18.037872   23.164876 H          1 MOL1         0.0976
      13    H9      19.194121   17.472775   21.966742 H          1 MOL1         0.0976
      14    C4      18.760072   19.469369   22.721538 C.3        1 MOL1        -0.1375
      15    H10     19.318090   20.363320   23.029468 H          1 MOL1         0.0976
      16    H11     18.148891   19.768549   21.858914 H          1 MOL1         0.0976
      17    C5      17.834189   19.054963   23.890920 C.3        1 MOL1        -0.1350
      18    H12     17.248894   19.931107   24.203431 H          1 MOL1         0.0976
      19    H13     18.440171   18.764814   24.760590 H          1 MOL1         0.0976
      20    C6      16.859742   17.910431   23.530584 C.3        1 MOL1        -0.2365
      21    H14     16.264900   18.162770   22.643174 H          1 MOL1         0.0987
      22    H15     16.163790   17.723983   24.358728 H          1 MOL1         0.0987
      23    H16     17.393337   16.972771   23.332309 H          1 MOL1         0.0987
@<TRIPOS>BOND
    1     1     2    1
    2     1     3    1
    3     1     4    1
    4     1     5    1
    5     5     6    1
    6     5     7    1
    7     5     8    1
    8     8     9    1
    9     8    10    1
   10     8    11    1
   11    11    12    1
   12    11    13    1
   13    11    14    1
   14    14    15    1
   15    14    16    1
   16    14    17    1
   17    17    18    1
   18    17    19    1
   19    17    20    1
   20    20    21    1
   21    20    22    1
   22    20    23    1
@<TRIPOS>SUBSTRUCTURE
       1 MOL1            1 RESIDUE      1      MOL     
@<SCITEGIC>MOL_PROPERTY
VConf Rank
SciTegic.value.IntegerValue
231

@<SCITEGIC>MOL_PROPERTY
Conf_Id
SciTegic.value.IntegerValue
50

@<SCITEGIC>MOL_PROPERTY
Delta U+W
SciTegic.value.DoubleValue
1.252

@<SCITEGIC>MOL_PROPERTY
U+W
SciTegic.value.DoubleValue
-7.130

@<SCITEGIC>MOL_PROPERTY
Grad RMS
SciTegic.value.DoubleValue
0.000000

@<SCITEGIC>MOL_PROPERTY
U
SciTegic.value.DoubleValue
48.727

@<SCITEGIC>MOL_PROPERTY
W
SciTegic.value.DoubleValue
-55.857

@<SCITEGIC>MOL_PROPERTY
W(PB)
SciTegic.value.DoubleValue
-57.937

@<SCITEGIC>MOL_PROPERTY
W(SA)
SciTegic.value.DoubleValue
2.080

@<SCITEGIC>MOL_PROPERTY
Valence
SciTegic.value.DoubleValue
2.671

@<SCITEGIC>MOL_PROPERTY
Coulomb
SciTegic.value.DoubleValue
45.371

@<SCITEGIC>MOL_PROPERTY
VdW
SciTegic.value.DoubleValue
0.684

@<SCITEGIC>MOL_PROPERTY
VdW6
SciTegic.value.DoubleValue
-6.511

@<SCITEGIC>MOL_PROPERTY
VdW12
SciTegic.value.DoubleValue
7.196

@<SCITEGIC>MOL_PROPERTY
Bond
SciTegic.value.DoubleValue
0.203

@<SCITEGIC>MOL_PROPERTY
Angle
SciTegic.value.DoubleValue
0.915

@<SCITEGIC>MOL_PROPERTY
Pdih
SciTegic.value.DoubleValue
1.554

@<SCITEGIC>MOL_PROPERTY
Idih
SciTegic.value.DoubleValue
0.000

@<SCITEGIC>MOL_PROPERTY
Tether
SciTegic.value.DoubleValue
0.000

@<TRIPOS>MOLECULE
guest-2_confgen4.mol2 : confsearch ligand conformer 232
          23          22           1
SMALL
USER_CHARGES
 
@<TRIPOS>ATOM
       1    N1      17.570437   20.339564   20.757590 N.4        1 MOL1        -0.5940
       2    H1      17.639287   19.383680   20.395543 H          1 MOL1         0.3649
       3    H2      17.372069   20.949443   19.957199 H          1 MOL1         0.3649
       4    H3      16.749045   20.373515   21.369789 H          1 MOL1         0.3649
       5    C1      18.833386   20.758345   21.484791 C.3        1 MOL1         0.0207
       6    H4      18.702972   21.795811   21.804526 H          1 MOL1         0.0950
       7    H5      19.662428   20.723231   20.772844 H          1 MOL1         0.0950
       8    C2      19.165066   19.884451   22.709968 C.3        1 MOL1        -0.1415
       9    H6      20.022917   20.329667   23.226240 H          1 MOL1         0.0976
      10    H7      18.327610   19.918845   23.419370 H          1 MOL1         0.0976
      11    C3      19.472133   18.413689   22.328860 C.3        1 MOL1        -0.1375
      12    H8      20.244504   18.374024   21.548332 H          1 MOL1         0.0976
      13    H9      18.569097   17.972275   21.886516 H          1 MOL1         0.0976
      14    C4      19.894216   17.539851   23.538967 C.3        1 MOL1        -0.1375
      15    H10     19.428392   17.914044   24.461020 H          1 MOL1         0.0976
      16    H11     19.486601   16.530200   23.390822 H          1 MOL1         0.0976
      17    C5      21.425669   17.399360   23.734216 C.3        1 MOL1        -0.1350
      18    H12     21.868751   16.929648   22.844934 H          1 MOL1         0.0976
      19    H13     21.608631   16.705872   24.566931 H          1 MOL1         0.0976
      20    C6      22.154903   18.728602   24.028092 C.3        1 MOL1        -0.2365
      21    H14     21.697483   19.252226   24.877456 H          1 MOL1         0.0987
      22    H15     22.138102   19.393825   23.156042 H          1 MOL1         0.0987
      23    H16     23.207540   18.541478   24.276748 H          1 MOL1         0.0987
@<TRIPOS>BOND
    1     1     2    1
    2     1     3    1
    3     1     4    1
    4     1     5    1
    5     5     6    1
    6     5     7    1
    7     5     8    1
    8     8     9    1
    9     8    10    1
   10     8    11    1
   11    11    12    1
   12    11    13    1
   13    11    14    1
   14    14    15    1
   15    14    16    1
   16    14    17    1
   17    17    18    1
   18    17    19    1
   19    17    20    1
   20    20    21    1
   21    20    22    1
   22    20    23    1
@<TRIPOS>SUBSTRUCTURE
       1 MOL1            1 RESIDUE      1      MOL     
@<SCITEGIC>MOL_PROPERTY
VConf Rank
SciTegic.value.IntegerValue
232

@<SCITEGIC>MOL_PROPERTY
Conf_Id
SciTegic.value.IntegerValue
55

@<SCITEGIC>MOL_PROPERTY
Delta U+W
SciTegic.value.DoubleValue
3.232

@<SCITEGIC>MOL_PROPERTY
U+W
SciTegic.value.DoubleValue
-5.150

@<SCITEGIC>MOL_PROPERTY
Grad RMS
SciTegic.value.DoubleValue
0.000000

@<SCITEGIC>MOL_PROPERTY
U
SciTegic.value.DoubleValue
50.625

@<SCITEGIC>MOL_PROPERTY
W
SciTegic.value.DoubleValue
-55.776

@<SCITEGIC>MOL_PROPERTY
W(PB)
SciTegic.value.DoubleValue
-57.839

@<SCITEGIC>MOL_PROPERTY
W(SA)
SciTegic.value.DoubleValue
2.064

@<SCITEGIC>MOL_PROPERTY
Valence
SciTegic.value.DoubleValue
4.837

@<SCITEGIC>MOL_PROPERTY
Coulomb
SciTegic.value.DoubleValue
45.097

@<SCITEGIC>MOL_PROPERTY
VdW
SciTegic.value.DoubleValue
0.692

@<SCITEGIC>MOL_PROPERTY
VdW6
SciTegic.value.DoubleValue
-6.655

@<SCITEGIC>MOL_PROPERTY
VdW12
SciTegic.value.DoubleValue
7.347

@<SCITEGIC>MOL_PROPERTY
Bond
SciTegic.value.DoubleValue
0.223

@<SCITEGIC>MOL_PROPERTY
Angle
SciTegic.value.DoubleValue
1.167

@<SCITEGIC>MOL_PROPERTY
Pdih
SciTegic.value.DoubleValue
3.447

@<SCITEGIC>MOL_PROPERTY
Idih
SciTegic.value.DoubleValue
0.000

@<SCITEGIC>MOL_PROPERTY
Tether
SciTegic.value.DoubleValue
0.000

@<TRIPOS>MOLECULE
guest-2_confgen4.mol2 : confsearch ligand conformer 233
          23          22           1
SMALL
USER_CHARGES
 
@<TRIPOS>ATOM
       1    N1      19.187919   20.364263   25.359095 N.4        1 MOL1        -0.5940
       2    H1      19.473362   19.947274   26.250987 H          1 MOL1         0.3649
       3    H2      18.280467   20.815048   25.518228 H          1 MOL1         0.3649
       4    H3      19.858265   21.110199   25.147031 H          1 MOL1         0.3649
       5    C1      19.118344   19.334056   24.250276 C.3        1 MOL1         0.0207
       6    H4      18.775069   19.840113   23.346170 H          1 MOL1         0.0950
       7    H5      18.367810   18.589775   24.529820 H          1 MOL1         0.0950
       8    C2      20.467260   18.634106   23.992821 C.3        1 MOL1        -0.1415
       9    H6      21.242990   19.374405   23.756047 H          1 MOL1         0.0976
      10    H7      20.780031   18.144746   24.924873 H          1 MOL1         0.0976
      11    C3      20.393362   17.563403   22.874966 C.3        1 MOL1        -0.1375
      12    H8      19.433360   17.031100   22.926480 H          1 MOL1         0.0976
      13    H9      21.163749   16.806077   23.076107 H          1 MOL1         0.0976
      14    C4      20.629354   18.099390   21.438826 C.3        1 MOL1        -0.1375
      15    H10     21.635106   18.536775   21.372127 H          1 MOL1         0.0976
      16    H11     20.623646   17.243510   20.749712 H          1 MOL1         0.0976
      17    C5      19.586989   19.135398   20.958551 C.3        1 MOL1        -0.1350
      18    H12     19.685964   20.061943   21.538752 H          1 MOL1         0.0976
      19    H13     18.571680   18.750687   21.128331 H          1 MOL1         0.0976
      20    C6      19.764201   19.469372   19.461976 C.3        1 MOL1        -0.2365
      21    H14     19.633832   18.574885   18.838990 H          1 MOL1         0.0987
      22    H15     20.762875   19.880642   19.265108 H          1 MOL1         0.0987
      23    H16     19.024004   20.213620   19.140676 H          1 MOL1         0.0987
@<TRIPOS>BOND
    1     1     2    1
    2     1     3    1
    3     1     4    1
    4     1     5    1
    5     5     6    1
    6     5     7    1
    7     5     8    1
    8     8     9    1
    9     8    10    1
   10     8    11    1
   11    11    12    1
   12    11    13    1
   13    11    14    1
   14    14    15    1
   15    14    16    1
   16    14    17    1
   17    17    18    1
   18    17    19    1
   19    17    20    1
   20    20    21    1
   21    20    22    1
   22    20    23    1
@<TRIPOS>SUBSTRUCTURE
       1 MOL1            1 RESIDUE      1      MOL     
@<SCITEGIC>MOL_PROPERTY
VConf Rank
SciTegic.value.IntegerValue
233

@<SCITEGIC>MOL_PROPERTY
Conf_Id
SciTegic.value.IntegerValue
93

@<SCITEGIC>MOL_PROPERTY
Delta U+W
SciTegic.value.DoubleValue
2.589

@<SCITEGIC>MOL_PROPERTY
U+W
SciTegic.value.DoubleValue
-5.793

@<SCITEGIC>MOL_PROPERTY
Grad RMS
SciTegic.value.DoubleValue
0.000000

@<SCITEGIC>MOL_PROPERTY
U
SciTegic.value.DoubleValue
50.122

@<SCITEGIC>MOL_PROPERTY
W
SciTegic.value.DoubleValue
-55.915

@<SCITEGIC>MOL_PROPERTY
W(PB)
SciTegic.value.DoubleValue
-58.031

@<SCITEGIC>MOL_PROPERTY
W(SA)
SciTegic.value.DoubleValue
2.115

@<SCITEGIC>MOL_PROPERTY
Valence
SciTegic.value.DoubleValue
4.132

@<SCITEGIC>MOL_PROPERTY
Coulomb
SciTegic.value.DoubleValue
45.536

@<SCITEGIC>MOL_PROPERTY
VdW
SciTegic.value.DoubleValue
0.454

@<SCITEGIC>MOL_PROPERTY
VdW6
SciTegic.value.DoubleValue
-6.262

@<SCITEGIC>MOL_PROPERTY
VdW12
SciTegic.value.DoubleValue
6.715

@<SCITEGIC>MOL_PROPERTY
Bond
SciTegic.value.DoubleValue
0.182

@<SCITEGIC>MOL_PROPERTY
Angle
SciTegic.value.DoubleValue
1.157

@<SCITEGIC>MOL_PROPERTY
Pdih
SciTegic.value.DoubleValue
2.794

@<SCITEGIC>MOL_PROPERTY
Idih
SciTegic.value.DoubleValue
0.000

@<SCITEGIC>MOL_PROPERTY
Tether
SciTegic.value.DoubleValue
0.000

@<TRIPOS>MOLECULE
guest-2_confgen4.mol2 : confsearch ligand conformer 234
          23          22           1
SMALL
USER_CHARGES
 
@<TRIPOS>ATOM
       1    N1      21.671412   21.130402   23.733666 N.4        1 MOL1        -0.5940
       2    H1      21.624789   21.630697   22.840197 H          1 MOL1         0.3649
       3    H2      22.658580   20.906424   23.898994 H          1 MOL1         0.3649
       4    H3      21.390082   21.791951   24.464443 H          1 MOL1         0.3649
       5    C1      20.804491   19.887787   23.732226 C.3        1 MOL1         0.0207
       6    H4      20.925387   19.392695   24.699525 H          1 MOL1         0.0950
       7    H5      21.183041   19.218157   22.957865 H          1 MOL1         0.0950
       8    C2      19.312949   20.194138   23.492982 C.3        1 MOL1        -0.1415
       9    H6      18.973600   20.873466   24.286313 H          1 MOL1         0.0976
      10    H7      19.180662   20.733432   22.545603 H          1 MOL1         0.0976
      11    C3      18.420758   18.927249   23.514181 C.3        1 MOL1        -0.1375
      12    H8      17.412922   19.224746   23.835523 H          1 MOL1         0.0976
      13    H9      18.781238   18.225778   24.279424 H          1 MOL1         0.0976
      14    C4      18.280889   18.202475   22.150137 C.3        1 MOL1        -0.1375
      15    H10     17.574356   17.370430   22.276443 H          1 MOL1         0.0976
      16    H11     17.821931   18.882871   21.419582 H          1 MOL1         0.0976
      17    C5      19.605805   17.650869   21.574958 C.3        1 MOL1        -0.1350
      18    H12     20.128895   17.060863   22.340430 H          1 MOL1         0.0976
      19    H13     20.266624   18.481590   21.295428 H          1 MOL1         0.0976
      20    C6      19.363459   16.772691   20.328863 C.3        1 MOL1        -0.2365
      21    H14     20.314258   16.398774   19.927372 H          1 MOL1         0.0987
      22    H15     18.863719   17.343323   19.535207 H          1 MOL1         0.0987
      23    H16     18.736849   15.904794   20.572441 H          1 MOL1         0.0987
@<TRIPOS>BOND
    1     1     2    1
    2     1     3    1
    3     1     4    1
    4     1     5    1
    5     5     6    1
    6     5     7    1
    7     5     8    1
    8     8     9    1
    9     8    10    1
   10     8    11    1
   11    11    12    1
   12    11    13    1
   13    11    14    1
   14    14    15    1
   15    14    16    1
   16    14    17    1
   17    17    18    1
   18    17    19    1
   19    17    20    1
   20    20    21    1
   21    20    22    1
   22    20    23    1
@<TRIPOS>SUBSTRUCTURE
       1 MOL1            1 RESIDUE      1      MOL     
@<SCITEGIC>MOL_PROPERTY
VConf Rank
SciTegic.value.IntegerValue
234

@<SCITEGIC>MOL_PROPERTY
Conf_Id
SciTegic.value.IntegerValue
70

@<SCITEGIC>MOL_PROPERTY
Delta U+W
SciTegic.value.DoubleValue
2.599

@<SCITEGIC>MOL_PROPERTY
U+W
SciTegic.value.DoubleValue
-5.783

@<SCITEGIC>MOL_PROPERTY
Grad RMS
SciTegic.value.DoubleValue
0.000000

@<SCITEGIC>MOL_PROPERTY
U
SciTegic.value.DoubleValue
50.122

@<SCITEGIC>MOL_PROPERTY
W
SciTegic.value.DoubleValue
-55.906

@<SCITEGIC>MOL_PROPERTY
W(PB)
SciTegic.value.DoubleValue
-58.010

@<SCITEGIC>MOL_PROPERTY
W(SA)
SciTegic.value.DoubleValue
2.105

@<SCITEGIC>MOL_PROPERTY
Valence
SciTegic.value.DoubleValue
4.132

@<SCITEGIC>MOL_PROPERTY
Coulomb
SciTegic.value.DoubleValue
45.536

@<SCITEGIC>MOL_PROPERTY
VdW
SciTegic.value.DoubleValue
0.454

@<SCITEGIC>MOL_PROPERTY
VdW6
SciTegic.value.DoubleValue
-6.262

@<SCITEGIC>MOL_PROPERTY
VdW12
SciTegic.value.DoubleValue
6.715

@<SCITEGIC>MOL_PROPERTY
Bond
SciTegic.value.DoubleValue
0.182

@<SCITEGIC>MOL_PROPERTY
Angle
SciTegic.value.DoubleValue
1.157

@<SCITEGIC>MOL_PROPERTY
Pdih
SciTegic.value.DoubleValue
2.794

@<SCITEGIC>MOL_PROPERTY
Idih
SciTegic.value.DoubleValue
0.000

@<SCITEGIC>MOL_PROPERTY
Tether
SciTegic.value.DoubleValue
0.000

@<TRIPOS>MOLECULE
guest-2_confgen4.mol2 : confsearch ligand conformer 235
          23          22           1
SMALL
USER_CHARGES
 
@<TRIPOS>ATOM
       1    N1      20.450897   16.272822   23.149921 N.4        1 MOL1        -0.5940
       2    H1      21.176294   15.971027   23.808121 H          1 MOL1         0.3649
       3    H2      20.172164   15.445528   22.611723 H          1 MOL1         0.3649
       4    H3      19.638698   16.559138   23.704737 H          1 MOL1         0.3649
       5    C1      20.937221   17.392618   22.251155 C.3        1 MOL1         0.0207
       6    H4      20.132558   17.643223   21.554980 H          1 MOL1         0.0950
       7    H5      21.781753   17.011075   21.670908 H          1 MOL1         0.0950
       8    C2      21.372820   18.656628   23.019474 C.3        1 MOL1        -0.1415
       9    H6      22.203881   18.400569   23.689912 H          1 MOL1         0.0976
      10    H7      21.779053   19.383345   22.304441 H          1 MOL1         0.0976
      11    C3      20.236402   19.315399   23.845052 C.3        1 MOL1        -0.1375
      12    H8      20.626976   20.224891   24.321998 H          1 MOL1         0.0976
      13    H9      19.953386   18.646883   24.669200 H          1 MOL1         0.0976
      14    C4      18.964716   19.675879   23.034084 C.3        1 MOL1        -0.1375
      15    H10     18.506253   18.764819   22.627056 H          1 MOL1         0.0976
      16    H11     18.224456   20.104658   23.723650 H          1 MOL1         0.0976
      17    C5      19.226584   20.682913   21.889443 C.3        1 MOL1        -0.1350
      18    H12     19.910682   20.246173   21.149708 H          1 MOL1         0.0976
      19    H13     19.720036   21.579530   22.289812 H          1 MOL1         0.0976
      20    C6      17.917855   21.092065   21.180779 C.3        1 MOL1        -0.2365
      21    H14     18.122008   21.804127   20.370654 H          1 MOL1         0.0987
      22    H15     17.221714   21.570585   21.881920 H          1 MOL1         0.0987
      23    H16     17.416408   20.218860   20.743436 H          1 MOL1         0.0987
@<TRIPOS>BOND
    1     1     2    1
    2     1     3    1
    3     1     4    1
    4     1     5    1
    5     5     6    1
    6     5     7    1
    7     5     8    1
    8     8     9    1
    9     8    10    1
   10     8    11    1
   11    11    12    1
   12    11    13    1
   13    11    14    1
   14    14    15    1
   15    14    16    1
   16    14    17    1
   17    17    18    1
   18    17    19    1
   19    17    20    1
   20    20    21    1
   21    20    22    1
   22    20    23    1
@<TRIPOS>SUBSTRUCTURE
       1 MOL1            1 RESIDUE      1      MOL     
@<SCITEGIC>MOL_PROPERTY
VConf Rank
SciTegic.value.IntegerValue
235

@<SCITEGIC>MOL_PROPERTY
Conf_Id
SciTegic.value.IntegerValue
72

@<SCITEGIC>MOL_PROPERTY
Delta U+W
SciTegic.value.DoubleValue
1.051

@<SCITEGIC>MOL_PROPERTY
U+W
SciTegic.value.DoubleValue
-7.331

@<SCITEGIC>MOL_PROPERTY
Grad RMS
SciTegic.value.DoubleValue
0.000000

@<SCITEGIC>MOL_PROPERTY
U
SciTegic.value.DoubleValue
48.590

@<SCITEGIC>MOL_PROPERTY
W
SciTegic.value.DoubleValue
-55.922

@<SCITEGIC>MOL_PROPERTY
W(PB)
SciTegic.value.DoubleValue
-58.012

@<SCITEGIC>MOL_PROPERTY
W(SA)
SciTegic.value.DoubleValue
2.090

@<SCITEGIC>MOL_PROPERTY
Valence
SciTegic.value.DoubleValue
2.601

@<SCITEGIC>MOL_PROPERTY
Coulomb
SciTegic.value.DoubleValue
45.520

@<SCITEGIC>MOL_PROPERTY
VdW
SciTegic.value.DoubleValue
0.469

@<SCITEGIC>MOL_PROPERTY
VdW6
SciTegic.value.DoubleValue
-6.867

@<SCITEGIC>MOL_PROPERTY
VdW12
SciTegic.value.DoubleValue
7.336

@<SCITEGIC>MOL_PROPERTY
Bond
SciTegic.value.DoubleValue
0.205

@<SCITEGIC>MOL_PROPERTY
Angle
SciTegic.value.DoubleValue
0.962

@<SCITEGIC>MOL_PROPERTY
Pdih
SciTegic.value.DoubleValue
1.434

@<SCITEGIC>MOL_PROPERTY
Idih
SciTegic.value.DoubleValue
0.000

@<SCITEGIC>MOL_PROPERTY
Tether
SciTegic.value.DoubleValue
0.000

@<TRIPOS>MOLECULE
guest-2_confgen4.mol2 : confsearch ligand conformer 236
          23          22           1
SMALL
USER_CHARGES
 
@<TRIPOS>ATOM
       1    N1      17.641871   17.831904   20.591375 N.4        1 MOL1        -0.5940
       2    H1      16.632795   18.003603   20.526250 H          1 MOL1         0.3649
       3    H2      17.798132   16.861882   20.299102 H          1 MOL1         0.3649
       4    H3      18.092234   18.433275   19.894103 H          1 MOL1         0.3649
       5    C1      18.168165   18.092809   21.988007 C.3        1 MOL1         0.0207
       6    H4      17.627271   17.441898   22.680176 H          1 MOL1         0.0950
       7    H5      17.941735   19.131190   22.243794 H          1 MOL1         0.0950
       8    C2      19.682326   17.844003   22.119266 C.3        1 MOL1        -0.1415
       9    H6      19.903332   16.809652   21.824301 H          1 MOL1         0.0976
      10    H7      20.225623   18.487598   21.415672 H          1 MOL1         0.0976
      11    C3      20.203360   18.075297   23.559436 C.3        1 MOL1        -0.1375
      12    H8      21.279879   17.860620   23.590553 H          1 MOL1         0.0976
      13    H9      19.735691   17.339541   24.228212 H          1 MOL1         0.0976
      14    C4      19.941048   19.496582   24.126798 C.3        1 MOL1        -0.1375
      15    H10     18.859998   19.646537   24.249868 H          1 MOL1         0.0976
      16    H11     20.363451   19.553100   25.139493 H          1 MOL1         0.0976
      17    C5      20.515436   20.660891   23.280227 C.3        1 MOL1        -0.1350
      18    H12     20.258194   21.610232   23.770399 H          1 MOL1         0.0976
      19    H13     20.029956   20.690121   22.295558 H          1 MOL1         0.0976
      20    C6      22.049292   20.591939   23.104019 C.3        1 MOL1        -0.2365
      21    H14     22.556411   20.549083   24.076610 H          1 MOL1         0.0987
      22    H15     22.415794   21.479918   22.572971 H          1 MOL1         0.0987
      23    H16     22.348173   19.711668   22.521482 H          1 MOL1         0.0987
@<TRIPOS>BOND
    1     1     2    1
    2     1     3    1
    3     1     4    1
    4     1     5    1
    5     5     6    1
    6     5     7    1
    7     5     8    1
    8     8     9    1
    9     8    10    1
   10     8    11    1
   11    11    12    1
   12    11    13    1
   13    11    14    1
   14    14    15    1
   15    14    16    1
   16    14    17    1
   17    17    18    1
   18    17    19    1
   19    17    20    1
   20    20    21    1
   21    20    22    1
   22    20    23    1
@<TRIPOS>SUBSTRUCTURE
       1 MOL1            1 RESIDUE      1      MOL     
@<SCITEGIC>MOL_PROPERTY
VConf Rank
SciTegic.value.IntegerValue
236

@<SCITEGIC>MOL_PROPERTY
Conf_Id
SciTegic.value.IntegerValue
26

@<SCITEGIC>MOL_PROPERTY
Delta U+W
SciTegic.value.DoubleValue
1.076

@<SCITEGIC>MOL_PROPERTY
U+W
SciTegic.value.DoubleValue
-7.306

@<SCITEGIC>MOL_PROPERTY
Grad RMS
SciTegic.value.DoubleValue
0.000000

@<SCITEGIC>MOL_PROPERTY
U
SciTegic.value.DoubleValue
48.641

@<SCITEGIC>MOL_PROPERTY
W
SciTegic.value.DoubleValue
-55.947

@<SCITEGIC>MOL_PROPERTY
W(PB)
SciTegic.value.DoubleValue
-58.031

@<SCITEGIC>MOL_PROPERTY
W(SA)
SciTegic.value.DoubleValue
2.084

@<SCITEGIC>MOL_PROPERTY
Valence
SciTegic.value.DoubleValue
2.922

@<SCITEGIC>MOL_PROPERTY
Coulomb
SciTegic.value.DoubleValue
45.269

@<SCITEGIC>MOL_PROPERTY
VdW
SciTegic.value.DoubleValue
0.449

@<SCITEGIC>MOL_PROPERTY
VdW6
SciTegic.value.DoubleValue
-7.045

@<SCITEGIC>MOL_PROPERTY
VdW12
SciTegic.value.DoubleValue
7.494

@<SCITEGIC>MOL_PROPERTY
Bond
SciTegic.value.DoubleValue
0.220

@<SCITEGIC>MOL_PROPERTY
Angle
SciTegic.value.DoubleValue
1.205

@<SCITEGIC>MOL_PROPERTY
Pdih
SciTegic.value.DoubleValue
1.497

@<SCITEGIC>MOL_PROPERTY
Idih
SciTegic.value.DoubleValue
0.000

@<SCITEGIC>MOL_PROPERTY
Tether
SciTegic.value.DoubleValue
0.000

@<TRIPOS>MOLECULE
guest-2_confgen4.mol2 : confsearch ligand conformer 237
          23          22           1
SMALL
USER_CHARGES
 
@<TRIPOS>ATOM
       1    N1      21.356229   20.215237   20.177088 N.4        1 MOL1        -0.5940
       2    H1      22.378084   20.199025   20.256668 H          1 MOL1         0.3649
       3    H2      21.116766   21.013640   19.579452 H          1 MOL1         0.3649
       4    H3      21.079807   19.369009   19.669003 H          1 MOL1         0.3649
       5    C1      20.685445   20.305750   21.532629 C.3        1 MOL1         0.0207
       6    H4      19.605253   20.349233   21.370678 H          1 MOL1         0.0950
       7    H5      21.000808   21.240399   22.004144 H          1 MOL1         0.0950
       8    C2      21.024911   19.120092   22.455015 C.3        1 MOL1        -0.1415
       9    H6      20.720608   18.180229   21.977010 H          1 MOL1         0.0976
      10    H7      22.114257   19.063169   22.580769 H          1 MOL1         0.0976
      11    C3      20.366166   19.241650   23.851561 C.3        1 MOL1        -0.1375
      12    H8      20.776127   20.124412   24.361439 H          1 MOL1         0.0976
      13    H9      20.664107   18.381040   24.465185 H          1 MOL1         0.0976
      14    C4      18.817759   19.355143   23.833888 C.3        1 MOL1        -0.1375
      15    H10     18.459236   19.419272   24.870476 H          1 MOL1         0.0976
      16    H11     18.526778   20.303508   23.362469 H          1 MOL1         0.0976
      17    C5      18.079556   18.193715   23.120891 C.3        1 MOL1        -0.1350
      18    H12     18.342011   18.174523   22.054650 H          1 MOL1         0.0976
      19    H13     16.998817   18.388898   23.160875 H          1 MOL1         0.0976
      20    C6      18.358761   16.810896   23.752060 C.3        1 MOL1        -0.2365
      21    H14     19.410943   16.521828   23.638427 H          1 MOL1         0.0987
      22    H15     17.749102   16.036978   23.268111 H          1 MOL1         0.0987
      23    H16     18.115445   16.809622   24.822451 H          1 MOL1         0.0987
@<TRIPOS>BOND
    1     1     2    1
    2     1     3    1
    3     1     4    1
    4     1     5    1
    5     5     6    1
    6     5     7    1
    7     5     8    1
    8     8     9    1
    9     8    10    1
   10     8    11    1
   11    11    12    1
   12    11    13    1
   13    11    14    1
   14    14    15    1
   15    14    16    1
   16    14    17    1
   17    17    18    1
   18    17    19    1
   19    17    20    1
   20    20    21    1
   21    20    22    1
   22    20    23    1
@<TRIPOS>SUBSTRUCTURE
       1 MOL1            1 RESIDUE      1      MOL     
@<SCITEGIC>MOL_PROPERTY
VConf Rank
SciTegic.value.IntegerValue
237

@<SCITEGIC>MOL_PROPERTY
Conf_Id
SciTegic.value.IntegerValue
90

@<SCITEGIC>MOL_PROPERTY
Delta U+W
SciTegic.value.DoubleValue
1.131

@<SCITEGIC>MOL_PROPERTY
U+W
SciTegic.value.DoubleValue
-7.251

@<SCITEGIC>MOL_PROPERTY
Grad RMS
SciTegic.value.DoubleValue
0.000000

@<SCITEGIC>MOL_PROPERTY
U
SciTegic.value.DoubleValue
48.641

@<SCITEGIC>MOL_PROPERTY
W
SciTegic.value.DoubleValue
-55.892

@<SCITEGIC>MOL_PROPERTY
W(PB)
SciTegic.value.DoubleValue
-57.962

@<SCITEGIC>MOL_PROPERTY
W(SA)
SciTegic.value.DoubleValue
2.070

@<SCITEGIC>MOL_PROPERTY
Valence
SciTegic.value.DoubleValue
2.922

@<SCITEGIC>MOL_PROPERTY
Coulomb
SciTegic.value.DoubleValue
45.269

@<SCITEGIC>MOL_PROPERTY
VdW
SciTegic.value.DoubleValue
0.450

@<SCITEGIC>MOL_PROPERTY
VdW6
SciTegic.value.DoubleValue
-7.045

@<SCITEGIC>MOL_PROPERTY
VdW12
SciTegic.value.DoubleValue
7.495

@<SCITEGIC>MOL_PROPERTY
Bond
SciTegic.value.DoubleValue
0.220

@<SCITEGIC>MOL_PROPERTY
Angle
SciTegic.value.DoubleValue
1.205

@<SCITEGIC>MOL_PROPERTY
Pdih
SciTegic.value.DoubleValue
1.497

@<SCITEGIC>MOL_PROPERTY
Idih
SciTegic.value.DoubleValue
0.000

@<SCITEGIC>MOL_PROPERTY
Tether
SciTegic.value.DoubleValue
0.000

@<TRIPOS>MOLECULE
guest-2_confgen4.mol2 : confsearch ligand conformer 238
          23          22           1
SMALL
USER_CHARGES
 
@<TRIPOS>ATOM
       1    N1      18.345171   19.989126   20.646840 N.4        1 MOL1        -0.5940
       2    H1      18.304148   19.915127   19.624738 H          1 MOL1         0.3649
       3    H2      19.306944   20.242928   20.892196 H          1 MOL1         0.3649
       4    H3      17.745641   20.776362   20.914040 H          1 MOL1         0.3649
       5    C1      17.917358   18.701160   21.322499 C.3        1 MOL1         0.0207
       6    H4      18.574118   17.900550   20.972631 H          1 MOL1         0.0950
       7    H5      16.900203   18.473708   20.992075 H          1 MOL1         0.0950
       8    C2      17.951940   18.768350   22.863012 C.3        1 MOL1        -0.1415
       9    H6      17.253459   19.543558   23.205019 H          1 MOL1         0.0976
      10    H7      17.575298   17.818557   23.265352 H          1 MOL1         0.0976
      11    C3      19.357972   19.050251   23.449686 C.3        1 MOL1        -0.1375
      12    H8      19.277879   19.094508   24.544554 H          1 MOL1         0.0976
      13    H9      19.696700   20.042992   23.127456 H          1 MOL1         0.0976
      14    C4      20.404531   17.975853   23.059997 C.3        1 MOL1        -0.1375
      15    H10     20.009523   16.982403   23.313560 H          1 MOL1         0.0976
      16    H11     20.563209   17.977774   21.973374 H          1 MOL1         0.0976
      17    C5      21.766570   18.159590   23.771675 C.3        1 MOL1        -0.1350
      18    H12     22.411146   17.303998   23.526075 H          1 MOL1         0.0976
      19    H13     21.623789   18.133650   24.861042 H          1 MOL1         0.0976
      20    C6      22.495718   19.463033   23.373535 C.3        1 MOL1        -0.2365
      21    H14     22.627329   19.525617   22.285555 H          1 MOL1         0.0987
      22    H15     23.491253   19.501983   23.834326 H          1 MOL1         0.0987
      23    H16     21.944348   20.351325   23.705707 H          1 MOL1         0.0987
@<TRIPOS>BOND
    1     1     2    1
    2     1     3    1
    3     1     4    1
    4     1     5    1
    5     5     6    1
    6     5     7    1
    7     5     8    1
    8     8     9    1
    9     8    10    1
   10     8    11    1
   11    11    12    1
   12    11    13    1
   13    11    14    1
   14    14    15    1
   15    14    16    1
   16    14    17    1
   17    17    18    1
   18    17    19    1
   19    17    20    1
   20    20    21    1
   21    20    22    1
   22    20    23    1
@<TRIPOS>SUBSTRUCTURE
       1 MOL1            1 RESIDUE      1      MOL     
@<SCITEGIC>MOL_PROPERTY
VConf Rank
SciTegic.value.IntegerValue
238

@<SCITEGIC>MOL_PROPERTY
Conf_Id
SciTegic.value.IntegerValue
85

@<SCITEGIC>MOL_PROPERTY
Delta U+W
SciTegic.value.DoubleValue
1.193

@<SCITEGIC>MOL_PROPERTY
U+W
SciTegic.value.DoubleValue
-7.189

@<SCITEGIC>MOL_PROPERTY
Grad RMS
SciTegic.value.DoubleValue
0.000000

@<SCITEGIC>MOL_PROPERTY
U
SciTegic.value.DoubleValue
48.775

@<SCITEGIC>MOL_PROPERTY
W
SciTegic.value.DoubleValue
-55.965

@<SCITEGIC>MOL_PROPERTY
W(PB)
SciTegic.value.DoubleValue
-58.038

@<SCITEGIC>MOL_PROPERTY
W(SA)
SciTegic.value.DoubleValue
2.073

@<SCITEGIC>MOL_PROPERTY
Valence
SciTegic.value.DoubleValue
2.602

@<SCITEGIC>MOL_PROPERTY
Coulomb
SciTegic.value.DoubleValue
45.581

@<SCITEGIC>MOL_PROPERTY
VdW
SciTegic.value.DoubleValue
0.592

@<SCITEGIC>MOL_PROPERTY
VdW6
SciTegic.value.DoubleValue
-6.616

@<SCITEGIC>MOL_PROPERTY
VdW12
SciTegic.value.DoubleValue
7.208

@<SCITEGIC>MOL_PROPERTY
Bond
SciTegic.value.DoubleValue
0.196

@<SCITEGIC>MOL_PROPERTY
Angle
SciTegic.value.DoubleValue
0.832

@<SCITEGIC>MOL_PROPERTY
Pdih
SciTegic.value.DoubleValue
1.574

@<SCITEGIC>MOL_PROPERTY
Idih
SciTegic.value.DoubleValue
0.000

@<SCITEGIC>MOL_PROPERTY
Tether
SciTegic.value.DoubleValue
0.000

@<TRIPOS>MOLECULE
guest-2_confgen4.mol2 : confsearch ligand conformer 239
          23          22           1
SMALL
USER_CHARGES
 
@<TRIPOS>ATOM
       1    N1      19.368654   20.945208   22.863160 N.4        1 MOL1        -0.5940
       2    H1      19.060596   20.241654   22.184350 H          1 MOL1         0.3649
       3    H2      19.637728   21.783437   22.336591 H          1 MOL1         0.3649
       4    H3      18.554379   21.198614   23.432156 H          1 MOL1         0.3649
       5    C1      20.509617   20.426177   23.716666 C.3        1 MOL1         0.0207
       6    H4      20.778804   21.226791   24.410976 H          1 MOL1         0.0950
       7    H5      21.370545   20.233467   23.071070 H          1 MOL1         0.0950
       8    C2      20.163661   19.156970   24.521742 C.3        1 MOL1        -0.1415
       9    H6      20.860780   19.098397   25.368165 H          1 MOL1         0.0976
      10    H7      19.164223   19.259642   24.964974 H          1 MOL1         0.0976
      11    C3      20.264041   17.823982   23.732327 C.3        1 MOL1        -0.1375
      12    H8      20.048076   17.008421   24.436404 H          1 MOL1         0.0976
      13    H9      21.299453   17.660370   23.402747 H          1 MOL1         0.0976
      14    C4      19.293612   17.690111   22.530825 C.3        1 MOL1        -0.1375
      15    H10     18.961705   16.644509   22.465297 H          1 MOL1         0.0976
      16    H11     18.383740   18.277820   22.710979 H          1 MOL1         0.0976
      17    C5      19.943652   18.067687   21.177318 C.3        1 MOL1        -0.1350
      18    H12     20.746253   17.352239   20.949061 H          1 MOL1         0.0976
      19    H13     20.423205   19.052334   21.230002 H          1 MOL1         0.0976
      20    C6      18.914243   18.058197   20.027512 C.3        1 MOL1        -0.2365
      21    H14     18.456212   17.066504   19.917419 H          1 MOL1         0.0987
      22    H15     19.395620   18.313258   19.074411 H          1 MOL1         0.0987
      23    H16     18.112005   18.786050   20.204741 H          1 MOL1         0.0987
@<TRIPOS>BOND
    1     1     2    1
    2     1     3    1
    3     1     4    1
    4     1     5    1
    5     5     6    1
    6     5     7    1
    7     5     8    1
    8     8     9    1
    9     8    10    1
   10     8    11    1
   11    11    12    1
   12    11    13    1
   13    11    14    1
   14    14    15    1
   15    14    16    1
   16    14    17    1
   17    17    18    1
   18    17    19    1
   19    17    20    1
   20    20    21    1
   21    20    22    1
   22    20    23    1
@<TRIPOS>SUBSTRUCTURE
       1 MOL1            1 RESIDUE      1      MOL     
@<SCITEGIC>MOL_PROPERTY
VConf Rank
SciTegic.value.IntegerValue
239

@<SCITEGIC>MOL_PROPERTY
Conf_Id
SciTegic.value.IntegerValue
82

@<SCITEGIC>MOL_PROPERTY
Delta U+W
SciTegic.value.DoubleValue
5.994

@<SCITEGIC>MOL_PROPERTY
U+W
SciTegic.value.DoubleValue
-2.388

@<SCITEGIC>MOL_PROPERTY
Grad RMS
SciTegic.value.DoubleValue
0.000000

@<SCITEGIC>MOL_PROPERTY
U
SciTegic.value.DoubleValue
52.836

@<SCITEGIC>MOL_PROPERTY
W
SciTegic.value.DoubleValue
-55.224

@<SCITEGIC>MOL_PROPERTY
W(PB)
SciTegic.value.DoubleValue
-57.261

@<SCITEGIC>MOL_PROPERTY
W(SA)
SciTegic.value.DoubleValue
2.037

@<SCITEGIC>MOL_PROPERTY
Valence
SciTegic.value.DoubleValue
5.785

@<SCITEGIC>MOL_PROPERTY
Coulomb
SciTegic.value.DoubleValue
46.744

@<SCITEGIC>MOL_PROPERTY
VdW
SciTegic.value.DoubleValue
0.307

@<SCITEGIC>MOL_PROPERTY
VdW6
SciTegic.value.DoubleValue
-7.672

@<SCITEGIC>MOL_PROPERTY
VdW12
SciTegic.value.DoubleValue
7.979

@<SCITEGIC>MOL_PROPERTY
Bond
SciTegic.value.DoubleValue
0.217

@<SCITEGIC>MOL_PROPERTY
Angle
SciTegic.value.DoubleValue
1.470

@<SCITEGIC>MOL_PROPERTY
Pdih
SciTegic.value.DoubleValue
4.098

@<SCITEGIC>MOL_PROPERTY
Idih
SciTegic.value.DoubleValue
0.000

@<SCITEGIC>MOL_PROPERTY
Tether
SciTegic.value.DoubleValue
0.000

@<TRIPOS>MOLECULE
guest-2_confgen4.mol2 : confsearch ligand conformer 240
          23          22           1
SMALL
USER_CHARGES
 
@<TRIPOS>ATOM
       1    N1      20.592855   20.581589   21.460855 N.4        1 MOL1        -0.5940
       2    H1      21.414782   20.412875   20.871799 H          1 MOL1         0.3649
       3    H2      20.155008   21.445368   21.122510 H          1 MOL1         0.3649
       4    H3      19.932791   19.815840   21.291682 H          1 MOL1         0.3649
       5    C1      20.964269   20.675999   22.928095 C.3        1 MOL1         0.0207
       6    H4      20.066305   20.920259   23.501789 H          1 MOL1         0.0950
       7    H5      21.666587   21.508179   23.026765 H          1 MOL1         0.0950
       8    C2      21.615976   19.397656   23.493634 C.3        1 MOL1        -0.1415
       9    H6      22.351018   19.007691   22.777036 H          1 MOL1         0.0976
      10    H7      22.190475   19.682368   24.385109 H          1 MOL1         0.0976
      11    C3      20.625164   18.276205   23.906857 C.3        1 MOL1        -0.1375
      12    H8      19.975979   18.630140   24.719728 H          1 MOL1         0.0976
      13    H9      21.217380   17.458001   24.339669 H          1 MOL1         0.0976
      14    C4      19.768136   17.691012   22.755199 C.3        1 MOL1        -0.1375
      15    H10     20.308822   17.769180   21.802690 H          1 MOL1         0.0976
      16    H11     19.634936   16.614522   22.931733 H          1 MOL1         0.0976
      17    C5      18.362918   18.333090   22.654207 C.3        1 MOL1        -0.1350
      18    H12     18.429406   19.427100   22.622497 H          1 MOL1         0.0976
      19    H13     17.788417   18.091142   23.559493 H          1 MOL1         0.0976
      20    C6      17.592795   17.828834   21.415473 C.3        1 MOL1        -0.2365
      21    H14     18.121259   18.081884   20.487325 H          1 MOL1         0.0987
      22    H15     16.594311   18.282737   21.368762 H          1 MOL1         0.0987
      23    H16     17.464851   16.738916   21.448277 H          1 MOL1         0.0987
@<TRIPOS>BOND
    1     1     2    1
    2     1     3    1
    3     1     4    1
    4     1     5    1
    5     5     6    1
    6     5     7    1
    7     5     8    1
    8     8     9    1
    9     8    10    1
   10     8    11    1
   11    11    12    1
   12    11    13    1
   13    11    14    1
   14    14    15    1
   15    14    16    1
   16    14    17    1
   17    17    18    1
   18    17    19    1
   19    17    20    1
   20    20    21    1
   21    20    22    1
   22    20    23    1
@<TRIPOS>SUBSTRUCTURE
       1 MOL1            1 RESIDUE      1      MOL     
@<SCITEGIC>MOL_PROPERTY
VConf Rank
SciTegic.value.IntegerValue
240

@<SCITEGIC>MOL_PROPERTY
Conf_Id
SciTegic.value.IntegerValue
5

@<SCITEGIC>MOL_PROPERTY
Delta U+W
SciTegic.value.DoubleValue
6.087

@<SCITEGIC>MOL_PROPERTY
U+W
SciTegic.value.DoubleValue
-2.295

@<SCITEGIC>MOL_PROPERTY
Grad RMS
SciTegic.value.DoubleValue
0.000000

@<SCITEGIC>MOL_PROPERTY
U
SciTegic.value.DoubleValue
52.836

@<SCITEGIC>MOL_PROPERTY
W
SciTegic.value.DoubleValue
-55.131

@<SCITEGIC>MOL_PROPERTY
W(PB)
SciTegic.value.DoubleValue
-57.202

@<SCITEGIC>MOL_PROPERTY
W(SA)
SciTegic.value.DoubleValue
2.071

@<SCITEGIC>MOL_PROPERTY
Valence
SciTegic.value.DoubleValue
5.785

@<SCITEGIC>MOL_PROPERTY
Coulomb
SciTegic.value.DoubleValue
46.744

@<SCITEGIC>MOL_PROPERTY
VdW
SciTegic.value.DoubleValue
0.307

@<SCITEGIC>MOL_PROPERTY
VdW6
SciTegic.value.DoubleValue
-7.672

@<SCITEGIC>MOL_PROPERTY
VdW12
SciTegic.value.DoubleValue
7.980

@<SCITEGIC>MOL_PROPERTY
Bond
SciTegic.value.DoubleValue
0.217

@<SCITEGIC>MOL_PROPERTY
Angle
SciTegic.value.DoubleValue
1.470

@<SCITEGIC>MOL_PROPERTY
Pdih
SciTegic.value.DoubleValue
4.098

@<SCITEGIC>MOL_PROPERTY
Idih
SciTegic.value.DoubleValue
0.000

@<SCITEGIC>MOL_PROPERTY
Tether
SciTegic.value.DoubleValue
0.000

@<TRIPOS>MOLECULE
guest-2_confgen4.mol2 : confsearch ligand conformer 241
          23          22           1
SMALL
USER_CHARGES
 
@<TRIPOS>ATOM
       1    N1      20.685756   20.611164   25.971911 N.4        1 MOL1        -0.5940
       2    H1      19.727801   20.678817   26.330558 H          1 MOL1         0.3649
       3    H2      21.200484   21.416860   26.343399 H          1 MOL1         0.3649
       4    H3      21.104814   19.772907   26.387363 H          1 MOL1         0.3649
       5    C1      20.721259   20.570187   24.457659 C.3        1 MOL1         0.0207
       6    H4      21.768352   20.528546   24.145636 H          1 MOL1         0.0950
       7    H5      20.288287   21.502308   24.084589 H          1 MOL1         0.0950
       8    C2      19.956957   19.371530   23.868047 C.3        1 MOL1        -0.1415
       9    H6      20.384743   18.438275   24.258091 H          1 MOL1         0.0976
      10    H7      18.909921   19.408552   24.197356 H          1 MOL1         0.0976
      11    C3      20.017117   19.366371   22.324500 C.3        1 MOL1        -0.1375
      12    H8      21.066351   19.334660   21.999071 H          1 MOL1         0.0976
      13    H9      19.593057   20.303875   21.938416 H          1 MOL1         0.0976
      14    C4      19.252388   18.166173   21.721412 C.3        1 MOL1        -0.1375
      15    H10     19.676377   17.228688   22.107246 H          1 MOL1         0.0976
      16    H11     18.203242   18.197744   22.046696 H          1 MOL1         0.0976
      17    C5      19.312676   18.161370   20.177682 C.3        1 MOL1        -0.1350
      18    H12     20.360343   18.127376   19.847210 H          1 MOL1         0.0976
      19    H13     18.887328   19.096336   19.786670 H          1 MOL1         0.0976
      20    C6      18.548030   16.961557   19.579122 C.3        1 MOL1        -0.2365
      21    H14     18.602136   16.975288   18.482796 H          1 MOL1         0.0987
      22    H15     17.488203   16.986788   19.864358 H          1 MOL1         0.0987
      23    H16     18.972708   16.010256   19.925392 H          1 MOL1         0.0987
@<TRIPOS>BOND
    1     1     2    1
    2     1     3    1
    3     1     4    1
    4     1     5    1
    5     5     6    1
    6     5     7    1
    7     5     8    1
    8     8     9    1
    9     8    10    1
   10     8    11    1
   11    11    12    1
   12    11    13    1
   13    11    14    1
   14    14    15    1
   15    14    16    1
   16    14    17    1
   17    17    18    1
   18    17    19    1
   19    17    20    1
   20    20    21    1
   21    20    22    1
   22    20    23    1
@<TRIPOS>SUBSTRUCTURE
       1 MOL1            1 RESIDUE      1      MOL     
@<SCITEGIC>MOL_PROPERTY
VConf Rank
SciTegic.value.IntegerValue
241

@<SCITEGIC>MOL_PROPERTY
Conf_Id
SciTegic.value.IntegerValue
40

@<SCITEGIC>MOL_PROPERTY
Delta U+W
SciTegic.value.DoubleValue
0.000

@<SCITEGIC>MOL_PROPERTY
U+W
SciTegic.value.DoubleValue
-8.382

@<SCITEGIC>MOL_PROPERTY
Grad RMS
SciTegic.value.DoubleValue
0.000000

@<SCITEGIC>MOL_PROPERTY
U
SciTegic.value.DoubleValue
46.604

@<SCITEGIC>MOL_PROPERTY
W
SciTegic.value.DoubleValue
-54.986

@<SCITEGIC>MOL_PROPERTY
W(PB)
SciTegic.value.DoubleValue
-57.162

@<SCITEGIC>MOL_PROPERTY
W(SA)
SciTegic.value.DoubleValue
2.176

@<SCITEGIC>MOL_PROPERTY
Valence
SciTegic.value.DoubleValue
1.727

@<SCITEGIC>MOL_PROPERTY
Coulomb
SciTegic.value.DoubleValue
44.434

@<SCITEGIC>MOL_PROPERTY
VdW
SciTegic.value.DoubleValue
0.443

@<SCITEGIC>MOL_PROPERTY
VdW6
SciTegic.value.DoubleValue
-4.623

@<SCITEGIC>MOL_PROPERTY
VdW12
SciTegic.value.DoubleValue
5.066

@<SCITEGIC>MOL_PROPERTY
Bond
SciTegic.value.DoubleValue
0.112

@<SCITEGIC>MOL_PROPERTY
Angle
SciTegic.value.DoubleValue
0.386

@<SCITEGIC>MOL_PROPERTY
Pdih
SciTegic.value.DoubleValue
1.228

@<SCITEGIC>MOL_PROPERTY
Idih
SciTegic.value.DoubleValue
0.000

@<SCITEGIC>MOL_PROPERTY
Tether
SciTegic.value.DoubleValue
0.000

@<TRIPOS>MOLECULE
guest-2_confgen4.mol2 : confsearch ligand conformer 242
          23          22           1
SMALL
USER_CHARGES
 
@<TRIPOS>ATOM
       1    N1      21.348081   22.075331   21.643498 N.4        1 MOL1        -0.5940
       2    H1      21.716674   22.561943   22.467019 H          1 MOL1         0.3649
       3    H2      20.498154   22.570982   21.355770 H          1 MOL1         0.3649
       4    H3      22.034730   22.199949   20.891825 H          1 MOL1         0.3649
       5    C1      21.080769   20.610677   21.924774 C.3        1 MOL1         0.0207
       6    H4      22.029757   20.140519   22.196404 H          1 MOL1         0.0950
       7    H5      20.721791   20.152318   20.999809 H          1 MOL1         0.0950
       8    C2      20.052591   20.390422   23.050594 C.3        1 MOL1        -0.1415
       9    H6      20.404112   20.896557   23.959554 H          1 MOL1         0.0976
      10    H7      19.098807   20.861428   22.777767 H          1 MOL1         0.0976
      11    C3      19.821503   18.894012   23.368362 C.3        1 MOL1        -0.1375
      12    H8      19.169865   18.826846   24.249168 H          1 MOL1         0.0976
      13    H9      20.775713   18.427798   23.650317 H          1 MOL1         0.0976
      14    C4      19.185173   18.113275   22.190182 C.3        1 MOL1        -0.1375
      15    H10     18.221183   18.567413   21.922408 H          1 MOL1         0.0976
      16    H11     19.825355   18.201551   21.302556 H          1 MOL1         0.0976
      17    C5      18.981036   16.607852   22.487770 C.3        1 MOL1        -0.1350
      18    H12     19.944171   16.145873   22.746118 H          1 MOL1         0.0976
      19    H13     18.639046   16.110943   21.569077 H          1 MOL1         0.0976
      20    C6      17.954846   16.334574   23.610999 C.3        1 MOL1        -0.2365
      21    H14     18.310157   16.702698   24.581305 H          1 MOL1         0.0987
      22    H15     17.776342   15.256361   23.713662 H          1 MOL1         0.0987
      23    H16     16.992139   16.814352   23.391861 H          1 MOL1         0.0987
@<TRIPOS>BOND
    1     1     2    1
    2     1     3    1
    3     1     4    1
    4     1     5    1
    5     5     6    1
    6     5     7    1
    7     5     8    1
    8     8     9    1
    9     8    10    1
   10     8    11    1
   11    11    12    1
   12    11    13    1
   13    11    14    1
   14    14    15    1
   15    14    16    1
   16    14    17    1
   17    17    18    1
   18    17    19    1
   19    17    20    1
   20    20    21    1
   21    20    22    1
   22    20    23    1
@<TRIPOS>SUBSTRUCTURE
       1 MOL1            1 RESIDUE      1      MOL     
@<SCITEGIC>MOL_PROPERTY
VConf Rank
SciTegic.value.IntegerValue
242

@<SCITEGIC>MOL_PROPERTY
Conf_Id
SciTegic.value.IntegerValue
65

@<SCITEGIC>MOL_PROPERTY
Delta U+W
SciTegic.value.DoubleValue
1.004

@<SCITEGIC>MOL_PROPERTY
U+W
SciTegic.value.DoubleValue
-7.378

@<SCITEGIC>MOL_PROPERTY
Grad RMS
SciTegic.value.DoubleValue
0.000000

@<SCITEGIC>MOL_PROPERTY
U
SciTegic.value.DoubleValue
48.047

@<SCITEGIC>MOL_PROPERTY
W
SciTegic.value.DoubleValue
-55.425

@<SCITEGIC>MOL_PROPERTY
W(PB)
SciTegic.value.DoubleValue
-57.542

@<SCITEGIC>MOL_PROPERTY
W(SA)
SciTegic.value.DoubleValue
2.116

@<SCITEGIC>MOL_PROPERTY
Valence
SciTegic.value.DoubleValue
2.583

@<SCITEGIC>MOL_PROPERTY
Coulomb
SciTegic.value.DoubleValue
44.791

@<SCITEGIC>MOL_PROPERTY
VdW
SciTegic.value.DoubleValue
0.673

@<SCITEGIC>MOL_PROPERTY
VdW6
SciTegic.value.DoubleValue
-5.788

@<SCITEGIC>MOL_PROPERTY
VdW12
SciTegic.value.DoubleValue
6.462

@<SCITEGIC>MOL_PROPERTY
Bond
SciTegic.value.DoubleValue
0.177

@<SCITEGIC>MOL_PROPERTY
Angle
SciTegic.value.DoubleValue
0.787

@<SCITEGIC>MOL_PROPERTY
Pdih
SciTegic.value.DoubleValue
1.619

@<SCITEGIC>MOL_PROPERTY
Idih
SciTegic.value.DoubleValue
0.000

@<SCITEGIC>MOL_PROPERTY
Tether
SciTegic.value.DoubleValue
0.000

@<TRIPOS>MOLECULE
guest-2_confgen4.mol2 : confsearch ligand conformer 243
          23          22           1
SMALL
USER_CHARGES
 
@<TRIPOS>ATOM
       1    N1      20.711174   17.464424   25.687131 N.4        1 MOL1        -0.5940
       2    H1      21.475801   16.799915   25.530248 H          1 MOL1         0.3649
       3    H2      20.083755   17.038801   26.377942 H          1 MOL1         0.3649
       4    H3      21.119402   18.295257   26.127471 H          1 MOL1         0.3649
       5    C1      19.985178   17.804809   24.401501 C.3        1 MOL1         0.0207
       6    H4      19.169273   18.488648   24.648852 H          1 MOL1         0.0950
       7    H5      19.553020   16.882660   24.003644 H          1 MOL1         0.0950
       8    C2      20.901950   18.446215   23.342605 C.3        1 MOL1        -0.1415
       9    H6      21.335384   19.373142   23.741262 H          1 MOL1         0.0976
      10    H7      21.741979   17.768642   23.139646 H          1 MOL1         0.0976
      11    C3      20.167436   18.744919   22.014117 C.3        1 MOL1        -0.1375
      12    H8      19.743334   17.814122   21.612715 H          1 MOL1         0.0976
      13    H9      20.908941   19.090316   21.282110 H          1 MOL1         0.0976
      14    C4      19.049518   19.808247   22.163007 C.3        1 MOL1        -0.1375
      15    H10     18.321355   19.473217   22.913367 H          1 MOL1         0.0976
      16    H11     19.477860   20.745255   22.544789 H          1 MOL1         0.0976
      17    C5      18.287135   20.089014   20.845258 C.3        1 MOL1        -0.1350
      18    H12     17.443872   20.759432   21.062787 H          1 MOL1         0.0976
      19    H13     17.847438   19.156719   20.464087 H          1 MOL1         0.0976
      20    C6      19.165485   20.735973   19.750117 C.3        1 MOL1        -0.2365
      21    H14     19.951376   20.052343   19.406197 H          1 MOL1         0.0987
      22    H15     19.643287   21.653369   20.117678 H          1 MOL1         0.0987
      23    H16     18.555938   21.002214   18.876897 H          1 MOL1         0.0987
@<TRIPOS>BOND
    1     1     2    1
    2     1     3    1
    3     1     4    1
    4     1     5    1
    5     5     6    1
    6     5     7    1
    7     5     8    1
    8     8     9    1
    9     8    10    1
   10     8    11    1
   11    11    12    1
   12    11    13    1
   13    11    14    1
   14    14    15    1
   15    14    16    1
   16    14    17    1
   17    17    18    1
   18    17    19    1
   19    17    20    1
   20    20    21    1
   21    20    22    1
   22    20    23    1
@<TRIPOS>SUBSTRUCTURE
       1 MOL1            1 RESIDUE      1      MOL     
@<SCITEGIC>MOL_PROPERTY
VConf Rank
SciTegic.value.IntegerValue
243

@<SCITEGIC>MOL_PROPERTY
Conf_Id
SciTegic.value.IntegerValue
92

@<SCITEGIC>MOL_PROPERTY
Delta U+W
SciTegic.value.DoubleValue
0.973

@<SCITEGIC>MOL_PROPERTY
U+W
SciTegic.value.DoubleValue
-7.409

@<SCITEGIC>MOL_PROPERTY
Grad RMS
SciTegic.value.DoubleValue
0.000000

@<SCITEGIC>MOL_PROPERTY
U
SciTegic.value.DoubleValue
48.047

@<SCITEGIC>MOL_PROPERTY
W
SciTegic.value.DoubleValue
-55.456

@<SCITEGIC>MOL_PROPERTY
W(PB)
SciTegic.value.DoubleValue
-57.595

@<SCITEGIC>MOL_PROPERTY
W(SA)
SciTegic.value.DoubleValue
2.138

@<SCITEGIC>MOL_PROPERTY
Valence
SciTegic.value.DoubleValue
2.583

@<SCITEGIC>MOL_PROPERTY
Coulomb
SciTegic.value.DoubleValue
44.791

@<SCITEGIC>MOL_PROPERTY
VdW
SciTegic.value.DoubleValue
0.674

@<SCITEGIC>MOL_PROPERTY
VdW6
SciTegic.value.DoubleValue
-5.789

@<SCITEGIC>MOL_PROPERTY
VdW12
SciTegic.value.DoubleValue
6.462

@<SCITEGIC>MOL_PROPERTY
Bond
SciTegic.value.DoubleValue
0.177

@<SCITEGIC>MOL_PROPERTY
Angle
SciTegic.value.DoubleValue
0.787

@<SCITEGIC>MOL_PROPERTY
Pdih
SciTegic.value.DoubleValue
1.619

@<SCITEGIC>MOL_PROPERTY
Idih
SciTegic.value.DoubleValue
0.000

@<SCITEGIC>MOL_PROPERTY
Tether
SciTegic.value.DoubleValue
0.000

@<TRIPOS>MOLECULE
guest-2_confgen4.mol2 : confsearch ligand conformer 244
          23          22           1
SMALL
USER_CHARGES
 
@<TRIPOS>ATOM
       1    N1      18.719778   16.916150   19.914814 N.4        1 MOL1        -0.5940
       2    H1      18.398876   17.320716   19.028597 H          1 MOL1         0.3649
       3    H2      18.073559   16.154579   20.145606 H          1 MOL1         0.3649
       4    H3      19.634760   16.490733   19.734070 H          1 MOL1         0.3649
       5    C1      18.786488   17.954422   21.016320 C.3        1 MOL1         0.0207
       6    H4      17.788505   18.384853   21.135397 H          1 MOL1         0.0950
       7    H5      19.466078   18.745893   20.690093 H          1 MOL1         0.0950
       8    C2      19.265529   17.376993   22.361665 C.3        1 MOL1        -0.1415
       9    H6      18.600642   16.553973   22.655788 H          1 MOL1         0.0976
      10    H7      20.267572   16.943941   22.241782 H          1 MOL1         0.0976
      11    C3      19.287280   18.432947   23.491939 C.3        1 MOL1        -0.1375
      12    H8      19.546885   17.933367   24.435590 H          1 MOL1         0.0976
      13    H9      18.277901   18.845977   23.626880 H          1 MOL1         0.0976
      14    C4      20.291254   19.581746   23.231634 C.3        1 MOL1        -0.1375
      15    H10     21.293280   19.162951   23.064384 H          1 MOL1         0.0976
      16    H11     20.015089   20.121714   22.316088 H          1 MOL1         0.0976
      17    C5      20.341299   20.578184   24.411202 C.3        1 MOL1        -0.1350
      18    H12     20.625212   20.049795   25.332157 H          1 MOL1         0.0976
      19    H13     19.341008   20.999791   24.583378 H          1 MOL1         0.0976
      20    C6      21.341820   21.724165   24.149958 C.3        1 MOL1        -0.2365
      21    H14     22.358596   21.335606   24.007076 H          1 MOL1         0.0987
      22    H15     21.363572   22.420630   24.998196 H          1 MOL1         0.0987
      23    H16     21.064413   22.293899   23.253482 H          1 MOL1         0.0987
@<TRIPOS>BOND
    1     1     2    1
    2     1     3    1
    3     1     4    1
    4     1     5    1
    5     5     6    1
    6     5     7    1
    7     5     8    1
    8     8     9    1
    9     8    10    1
   10     8    11    1
   11    11    12    1
   12    11    13    1
   13    11    14    1
   14    14    15    1
   15    14    16    1
   16    14    17    1
   17    17    18    1
   18    17    19    1
   19    17    20    1
   20    20    21    1
   21    20    22    1
   22    20    23    1
@<TRIPOS>SUBSTRUCTURE
       1 MOL1            1 RESIDUE      1      MOL     
@<SCITEGIC>MOL_PROPERTY
VConf Rank
SciTegic.value.IntegerValue
244

@<SCITEGIC>MOL_PROPERTY
Conf_Id
SciTegic.value.IntegerValue
42

@<SCITEGIC>MOL_PROPERTY
Delta U+W
SciTegic.value.DoubleValue
0.365

@<SCITEGIC>MOL_PROPERTY
U+W
SciTegic.value.DoubleValue
-8.017

@<SCITEGIC>MOL_PROPERTY
Grad RMS
SciTegic.value.DoubleValue
0.000000

@<SCITEGIC>MOL_PROPERTY
U
SciTegic.value.DoubleValue
47.375

@<SCITEGIC>MOL_PROPERTY
W
SciTegic.value.DoubleValue
-55.392

@<SCITEGIC>MOL_PROPERTY
W(PB)
SciTegic.value.DoubleValue
-57.543

@<SCITEGIC>MOL_PROPERTY
W(SA)
SciTegic.value.DoubleValue
2.152

@<SCITEGIC>MOL_PROPERTY
Valence
SciTegic.value.DoubleValue
2.032

@<SCITEGIC>MOL_PROPERTY
Coulomb
SciTegic.value.DoubleValue
44.843

@<SCITEGIC>MOL_PROPERTY
VdW
SciTegic.value.DoubleValue
0.499

@<SCITEGIC>MOL_PROPERTY
VdW6
SciTegic.value.DoubleValue
-5.218

@<SCITEGIC>MOL_PROPERTY
VdW12
SciTegic.value.DoubleValue
5.717

@<SCITEGIC>MOL_PROPERTY
Bond
SciTegic.value.DoubleValue
0.135

@<SCITEGIC>MOL_PROPERTY
Angle
SciTegic.value.DoubleValue
0.514

@<SCITEGIC>MOL_PROPERTY
Pdih
SciTegic.value.DoubleValue
1.383

@<SCITEGIC>MOL_PROPERTY
Idih
SciTegic.value.DoubleValue
0.000

@<SCITEGIC>MOL_PROPERTY
Tether
SciTegic.value.DoubleValue
0.000

@<TRIPOS>MOLECULE
guest-2_confgen4.mol2 : confsearch ligand conformer 245
          23          22           1
SMALL
USER_CHARGES
 
@<TRIPOS>ATOM
       1    N1      17.140375   18.376538   24.315688 N.4        1 MOL1        -0.5940
       2    H1      16.811018   17.660481   23.660387 H          1 MOL1         0.3649
       3    H2      16.339639   18.636342   24.901582 H          1 MOL1         0.3649
       4    H3      17.828408   17.931178   24.930235 H          1 MOL1         0.3649
       5    C1      17.722162   19.576590   23.593897 C.3        1 MOL1         0.0207
       6    H4      18.030734   20.308742   24.345001 H          1 MOL1         0.0950
       7    H5      16.922690   20.020461   22.994401 H          1 MOL1         0.0950
       8    C2      18.915355   19.236394   22.679682 C.3        1 MOL1        -0.1415
       9    H6      18.610578   18.480623   21.943767 H          1 MOL1         0.0976
      10    H7      19.176818   20.142235   22.119140 H          1 MOL1         0.0976
      11    C3      20.153032   18.744529   23.469005 C.3        1 MOL1        -0.1375
      12    H8      19.865732   17.901058   24.110368 H          1 MOL1         0.0976
      13    H9      20.492967   19.540788   24.145631 H          1 MOL1         0.0976
      14    C4      21.337322   18.284737   22.579564 C.3        1 MOL1        -0.1375
      15    H10     22.129783   17.920335   23.247922 H          1 MOL1         0.0976
      16    H11     21.040287   17.417284   21.974154 H          1 MOL1         0.0976
      17    C5      21.941101   19.389337   21.674163 C.3        1 MOL1        -0.1350
      18    H12     23.027487   19.235197   21.611100 H          1 MOL1         0.0976
      19    H13     21.803138   20.378116   22.133381 H          1 MOL1         0.0976
      20    C6      21.375028   19.380477   20.234807 C.3        1 MOL1        -0.2365
      21    H14     21.575722   18.420715   19.741211 H          1 MOL1         0.0987
      22    H15     21.845135   20.168642   19.632553 H          1 MOL1         0.0987
      23    H16     20.292745   19.549021   20.215422 H          1 MOL1         0.0987
@<TRIPOS>BOND
    1     1     2    1
    2     1     3    1
    3     1     4    1
    4     1     5    1
    5     5     6    1
    6     5     7    1
    7     5     8    1
    8     8     9    1
    9     8    10    1
   10     8    11    1
   11    11    12    1
   12    11    13    1
   13    11    14    1
   14    14    15    1
   15    14    16    1
   16    14    17    1
   17    17    18    1
   18    17    19    1
   19    17    20    1
   20    20    21    1
   21    20    22    1
   22    20    23    1
@<TRIPOS>SUBSTRUCTURE
       1 MOL1            1 RESIDUE      1      MOL     
@<SCITEGIC>MOL_PROPERTY
VConf Rank
SciTegic.value.IntegerValue
245

@<SCITEGIC>MOL_PROPERTY
Conf_Id
SciTegic.value.IntegerValue
3

@<SCITEGIC>MOL_PROPERTY
Delta U+W
SciTegic.value.DoubleValue
3.283

@<SCITEGIC>MOL_PROPERTY
U+W
SciTegic.value.DoubleValue
-5.099

@<SCITEGIC>MOL_PROPERTY
Grad RMS
SciTegic.value.DoubleValue
0.000000

@<SCITEGIC>MOL_PROPERTY
U
SciTegic.value.DoubleValue
50.701

@<SCITEGIC>MOL_PROPERTY
W
SciTegic.value.DoubleValue
-55.800

@<SCITEGIC>MOL_PROPERTY
W(PB)
SciTegic.value.DoubleValue
-57.867

@<SCITEGIC>MOL_PROPERTY
W(SA)
SciTegic.value.DoubleValue
2.067

@<SCITEGIC>MOL_PROPERTY
Valence
SciTegic.value.DoubleValue
4.880

@<SCITEGIC>MOL_PROPERTY
Coulomb
SciTegic.value.DoubleValue
45.095

@<SCITEGIC>MOL_PROPERTY
VdW
SciTegic.value.DoubleValue
0.726

@<SCITEGIC>MOL_PROPERTY
VdW6
SciTegic.value.DoubleValue
-6.620

@<SCITEGIC>MOL_PROPERTY
VdW12
SciTegic.value.DoubleValue
7.346

@<SCITEGIC>MOL_PROPERTY
Bond
SciTegic.value.DoubleValue
0.222

@<SCITEGIC>MOL_PROPERTY
Angle
SciTegic.value.DoubleValue
1.260

@<SCITEGIC>MOL_PROPERTY
Pdih
SciTegic.value.DoubleValue
3.398

@<SCITEGIC>MOL_PROPERTY
Idih
SciTegic.value.DoubleValue
0.000

@<SCITEGIC>MOL_PROPERTY
Tether
SciTegic.value.DoubleValue
0.000

@<TRIPOS>MOLECULE
guest-2_confgen4.mol2 : confsearch ligand conformer 246
          23          22           1
SMALL
USER_CHARGES
 
@<TRIPOS>ATOM
       1    N1      19.323572   17.185559   24.750430 N.4        1 MOL1        -0.5940
       2    H1      18.415158   17.309984   25.208531 H          1 MOL1         0.3649
       3    H2      19.775099   16.379230   25.195169 H          1 MOL1         0.3649
       4    H3      19.139225   16.927692   23.776202 H          1 MOL1         0.3649
       5    C1      20.178336   18.433930   24.846566 C.3        1 MOL1         0.0207
       6    H4      21.138811   18.225004   24.368729 H          1 MOL1         0.0950
       7    H5      20.363420   18.629472   25.906298 H          1 MOL1         0.0950
       8    C2      19.533287   19.678268   24.202507 C.3        1 MOL1        -0.1415
       9    H6      18.595413   19.906464   24.726074 H          1 MOL1         0.0976
      10    H7      20.192199   20.541320   24.366324 H          1 MOL1         0.0976
      11    C3      19.249537   19.533435   22.685881 C.3        1 MOL1        -0.1375
      12    H8      18.757012   20.452575   22.343134 H          1 MOL1         0.0976
      13    H9      18.531471   18.720322   22.515655 H          1 MOL1         0.0976
      14    C4      20.529219   19.287572   21.846601 C.3        1 MOL1        -0.1375
      15    H10     21.235210   20.115960   21.996666 H          1 MOL1         0.0976
      16    H11     21.035615   18.381636   22.204648 H          1 MOL1         0.0976
      17    C5      20.250024   19.115339   20.333712 C.3        1 MOL1        -0.1350
      18    H12     19.552569   18.280712   20.176614 H          1 MOL1         0.0976
      19    H13     21.186393   18.830918   19.833531 H          1 MOL1         0.0976
      20    C6      19.695256   20.390899   19.659528 C.3        1 MOL1        -0.2365
      21    H14     20.358729   21.248546   19.830561 H          1 MOL1         0.0987
      22    H15     18.697677   20.646459   20.037378 H          1 MOL1         0.0987
      23    H16     19.608725   20.245067   18.575009 H          1 MOL1         0.0987
@<TRIPOS>BOND
    1     1     2    1
    2     1     3    1
    3     1     4    1
    4     1     5    1
    5     5     6    1
    6     5     7    1
    7     5     8    1
    8     8     9    1
    9     8    10    1
   10     8    11    1
   11    11    12    1
   12    11    13    1
   13    11    14    1
   14    14    15    1
   15    14    16    1
   16    14    17    1
   17    17    18    1
   18    17    19    1
   19    17    20    1
   20    20    21    1
   21    20    22    1
   22    20    23    1
@<TRIPOS>SUBSTRUCTURE
       1 MOL1            1 RESIDUE      1      MOL     
@<SCITEGIC>MOL_PROPERTY
VConf Rank
SciTegic.value.IntegerValue
246

@<SCITEGIC>MOL_PROPERTY
Conf_Id
SciTegic.value.IntegerValue
83

@<SCITEGIC>MOL_PROPERTY
Delta U+W
SciTegic.value.DoubleValue
1.229

@<SCITEGIC>MOL_PROPERTY
U+W
SciTegic.value.DoubleValue
-7.154

@<SCITEGIC>MOL_PROPERTY
Grad RMS
SciTegic.value.DoubleValue
0.000000

@<SCITEGIC>MOL_PROPERTY
U
SciTegic.value.DoubleValue
48.727

@<SCITEGIC>MOL_PROPERTY
W
SciTegic.value.DoubleValue
-55.880

@<SCITEGIC>MOL_PROPERTY
W(PB)
SciTegic.value.DoubleValue
-57.960

@<SCITEGIC>MOL_PROPERTY
W(SA)
SciTegic.value.DoubleValue
2.080

@<SCITEGIC>MOL_PROPERTY
Valence
SciTegic.value.DoubleValue
2.671

@<SCITEGIC>MOL_PROPERTY
Coulomb
SciTegic.value.DoubleValue
45.371

@<SCITEGIC>MOL_PROPERTY
VdW
SciTegic.value.DoubleValue
0.684

@<SCITEGIC>MOL_PROPERTY
VdW6
SciTegic.value.DoubleValue
-6.511

@<SCITEGIC>MOL_PROPERTY
VdW12
SciTegic.value.DoubleValue
7.195

@<SCITEGIC>MOL_PROPERTY
Bond
SciTegic.value.DoubleValue
0.203

@<SCITEGIC>MOL_PROPERTY
Angle
SciTegic.value.DoubleValue
0.915

@<SCITEGIC>MOL_PROPERTY
Pdih
SciTegic.value.DoubleValue
1.554

@<SCITEGIC>MOL_PROPERTY
Idih
SciTegic.value.DoubleValue
0.000

@<SCITEGIC>MOL_PROPERTY
Tether
SciTegic.value.DoubleValue
0.000

@<TRIPOS>MOLECULE
guest-2_confgen4.mol2 : confsearch ligand conformer 247
          23          22           1
SMALL
USER_CHARGES
 
@<TRIPOS>ATOM
       1    N1      17.494848   19.089730   24.454437 N.4        1 MOL1        -0.5940
       2    H1      16.699860   19.649427   24.129959 H          1 MOL1         0.3649
       3    H2      18.291953   19.725275   24.555959 H          1 MOL1         0.3649
       4    H3      17.258727   18.750390   25.393016 H          1 MOL1         0.3649
       5    C1      17.805765   17.949671   23.504758 C.3        1 MOL1         0.0207
       6    H4      16.929665   17.296328   23.471333 H          1 MOL1         0.0950
       7    H5      18.638113   17.377661   23.922481 H          1 MOL1         0.0950
       8    C2      18.153730   18.411212   22.074661 C.3        1 MOL1        -0.1415
       9    H6      18.309366   17.524199   21.446294 H          1 MOL1         0.0976
      10    H7      17.290010   18.939113   21.649086 H          1 MOL1         0.0976
      11    C3      19.403447   19.323559   21.988175 C.3        1 MOL1        -0.1375
      12    H8      19.230062   20.249853   22.551793 H          1 MOL1         0.0976
      13    H9      19.533268   19.623437   20.940275 H          1 MOL1         0.0976
      14    C4      20.697030   18.635823   22.494231 C.3        1 MOL1        -0.1375
      15    H10     20.559578   18.313763   23.534778 H          1 MOL1         0.0976
      16    H11     20.884086   17.723878   21.910676 H          1 MOL1         0.0976
      17    C5      21.944421   19.550718   22.435683 C.3        1 MOL1        -0.1350
      18    H12     22.784603   19.030911   22.917095 H          1 MOL1         0.0976
      19    H13     21.767096   20.460057   23.026772 H          1 MOL1         0.0976
      20    C6      22.358960   19.937505   20.997665 C.3        1 MOL1        -0.2365
      21    H14     22.510138   19.045077   20.376596 H          1 MOL1         0.0987
      22    H15     23.300408   20.501859   21.008372 H          1 MOL1         0.0987
      23    H16     21.602807   20.568868   20.515112 H          1 MOL1         0.0987
@<TRIPOS>BOND
    1     1     2    1
    2     1     3    1
    3     1     4    1
    4     1     5    1
    5     5     6    1
    6     5     7    1
    7     5     8    1
    8     8     9    1
    9     8    10    1
   10     8    11    1
   11    11    12    1
   12    11    13    1
   13    11    14    1
   14    14    15    1
   15    14    16    1
   16    14    17    1
   17    17    18    1
   18    17    19    1
   19    17    20    1
   20    20    21    1
   21    20    22    1
   22    20    23    1
@<TRIPOS>SUBSTRUCTURE
       1 MOL1            1 RESIDUE      1      MOL     
@<SCITEGIC>MOL_PROPERTY
VConf Rank
SciTegic.value.IntegerValue
247

@<SCITEGIC>MOL_PROPERTY
Conf_Id
SciTegic.value.IntegerValue
50

@<SCITEGIC>MOL_PROPERTY
Delta U+W
SciTegic.value.DoubleValue
1.252

@<SCITEGIC>MOL_PROPERTY
U+W
SciTegic.value.DoubleValue
-7.130

@<SCITEGIC>MOL_PROPERTY
Grad RMS
SciTegic.value.DoubleValue
0.000000

@<SCITEGIC>MOL_PROPERTY
U
SciTegic.value.DoubleValue
48.727

@<SCITEGIC>MOL_PROPERTY
W
SciTegic.value.DoubleValue
-55.857

@<SCITEGIC>MOL_PROPERTY
W(PB)
SciTegic.value.DoubleValue
-57.937

@<SCITEGIC>MOL_PROPERTY
W(SA)
SciTegic.value.DoubleValue
2.080

@<SCITEGIC>MOL_PROPERTY
Valence
SciTegic.value.DoubleValue
2.671

@<SCITEGIC>MOL_PROPERTY
Coulomb
SciTegic.value.DoubleValue
45.371

@<SCITEGIC>MOL_PROPERTY
VdW
SciTegic.value.DoubleValue
0.684

@<SCITEGIC>MOL_PROPERTY
VdW6
SciTegic.value.DoubleValue
-6.511

@<SCITEGIC>MOL_PROPERTY
VdW12
SciTegic.value.DoubleValue
7.196

@<SCITEGIC>MOL_PROPERTY
Bond
SciTegic.value.DoubleValue
0.203

@<SCITEGIC>MOL_PROPERTY
Angle
SciTegic.value.DoubleValue
0.915

@<SCITEGIC>MOL_PROPERTY
Pdih
SciTegic.value.DoubleValue
1.554

@<SCITEGIC>MOL_PROPERTY
Idih
SciTegic.value.DoubleValue
0.000

@<SCITEGIC>MOL_PROPERTY
Tether
SciTegic.value.DoubleValue
0.000

@<TRIPOS>MOLECULE
guest-2_confgen4.mol2 : confsearch ligand conformer 248
          23          22           1
SMALL
USER_CHARGES
 
@<TRIPOS>ATOM
       1    N1      22.851614   18.251975   22.278382 N.4        1 MOL1        -0.5940
       2    H1      22.368202   17.519402   21.750004 H          1 MOL1         0.3649
       3    H2      23.679450   17.819166   22.701811 H          1 MOL1         0.3649
       4    H3      23.189370   18.942319   21.600171 H          1 MOL1         0.3649
       5    C1      21.949653   18.881470   23.322146 C.3        1 MOL1         0.0207
       6    H4      22.541827   19.619616   23.869909 H          1 MOL1         0.0950
       7    H5      21.645953   18.100071   24.023996 H          1 MOL1         0.0950
       8    C2      20.699555   19.564431   22.734286 C.3        1 MOL1        -0.1415
       9    H6      20.175738   20.078861   23.547699 H          1 MOL1         0.0976
      10    H7      21.009601   20.344559   22.026444 H          1 MOL1         0.0976
      11    C3      19.747427   18.563678   22.030993 C.3        1 MOL1        -0.1375
      12    H8      19.507280   17.727738   22.702476 H          1 MOL1         0.0976
      13    H9      20.274859   18.124097   21.173921 H          1 MOL1         0.0976
      14    C4      18.441485   19.219109   21.510390 C.3        1 MOL1        -0.1375
      15    H10     18.618393   20.273323   21.256360 H          1 MOL1         0.0976
      16    H11     18.165943   18.729898   20.565804 H          1 MOL1         0.0976
      17    C5      17.228747   19.097664   22.468369 C.3        1 MOL1        -0.1350
      18    H12     16.996172   18.036634   22.635397 H          1 MOL1         0.0976
      19    H13     16.347642   19.527067   21.971297 H          1 MOL1         0.0976
      20    C6      17.419952   19.800365   23.830237 C.3        1 MOL1        -0.2365
      21    H14     17.711151   20.850269   23.697050 H          1 MOL1         0.0987
      22    H15     18.185826   19.298139   24.433960 H          1 MOL1         0.0987
      23    H16     16.485399   19.781796   24.405697 H          1 MOL1         0.0987
@<TRIPOS>BOND
    1     1     2    1
    2     1     3    1
    3     1     4    1
    4     1     5    1
    5     5     6    1
    6     5     7    1
    7     5     8    1
    8     8     9    1
    9     8    10    1
   10     8    11    1
   11    11    12    1
   12    11    13    1
   13    11    14    1
   14    14    15    1
   15    14    16    1
   16    14    17    1
   17    17    18    1
   18    17    19    1
   19    17    20    1
   20    20    21    1
   21    20    22    1
   22    20    23    1
@<TRIPOS>SUBSTRUCTURE
       1 MOL1            1 RESIDUE      1      MOL     
@<SCITEGIC>MOL_PROPERTY
VConf Rank
SciTegic.value.IntegerValue
248

@<SCITEGIC>MOL_PROPERTY
Conf_Id
SciTegic.value.IntegerValue
55

@<SCITEGIC>MOL_PROPERTY
Delta U+W
SciTegic.value.DoubleValue
3.232

@<SCITEGIC>MOL_PROPERTY
U+W
SciTegic.value.DoubleValue
-5.150

@<SCITEGIC>MOL_PROPERTY
Grad RMS
SciTegic.value.DoubleValue
0.000000

@<SCITEGIC>MOL_PROPERTY
U
SciTegic.value.DoubleValue
50.625

@<SCITEGIC>MOL_PROPERTY
W
SciTegic.value.DoubleValue
-55.776

@<SCITEGIC>MOL_PROPERTY
W(PB)
SciTegic.value.DoubleValue
-57.839

@<SCITEGIC>MOL_PROPERTY
W(SA)
SciTegic.value.DoubleValue
2.064

@<SCITEGIC>MOL_PROPERTY
Valence
SciTegic.value.DoubleValue
4.837

@<SCITEGIC>MOL_PROPERTY
Coulomb
SciTegic.value.DoubleValue
45.097

@<SCITEGIC>MOL_PROPERTY
VdW
SciTegic.value.DoubleValue
0.692

@<SCITEGIC>MOL_PROPERTY
VdW6
SciTegic.value.DoubleValue
-6.655

@<SCITEGIC>MOL_PROPERTY
VdW12
SciTegic.value.DoubleValue
7.347

@<SCITEGIC>MOL_PROPERTY
Bond
SciTegic.value.DoubleValue
0.223

@<SCITEGIC>MOL_PROPERTY
Angle
SciTegic.value.DoubleValue
1.167

@<SCITEGIC>MOL_PROPERTY
Pdih
SciTegic.value.DoubleValue
3.447

@<SCITEGIC>MOL_PROPERTY
Idih
SciTegic.value.DoubleValue
0.000

@<SCITEGIC>MOL_PROPERTY
Tether
SciTegic.value.DoubleValue
0.000

@<TRIPOS>MOLECULE
guest-2_confgen4.mol2 : confsearch ligand conformer 249
          23          22           1
SMALL
USER_CHARGES
 
@<TRIPOS>ATOM
       1    N1      20.494380   18.743343   19.546448 N.4        1 MOL1        -0.5940
       2    H1      20.834517   17.866553   19.138559 H          1 MOL1         0.3649
       3    H2      20.953226   19.506241   19.037090 H          1 MOL1         0.3649
       4    H3      19.492911   18.804715   19.336570 H          1 MOL1         0.3649
       5    C1      20.765987   18.816729   21.035237 C.3        1 MOL1         0.0207
       6    H4      20.412174   19.785968   21.391231 H          1 MOL1         0.0950
       7    H5      21.848658   18.774612   21.181696 H          1 MOL1         0.0950
       8    C2      20.094171   17.677629   21.827007 C.3        1 MOL1        -0.1415
       9    H6      19.009996   17.678574   21.652575 H          1 MOL1         0.0976
      10    H7      20.470272   16.723105   21.435279 H          1 MOL1         0.0976
      11    C3      20.389498   17.736988   23.347113 C.3        1 MOL1        -0.1375
      12    H8      21.424058   18.066282   23.516980 H          1 MOL1         0.0976
      13    H9      20.334291   16.714503   23.745830 H          1 MOL1         0.0976
      14    C4      19.409316   18.612671   24.170457 C.3        1 MOL1        -0.1375
      15    H10     18.391316   18.210115   24.076034 H          1 MOL1         0.0976
      16    H11     19.676423   18.518186   25.232139 H          1 MOL1         0.0976
      17    C5      19.405869   20.110429   23.786776 C.3        1 MOL1        -0.1350
      18    H12     18.991470   20.237084   22.778239 H          1 MOL1         0.0976
      19    H13     20.435571   20.493848   23.767232 H          1 MOL1         0.0976
      20    C6      18.566105   20.948940   24.773880 C.3        1 MOL1        -0.2365
      21    H14     18.970166   20.882582   25.792480 H          1 MOL1         0.0987
      22    H15     17.523817   20.604876   24.796354 H          1 MOL1         0.0987
      23    H16     18.565444   22.006815   24.480742 H          1 MOL1         0.0987
@<TRIPOS>BOND
    1     1     2    1
    2     1     3    1
    3     1     4    1
    4     1     5    1
    5     5     6    1
    6     5     7    1
    7     5     8    1
    8     8     9    1
    9     8    10    1
   10     8    11    1
   11    11    12    1
   12    11    13    1
   13    11    14    1
   14    14    15    1
   15    14    16    1
   16    14    17    1
   17    17    18    1
   18    17    19    1
   19    17    20    1
   20    20    21    1
   21    20    22    1
   22    20    23    1
@<TRIPOS>SUBSTRUCTURE
       1 MOL1            1 RESIDUE      1      MOL     
@<SCITEGIC>MOL_PROPERTY
VConf Rank
SciTegic.value.IntegerValue
249

@<SCITEGIC>MOL_PROPERTY
Conf_Id
SciTegic.value.IntegerValue
93

@<SCITEGIC>MOL_PROPERTY
Delta U+W
SciTegic.value.DoubleValue
2.589

@<SCITEGIC>MOL_PROPERTY
U+W
SciTegic.value.DoubleValue
-5.793

@<SCITEGIC>MOL_PROPERTY
Grad RMS
SciTegic.value.DoubleValue
0.000000

@<SCITEGIC>MOL_PROPERTY
U
SciTegic.value.DoubleValue
50.122

@<SCITEGIC>MOL_PROPERTY
W
SciTegic.value.DoubleValue
-55.915

@<SCITEGIC>MOL_PROPERTY
W(PB)
SciTegic.value.DoubleValue
-58.031

@<SCITEGIC>MOL_PROPERTY
W(SA)
SciTegic.value.DoubleValue
2.115

@<SCITEGIC>MOL_PROPERTY
Valence
SciTegic.value.DoubleValue
4.132

@<SCITEGIC>MOL_PROPERTY
Coulomb
SciTegic.value.DoubleValue
45.536

@<SCITEGIC>MOL_PROPERTY
VdW
SciTegic.value.DoubleValue
0.454

@<SCITEGIC>MOL_PROPERTY
VdW6
SciTegic.value.DoubleValue
-6.262

@<SCITEGIC>MOL_PROPERTY
VdW12
SciTegic.value.DoubleValue
6.715

@<SCITEGIC>MOL_PROPERTY
Bond
SciTegic.value.DoubleValue
0.182

@<SCITEGIC>MOL_PROPERTY
Angle
SciTegic.value.DoubleValue
1.157

@<SCITEGIC>MOL_PROPERTY
Pdih
SciTegic.value.DoubleValue
2.794

@<SCITEGIC>MOL_PROPERTY
Idih
SciTegic.value.DoubleValue
0.000

@<SCITEGIC>MOL_PROPERTY
Tether
SciTegic.value.DoubleValue
0.000

@<TRIPOS>MOLECULE
guest-2_confgen4.mol2 : confsearch ligand conformer 250
          23          22           1
SMALL
USER_CHARGES
 
@<TRIPOS>ATOM
       1    N1      20.568758   21.870913   21.787597 N.4        1 MOL1        -0.5940
       2    H1      21.225290   21.478132   21.105361 H          1 MOL1         0.3649
       3    H2      21.118139   22.451738   22.430109 H          1 MOL1         0.3649
       4    H3      19.944321   22.502512   21.275747 H          1 MOL1         0.3649
       5    C1      19.801468   20.790086   22.521576 C.3        1 MOL1         0.0207
       6    H4      19.146131   21.277838   23.248233 H          1 MOL1         0.0950
       7    H5      20.523694   20.182132   23.069409 H          1 MOL1         0.0950
       8    C2      18.959900   19.904701   21.581552 C.3        1 MOL1        -0.1415
       9    H6      18.253189   20.552630   21.046045 H          1 MOL1         0.0976
      10    H7      19.598949   19.444126   20.816470 H          1 MOL1         0.0976
      11    C3      18.155901   18.813071   22.332147 C.3        1 MOL1        -0.1375
      12    H8      17.260829   18.579732   21.738938 H          1 MOL1         0.0976
      13    H9      17.783920   19.209405   23.287214 H          1 MOL1         0.0976
      14    C4      18.919406   17.483776   22.567749 C.3        1 MOL1        -0.1375
      15    H10     18.227987   16.771871   23.039524 H          1 MOL1         0.0976
      16    H11     19.195208   17.043609   21.599515 H          1 MOL1         0.0976
      17    C5      20.182424   17.614020   23.449977 C.3        1 MOL1        -0.1350
      18    H12     19.938829   18.156711   24.374003 H          1 MOL1         0.0976
      19    H13     20.948776   18.196265   22.922142 H          1 MOL1         0.0976
      20    C6      20.771735   16.232930   23.807726 C.3        1 MOL1        -0.2365
      21    H14     21.673032   16.344098   24.424439 H          1 MOL1         0.0987
      22    H15     21.048985   15.675994   22.903179 H          1 MOL1         0.0987
      23    H16     20.049826   15.629311   24.373150 H          1 MOL1         0.0987
@<TRIPOS>BOND
    1     1     2    1
    2     1     3    1
    3     1     4    1
    4     1     5    1
    5     5     6    1
    6     5     7    1
    7     5     8    1
    8     8     9    1
    9     8    10    1
   10     8    11    1
   11    11    12    1
   12    11    13    1
   13    11    14    1
   14    14    15    1
   15    14    16    1
   16    14    17    1
   17    17    18    1
   18    17    19    1
   19    17    20    1
   20    20    21    1
   21    20    22    1
   22    20    23    1
@<TRIPOS>SUBSTRUCTURE
       1 MOL1            1 RESIDUE      1      MOL     
@<SCITEGIC>MOL_PROPERTY
VConf Rank
SciTegic.value.IntegerValue
250

@<SCITEGIC>MOL_PROPERTY
Conf_Id
SciTegic.value.IntegerValue
70

@<SCITEGIC>MOL_PROPERTY
Delta U+W
SciTegic.value.DoubleValue
2.599

@<SCITEGIC>MOL_PROPERTY
U+W
SciTegic.value.DoubleValue
-5.783

@<SCITEGIC>MOL_PROPERTY
Grad RMS
SciTegic.value.DoubleValue
0.000000

@<SCITEGIC>MOL_PROPERTY
U
SciTegic.value.DoubleValue
50.122

@<SCITEGIC>MOL_PROPERTY
W
SciTegic.value.DoubleValue
-55.906

@<SCITEGIC>MOL_PROPERTY
W(PB)
SciTegic.value.DoubleValue
-58.010

@<SCITEGIC>MOL_PROPERTY
W(SA)
SciTegic.value.DoubleValue
2.105

@<SCITEGIC>MOL_PROPERTY
Valence
SciTegic.value.DoubleValue
4.132

@<SCITEGIC>MOL_PROPERTY
Coulomb
SciTegic.value.DoubleValue
45.536

@<SCITEGIC>MOL_PROPERTY
VdW
SciTegic.value.DoubleValue
0.454

@<SCITEGIC>MOL_PROPERTY
VdW6
SciTegic.value.DoubleValue
-6.262

@<SCITEGIC>MOL_PROPERTY
VdW12
SciTegic.value.DoubleValue
6.715

@<SCITEGIC>MOL_PROPERTY
Bond
SciTegic.value.DoubleValue
0.182

@<SCITEGIC>MOL_PROPERTY
Angle
SciTegic.value.DoubleValue
1.157

@<SCITEGIC>MOL_PROPERTY
Pdih
SciTegic.value.DoubleValue
2.794

@<SCITEGIC>MOL_PROPERTY
Idih
SciTegic.value.DoubleValue
0.000

@<SCITEGIC>MOL_PROPERTY
Tether
SciTegic.value.DoubleValue
0.000

@<TRIPOS>MOLECULE
guest-2_confgen4.mol2 : confsearch ligand conformer 251
          23          22           1
SMALL
USER_CHARGES
 
@<TRIPOS>ATOM
       1    N1      19.965750   20.994819   24.591828 N.4        1 MOL1        -0.5940
       2    H1      19.159375   21.504622   24.966483 H          1 MOL1         0.3649
       3    H2      20.806449   21.484535   24.916124 H          1 MOL1         0.3649
       4    H3      19.968642   20.068710   25.029753 H          1 MOL1         0.3649
       5    C1      19.917427   20.898370   23.079678 C.3        1 MOL1         0.0207
       6    H4      20.817073   20.376188   22.743662 H          1 MOL1         0.0950
       7    H5      19.945957   21.915665   22.679938 H          1 MOL1         0.0950
       8    C2      18.665348   20.173274   22.546466 C.3        1 MOL1        -0.1415
       9    H6      17.769742   20.725421   22.860694 H          1 MOL1         0.0976
      10    H7      18.672190   20.214683   21.449810 H          1 MOL1         0.0976
      11    C3      18.544567   18.698480   23.012727 C.3        1 MOL1        -0.1375
      12    H8      17.650396   18.254389   22.553985 H          1 MOL1         0.0976
      13    H9      18.364584   18.674857   24.095908 H          1 MOL1         0.0976
      14    C4      19.773192   17.808942   22.690233 C.3        1 MOL1        -0.1375
      15    H10     20.659745   18.184767   23.218126 H          1 MOL1         0.0976
      16    H11     19.586776   16.802879   23.090764 H          1 MOL1         0.0976
      17    C5      20.076088   17.698534   21.177303 C.3        1 MOL1        -0.1350
      18    H12     20.335270   18.684812   20.769849 H          1 MOL1         0.0976
      19    H13     19.177891   17.358766   20.642969 H          1 MOL1         0.0976
      20    C6      21.237741   16.720974   20.899240 C.3        1 MOL1        -0.2365
      21    H14     21.440843   16.656632   19.822382 H          1 MOL1         0.0987
      22    H15     20.998814   15.711159   21.257543 H          1 MOL1         0.0987
      23    H16     22.158956   17.051278   21.396700 H          1 MOL1         0.0987
@<TRIPOS>BOND
    1     1     2    1
    2     1     3    1
    3     1     4    1
    4     1     5    1
    5     5     6    1
    6     5     7    1
    7     5     8    1
    8     8     9    1
    9     8    10    1
   10     8    11    1
   11    11    12    1
   12    11    13    1
   13    11    14    1
   14    14    15    1
   15    14    16    1
   16    14    17    1
   17    17    18    1
   18    17    19    1
   19    17    20    1
   20    20    21    1
   21    20    22    1
   22    20    23    1
@<TRIPOS>SUBSTRUCTURE
       1 MOL1            1 RESIDUE      1      MOL     
@<SCITEGIC>MOL_PROPERTY
VConf Rank
SciTegic.value.IntegerValue
251

@<SCITEGIC>MOL_PROPERTY
Conf_Id
SciTegic.value.IntegerValue
72

@<SCITEGIC>MOL_PROPERTY
Delta U+W
SciTegic.value.DoubleValue
1.051

@<SCITEGIC>MOL_PROPERTY
U+W
SciTegic.value.DoubleValue
-7.331

@<SCITEGIC>MOL_PROPERTY
Grad RMS
SciTegic.value.DoubleValue
0.000000

@<SCITEGIC>MOL_PROPERTY
U
SciTegic.value.DoubleValue
48.590

@<SCITEGIC>MOL_PROPERTY
W
SciTegic.value.DoubleValue
-55.922

@<SCITEGIC>MOL_PROPERTY
W(PB)
SciTegic.value.DoubleValue
-58.012

@<SCITEGIC>MOL_PROPERTY
W(SA)
SciTegic.value.DoubleValue
2.090

@<SCITEGIC>MOL_PROPERTY
Valence
SciTegic.value.DoubleValue
2.601

@<SCITEGIC>MOL_PROPERTY
Coulomb
SciTegic.value.DoubleValue
45.520

@<SCITEGIC>MOL_PROPERTY
VdW
SciTegic.value.DoubleValue
0.469

@<SCITEGIC>MOL_PROPERTY
VdW6
SciTegic.value.DoubleValue
-6.867

@<SCITEGIC>MOL_PROPERTY
VdW12
SciTegic.value.DoubleValue
7.336

@<SCITEGIC>MOL_PROPERTY
Bond
SciTegic.value.DoubleValue
0.205

@<SCITEGIC>MOL_PROPERTY
Angle
SciTegic.value.DoubleValue
0.962

@<SCITEGIC>MOL_PROPERTY
Pdih
SciTegic.value.DoubleValue
1.434

@<SCITEGIC>MOL_PROPERTY
Idih
SciTegic.value.DoubleValue
0.000

@<SCITEGIC>MOL_PROPERTY
Tether
SciTegic.value.DoubleValue
0.000

@<TRIPOS>MOLECULE
guest-2_confgen4.mol2 : confsearch ligand conformer 252
          23          22           1
SMALL
USER_CHARGES
 
@<TRIPOS>ATOM
       1    N1      17.666171   16.626666   22.550749 N.4        1 MOL1        -0.5940
       2    H1      17.785567   15.644361   22.280975 H          1 MOL1         0.3649
       3    H2      16.717234   16.898056   22.273890 H          1 MOL1         0.3649
       4    H3      17.703199   16.661301   23.574512 H          1 MOL1         0.3649
       5    C1      18.715877   17.516137   21.916243 C.3        1 MOL1         0.0207
       6    H4      18.638721   17.408848   20.830938 H          1 MOL1         0.0950
       7    H5      19.698090   17.152440   22.229158 H          1 MOL1         0.0950
       8    C2      18.564252   18.999359   22.302090 C.3        1 MOL1        -0.1415
       9    H6      17.561337   19.343959   22.017234 H          1 MOL1         0.0976
      10    H7      18.628571   19.106703   23.392398 H          1 MOL1         0.0976
      11    C3      19.617379   19.905651   21.617531 C.3        1 MOL1        -0.1375
      12    H8      19.441611   20.948066   21.914895 H          1 MOL1         0.0976
      13    H9      19.457154   19.877137   20.530872 H          1 MOL1         0.0976
      14    C4      21.093821   19.524486   21.910090 C.3        1 MOL1        -0.1375
      15    H10     21.313078   18.545084   21.463994 H          1 MOL1         0.0976
      16    H11     21.749223   20.237734   21.391540 H          1 MOL1         0.0976
      17    C5      21.481042   19.489906   23.410451 C.3        1 MOL1        -0.1350
      18    H12     22.537309   19.197992   23.492765 H          1 MOL1         0.0976
      19    H13     20.912022   18.708486   23.931715 H          1 MOL1         0.0976
      20    C6      21.282557   20.845284   24.126042 C.3        1 MOL1        -0.2365
      21    H14     21.832902   21.645559   23.614555 H          1 MOL1         0.0987
      22    H15     21.649798   20.792287   25.159080 H          1 MOL1         0.0987
      23    H16     20.223251   21.127839   24.165953 H          1 MOL1         0.0987
@<TRIPOS>BOND
    1     1     2    1
    2     1     3    1
    3     1     4    1
    4     1     5    1
    5     5     6    1
    6     5     7    1
    7     5     8    1
    8     8     9    1
    9     8    10    1
   10     8    11    1
   11    11    12    1
   12    11    13    1
   13    11    14    1
   14    14    15    1
   15    14    16    1
   16    14    17    1
   17    17    18    1
   18    17    19    1
   19    17    20    1
   20    20    21    1
   21    20    22    1
   22    20    23    1
@<TRIPOS>SUBSTRUCTURE
       1 MOL1            1 RESIDUE      1      MOL     
@<SCITEGIC>MOL_PROPERTY
VConf Rank
SciTegic.value.IntegerValue
252

@<SCITEGIC>MOL_PROPERTY
Conf_Id
SciTegic.value.IntegerValue
26

@<SCITEGIC>MOL_PROPERTY
Delta U+W
SciTegic.value.DoubleValue
1.076

@<SCITEGIC>MOL_PROPERTY
U+W
SciTegic.value.DoubleValue
-7.306

@<SCITEGIC>MOL_PROPERTY
Grad RMS
SciTegic.value.DoubleValue
0.000000

@<SCITEGIC>MOL_PROPERTY
U
SciTegic.value.DoubleValue
48.641

@<SCITEGIC>MOL_PROPERTY
W
SciTegic.value.DoubleValue
-55.947

@<SCITEGIC>MOL_PROPERTY
W(PB)
SciTegic.value.DoubleValue
-58.031

@<SCITEGIC>MOL_PROPERTY
W(SA)
SciTegic.value.DoubleValue
2.084

@<SCITEGIC>MOL_PROPERTY
Valence
SciTegic.value.DoubleValue
2.922

@<SCITEGIC>MOL_PROPERTY
Coulomb
SciTegic.value.DoubleValue
45.269

@<SCITEGIC>MOL_PROPERTY
VdW
SciTegic.value.DoubleValue
0.449

@<SCITEGIC>MOL_PROPERTY
VdW6
SciTegic.value.DoubleValue
-7.045

@<SCITEGIC>MOL_PROPERTY
VdW12
SciTegic.value.DoubleValue
7.494

@<SCITEGIC>MOL_PROPERTY
Bond
SciTegic.value.DoubleValue
0.220

@<SCITEGIC>MOL_PROPERTY
Angle
SciTegic.value.DoubleValue
1.205

@<SCITEGIC>MOL_PROPERTY
Pdih
SciTegic.value.DoubleValue
1.497

@<SCITEGIC>MOL_PROPERTY
Idih
SciTegic.value.DoubleValue
0.000

@<SCITEGIC>MOL_PROPERTY
Tether
SciTegic.value.DoubleValue
0.000

@<TRIPOS>MOLECULE
guest-2_confgen4.mol2 : confsearch ligand conformer 253
          23          22           1
SMALL
USER_CHARGES
 
@<TRIPOS>ATOM
       1    N1      21.127227   16.398987   23.787712 N.4        1 MOL1        -0.5940
       2    H1      21.605684   15.806269   23.101747 H          1 MOL1         0.3649
       3    H2      20.808372   15.782540   24.542882 H          1 MOL1         0.3649
       4    H3      21.832833   17.023775   24.190729 H          1 MOL1         0.3649
       5    C1      19.979152   17.168143   23.166457 C.3        1 MOL1         0.0207
       6    H4      19.499051   17.751417   23.956537 H          1 MOL1         0.0950
       7    H5      19.254594   16.443990   22.784401 H          1 MOL1         0.0950
       8    C2      20.425232   18.104379   22.027908 C.3        1 MOL1        -0.1415
       9    H6      21.162395   18.823478   22.407277 H          1 MOL1         0.0976
      10    H7      20.938928   17.513938   21.257697 H          1 MOL1         0.0976
      11    C3      19.239815   18.856402   21.373455 C.3        1 MOL1        -0.1375
      12    H8      18.575831   18.123496   20.894616 H          1 MOL1         0.0976
      13    H9      19.620422   19.486848   20.558821 H          1 MOL1         0.0976
      14    C4      18.398645   19.722175   22.349993 C.3        1 MOL1        -0.1375
      15    H10     17.601437   20.218945   21.780040 H          1 MOL1         0.0976
      16    H11     17.884337   19.068146   23.066955 H          1 MOL1         0.0976
      17    C5      19.196033   20.795753   23.133462 C.3        1 MOL1        -0.1350
      18    H12     19.931716   20.316382   23.793079 H          1 MOL1         0.0976
      19    H13     18.502853   21.332355   23.796223 H          1 MOL1         0.0976
      20    C6      19.904463   21.821244   22.219673 C.3        1 MOL1        -0.2365
      21    H14     20.686569   21.347286   21.613675 H          1 MOL1         0.0987
      22    H15     20.381726   22.606383   22.820189 H          1 MOL1         0.0987
      23    H16     19.189662   22.304938   21.541410 H          1 MOL1         0.0987
@<TRIPOS>BOND
    1     1     2    1
    2     1     3    1
    3     1     4    1
    4     1     5    1
    5     5     6    1
    6     5     7    1
    7     5     8    1
    8     8     9    1
    9     8    10    1
   10     8    11    1
   11    11    12    1
   12    11    13    1
   13    11    14    1
   14    14    15    1
   15    14    16    1
   16    14    17    1
   17    17    18    1
   18    17    19    1
   19    17    20    1
   20    20    21    1
   21    20    22    1
   22    20    23    1
@<TRIPOS>SUBSTRUCTURE
       1 MOL1            1 RESIDUE      1      MOL     
@<SCITEGIC>MOL_PROPERTY
VConf Rank
SciTegic.value.IntegerValue
253

@<SCITEGIC>MOL_PROPERTY
Conf_Id
SciTegic.value.IntegerValue
90

@<SCITEGIC>MOL_PROPERTY
Delta U+W
SciTegic.value.DoubleValue
1.131

@<SCITEGIC>MOL_PROPERTY
U+W
SciTegic.value.DoubleValue
-7.251

@<SCITEGIC>MOL_PROPERTY
Grad RMS
SciTegic.value.DoubleValue
0.000000

@<SCITEGIC>MOL_PROPERTY
U
SciTegic.value.DoubleValue
48.641

@<SCITEGIC>MOL_PROPERTY
W
SciTegic.value.DoubleValue
-55.892

@<SCITEGIC>MOL_PROPERTY
W(PB)
SciTegic.value.DoubleValue
-57.962

@<SCITEGIC>MOL_PROPERTY
W(SA)
SciTegic.value.DoubleValue
2.070

@<SCITEGIC>MOL_PROPERTY
Valence
SciTegic.value.DoubleValue
2.922

@<SCITEGIC>MOL_PROPERTY
Coulomb
SciTegic.value.DoubleValue
45.269

@<SCITEGIC>MOL_PROPERTY
VdW
SciTegic.value.DoubleValue
0.450

@<SCITEGIC>MOL_PROPERTY
VdW6
SciTegic.value.DoubleValue
-7.045

@<SCITEGIC>MOL_PROPERTY
VdW12
SciTegic.value.DoubleValue
7.495

@<SCITEGIC>MOL_PROPERTY
Bond
SciTegic.value.DoubleValue
0.220

@<SCITEGIC>MOL_PROPERTY
Angle
SciTegic.value.DoubleValue
1.205

@<SCITEGIC>MOL_PROPERTY
Pdih
SciTegic.value.DoubleValue
1.497

@<SCITEGIC>MOL_PROPERTY
Idih
SciTegic.value.DoubleValue
0.000

@<SCITEGIC>MOL_PROPERTY
Tether
SciTegic.value.DoubleValue
0.000

@<TRIPOS>MOLECULE
guest-2_confgen4.mol2 : confsearch ligand conformer 254
          23          22           1
SMALL
USER_CHARGES
 
@<TRIPOS>ATOM
       1    N1      19.904519   19.713087   25.116813 N.4        1 MOL1        -0.5940
       2    H1      19.730157   20.579265   25.637567 H          1 MOL1         0.3649
       3    H2      20.585581   19.933990   24.384024 H          1 MOL1         0.3649
       4    H3      20.356585   19.060278   25.764924 H          1 MOL1         0.3649
       5    C1      18.627314   19.137258   24.537535 C.3        1 MOL1         0.0207
       6    H4      18.181909   19.891092   23.883268 H          1 MOL1         0.0950
       7    H5      17.937155   18.957556   25.366334 H          1 MOL1         0.0950
       8    C2      18.838442   17.825673   23.753917 C.3        1 MOL1        -0.1415
       9    H6      19.241768   17.062249   24.432372 H          1 MOL1         0.0976
      10    H7      17.860526   17.453017   23.421275 H          1 MOL1         0.0976
      11    C3      19.775050   17.968320   22.527948 C.3        1 MOL1        -0.1375
      12    H8      19.874760   16.985301   22.047488 H          1 MOL1         0.0976
      13    H9      20.781059   18.246757   22.866359 H          1 MOL1         0.0976
      14    C4      19.258924   18.992848   21.486107 C.3        1 MOL1        -0.1375
      15    H10     18.220831   18.745601   21.224383 H          1 MOL1         0.0976
      16    H11     19.236413   19.999818   21.923642 H          1 MOL1         0.0976
      17    C5      20.099532   19.023146   20.186934 C.3        1 MOL1        -0.1350
      18    H12     19.609000   19.690878   19.464890 H          1 MOL1         0.0976
      19    H13     20.108131   18.025597   19.725845 H          1 MOL1         0.0976
      20    C6      21.550948   19.507139   20.406661 C.3        1 MOL1        -0.2365
      21    H14     21.569971   20.491975   20.891092 H          1 MOL1         0.0987
      22    H15     22.075456   19.595783   19.446468 H          1 MOL1         0.0987
      23    H16     22.120217   18.805774   21.029100 H          1 MOL1         0.0987
@<TRIPOS>BOND
    1     1     2    1
    2     1     3    1
    3     1     4    1
    4     1     5    1
    5     5     6    1
    6     5     7    1
    7     5     8    1
    8     8     9    1
    9     8    10    1
   10     8    11    1
   11    11    12    1
   12    11    13    1
   13    11    14    1
   14    14    15    1
   15    14    16    1
   16    14    17    1
   17    17    18    1
   18    17    19    1
   19    17    20    1
   20    20    21    1
   21    20    22    1
   22    20    23    1
@<TRIPOS>SUBSTRUCTURE
       1 MOL1            1 RESIDUE      1      MOL     
@<SCITEGIC>MOL_PROPERTY
VConf Rank
SciTegic.value.IntegerValue
254

@<SCITEGIC>MOL_PROPERTY
Conf_Id
SciTegic.value.IntegerValue
85

@<SCITEGIC>MOL_PROPERTY
Delta U+W
SciTegic.value.DoubleValue
1.193

@<SCITEGIC>MOL_PROPERTY
U+W
SciTegic.value.DoubleValue
-7.189

@<SCITEGIC>MOL_PROPERTY
Grad RMS
SciTegic.value.DoubleValue
0.000000

@<SCITEGIC>MOL_PROPERTY
U
SciTegic.value.DoubleValue
48.775

@<SCITEGIC>MOL_PROPERTY
W
SciTegic.value.DoubleValue
-55.965

@<SCITEGIC>MOL_PROPERTY
W(PB)
SciTegic.value.DoubleValue
-58.038

@<SCITEGIC>MOL_PROPERTY
W(SA)
SciTegic.value.DoubleValue
2.073

@<SCITEGIC>MOL_PROPERTY
Valence
SciTegic.value.DoubleValue
2.602

@<SCITEGIC>MOL_PROPERTY
Coulomb
SciTegic.value.DoubleValue
45.581

@<SCITEGIC>MOL_PROPERTY
VdW
SciTegic.value.DoubleValue
0.592

@<SCITEGIC>MOL_PROPERTY
VdW6
SciTegic.value.DoubleValue
-6.616

@<SCITEGIC>MOL_PROPERTY
VdW12
SciTegic.value.DoubleValue
7.208

@<SCITEGIC>MOL_PROPERTY
Bond
SciTegic.value.DoubleValue
0.196

@<SCITEGIC>MOL_PROPERTY
Angle
SciTegic.value.DoubleValue
0.832

@<SCITEGIC>MOL_PROPERTY
Pdih
SciTegic.value.DoubleValue
1.574

@<SCITEGIC>MOL_PROPERTY
Idih
SciTegic.value.DoubleValue
0.000

@<SCITEGIC>MOL_PROPERTY
Tether
SciTegic.value.DoubleValue
0.000

@<TRIPOS>MOLECULE
guest-2_confgen4.mol2 : confsearch ligand conformer 255
          23          22           1
SMALL
USER_CHARGES
 
@<TRIPOS>ATOM
       1    N1      19.380723   20.963985   22.385009 N.4        1 MOL1        -0.5940
       2    H1      18.852242   20.156568   22.730633 H          1 MOL1         0.3649
       3    H2      18.751199   21.510526   21.787267 H          1 MOL1         0.3649
       4    H3      19.607715   21.550484   23.194644 H          1 MOL1         0.3649
       5    C1      20.628031   20.529309   21.640064 C.3        1 MOL1         0.0207
       6    H4      21.134262   21.439322   21.306723 H          1 MOL1         0.0950
       7    H5      20.327690   19.964263   20.753697 H          1 MOL1         0.0950
       8    C2      21.605835   19.691685   22.489182 C.3        1 MOL1        -0.1415
       9    H6      22.599617   19.770669   22.028750 H          1 MOL1         0.0976
      10    H7      21.703920   20.136063   23.488572 H          1 MOL1         0.0976
      11    C3      21.256719   18.183560   22.606596 C.3        1 MOL1        -0.1375
      12    H8      22.059048   17.704935   23.185121 H          1 MOL1         0.0976
      13    H9      21.289667   17.712636   21.614318 H          1 MOL1         0.0976
      14    C4      19.908512   17.867258   23.303411 C.3        1 MOL1        -0.1375
      15    H10     20.028703   16.949130   23.895300 H          1 MOL1         0.0976
      16    H11     19.661933   18.655034   24.027520 H          1 MOL1         0.0976
      17    C5      18.745624   17.640835   22.306654 C.3        1 MOL1        -0.1350
      18    H12     18.950973   16.741506   21.709013 H          1 MOL1         0.0976
      19    H13     18.671513   18.468232   21.590973 H          1 MOL1         0.0976
      20    C6      17.395657   17.468273   23.034416 C.3        1 MOL1        -0.2365
      21    H14     17.424788   16.611234   23.719984 H          1 MOL1         0.0987
      22    H15     16.586337   17.294000   22.313437 H          1 MOL1         0.0987
      23    H16     17.140095   18.362330   23.617610 H          1 MOL1         0.0987
@<TRIPOS>BOND
    1     1     2    1
    2     1     3    1
    3     1     4    1
    4     1     5    1
    5     5     6    1
    6     5     7    1
    7     5     8    1
    8     8     9    1
    9     8    10    1
   10     8    11    1
   11    11    12    1
   12    11    13    1
   13    11    14    1
   14    14    15    1
   15    14    16    1
   16    14    17    1
   17    17    18    1
   18    17    19    1
   19    17    20    1
   20    20    21    1
   21    20    22    1
   22    20    23    1
@<TRIPOS>SUBSTRUCTURE
       1 MOL1            1 RESIDUE      1      MOL     
@<SCITEGIC>MOL_PROPERTY
VConf Rank
SciTegic.value.IntegerValue
255

@<SCITEGIC>MOL_PROPERTY
Conf_Id
SciTegic.value.IntegerValue
82

@<SCITEGIC>MOL_PROPERTY
Delta U+W
SciTegic.value.DoubleValue
5.994

@<SCITEGIC>MOL_PROPERTY
U+W
SciTegic.value.DoubleValue
-2.388

@<SCITEGIC>MOL_PROPERTY
Grad RMS
SciTegic.value.DoubleValue
0.000000

@<SCITEGIC>MOL_PROPERTY
U
SciTegic.value.DoubleValue
52.836

@<SCITEGIC>MOL_PROPERTY
W
SciTegic.value.DoubleValue
-55.224

@<SCITEGIC>MOL_PROPERTY
W(PB)
SciTegic.value.DoubleValue
-57.261

@<SCITEGIC>MOL_PROPERTY
W(SA)
SciTegic.value.DoubleValue
2.037

@<SCITEGIC>MOL_PROPERTY
Valence
SciTegic.value.DoubleValue
5.785

@<SCITEGIC>MOL_PROPERTY
Coulomb
SciTegic.value.DoubleValue
46.744

@<SCITEGIC>MOL_PROPERTY
VdW
SciTegic.value.DoubleValue
0.307

@<SCITEGIC>MOL_PROPERTY
VdW6
SciTegic.value.DoubleValue
-7.672

@<SCITEGIC>MOL_PROPERTY
VdW12
SciTegic.value.DoubleValue
7.979

@<SCITEGIC>MOL_PROPERTY
Bond
SciTegic.value.DoubleValue
0.217

@<SCITEGIC>MOL_PROPERTY
Angle
SciTegic.value.DoubleValue
1.470

@<SCITEGIC>MOL_PROPERTY
Pdih
SciTegic.value.DoubleValue
4.098

@<SCITEGIC>MOL_PROPERTY
Idih
SciTegic.value.DoubleValue
0.000

@<SCITEGIC>MOL_PROPERTY
Tether
SciTegic.value.DoubleValue
0.000

@<TRIPOS>MOLECULE
guest-2_confgen4.mol2 : confsearch ligand conformer 256
          23          22           1
SMALL
USER_CHARGES
 
@<TRIPOS>ATOM
       1    N1      20.675327   17.090849   22.750775 N.4        1 MOL1        -0.5940
       2    H1      20.321129   16.499058   23.509288 H          1 MOL1         0.3649
       3    H2      21.146443   16.470707   22.083111 H          1 MOL1         0.3649
       4    H3      19.863311   17.495664   22.273881 H          1 MOL1         0.3649
       5    C1      21.605533   18.170379   23.269414 C.3        1 MOL1         0.0207
       6    H4      22.003778   18.728463   22.417903 H          1 MOL1         0.0950
       7    H5      22.439382   17.663451   23.762597 H          1 MOL1         0.0950
       8    C2      20.944287   19.140914   24.269181 C.3        1 MOL1        -0.1415
       9    H6      20.326009   18.576913   24.980172 H          1 MOL1         0.0976
      10    H7      21.743097   19.599610   24.866960 H          1 MOL1         0.0976
      11    C3      20.113867   20.286264   23.629892 C.3        1 MOL1        -0.1375
      12    H8      20.766350   20.928428   23.022141 H          1 MOL1         0.0976
      13    H9      19.752391   20.925444   24.447382 H          1 MOL1         0.0976
      14    C4      18.887210   19.831526   22.798154 C.3        1 MOL1        -0.1375
      15    H10     18.501117   18.877998   23.182134 H          1 MOL1         0.0976
      16    H11     18.076809   20.559069   22.945362 H          1 MOL1         0.0976
      17    C5      19.178218   19.745600   21.279920 C.3        1 MOL1        -0.1350
      18    H12     20.073654   19.144401   21.082339 H          1 MOL1         0.0976
      19    H13     19.398670   20.751668   20.896042 H          1 MOL1         0.0976
      20    C6      17.982160   19.157257   20.502023 C.3        1 MOL1        -0.2365
      21    H14     17.752325   18.137277   20.836064 H          1 MOL1         0.0987
      22    H15     18.200730   19.118119   19.426906 H          1 MOL1         0.0987
      23    H16     17.082644   19.771527   20.639543 H          1 MOL1         0.0987
@<TRIPOS>BOND
    1     1     2    1
    2     1     3    1
    3     1     4    1
    4     1     5    1
    5     5     6    1
    6     5     7    1
    7     5     8    1
    8     8     9    1
    9     8    10    1
   10     8    11    1
   11    11    12    1
   12    11    13    1
   13    11    14    1
   14    14    15    1
   15    14    16    1
   16    14    17    1
   17    17    18    1
   18    17    19    1
   19    17    20    1
   20    20    21    1
   21    20    22    1
   22    20    23    1
@<TRIPOS>SUBSTRUCTURE
       1 MOL1            1 RESIDUE      1      MOL     
@<SCITEGIC>MOL_PROPERTY
VConf Rank
SciTegic.value.IntegerValue
256

@<SCITEGIC>MOL_PROPERTY
Conf_Id
SciTegic.value.IntegerValue
5

@<SCITEGIC>MOL_PROPERTY
Delta U+W
SciTegic.value.DoubleValue
6.087

@<SCITEGIC>MOL_PROPERTY
U+W
SciTegic.value.DoubleValue
-2.295

@<SCITEGIC>MOL_PROPERTY
Grad RMS
SciTegic.value.DoubleValue
0.000000

@<SCITEGIC>MOL_PROPERTY
U
SciTegic.value.DoubleValue
52.836

@<SCITEGIC>MOL_PROPERTY
W
SciTegic.value.DoubleValue
-55.131

@<SCITEGIC>MOL_PROPERTY
W(PB)
SciTegic.value.DoubleValue
-57.202

@<SCITEGIC>MOL_PROPERTY
W(SA)
SciTegic.value.DoubleValue
2.071

@<SCITEGIC>MOL_PROPERTY
Valence
SciTegic.value.DoubleValue
5.785

@<SCITEGIC>MOL_PROPERTY
Coulomb
SciTegic.value.DoubleValue
46.744

@<SCITEGIC>MOL_PROPERTY
VdW
SciTegic.value.DoubleValue
0.307

@<SCITEGIC>MOL_PROPERTY
VdW6
SciTegic.value.DoubleValue
-7.672

@<SCITEGIC>MOL_PROPERTY
VdW12
SciTegic.value.DoubleValue
7.980

@<SCITEGIC>MOL_PROPERTY
Bond
SciTegic.value.DoubleValue
0.217

@<SCITEGIC>MOL_PROPERTY
Angle
SciTegic.value.DoubleValue
1.470

@<SCITEGIC>MOL_PROPERTY
Pdih
SciTegic.value.DoubleValue
4.098

@<SCITEGIC>MOL_PROPERTY
Idih
SciTegic.value.DoubleValue
0.000

@<SCITEGIC>MOL_PROPERTY
Tether
SciTegic.value.DoubleValue
0.000

@<TRIPOS>MOLECULE
guest-2_confgen4.mol2 : confsearch ligand conformer 257
          23          22           1
SMALL
USER_CHARGES
 
@<TRIPOS>ATOM
       1    N1      22.758126   18.059721   20.380829 N.4        1 MOL1        -0.5940
       2    H1      22.590212   18.764324   19.655416 H          1 MOL1         0.3649
       3    H2      23.157816   17.239386   19.912436 H          1 MOL1         0.3649
       4    H3      23.484840   18.432171   21.000547 H          1 MOL1         0.3649
       5    C1      21.491783   17.714241   21.137742 C.3        1 MOL1         0.0207
       6    H4      21.736971   16.940558   21.870404 H          1 MOL1         0.0950
       7    H5      20.775386   17.297531   20.424563 H          1 MOL1         0.0950
       8    C2      20.866349   18.925147   21.852665 C.3        1 MOL1        -0.1415
       9    H6      21.594967   19.350149   22.555936 H          1 MOL1         0.0976
      10    H7      20.636877   19.705904   21.115197 H          1 MOL1         0.0976
      11    C3      19.579549   18.531415   22.611153 C.3        1 MOL1        -0.1375
      12    H8      19.812302   17.746413   23.344228 H          1 MOL1         0.0976
      13    H9      18.855231   18.101842   21.905013 H          1 MOL1         0.0976
      14    C4      18.942727   19.740564   23.333247 C.3        1 MOL1        -0.1375
      15    H10     19.666794   20.170116   24.039453 H          1 MOL1         0.0976
      16    H11     18.709922   20.525567   22.600386 H          1 MOL1         0.0976
      17    C5      17.655760   19.346460   24.091637 C.3        1 MOL1        -0.1350
      18    H12     17.883924   18.562938   24.827850 H          1 MOL1         0.0976
      19    H13     16.927138   18.918372   23.388910 H          1 MOL1         0.0976
      20    C6      17.022763   20.556331   24.811383 C.3        1 MOL1        -0.2365
      21    H14     16.110709   20.256936   25.343893 H          1 MOL1         0.0987
      22    H15     16.751957   21.343867   24.096065 H          1 MOL1         0.0987
      23    H16     17.716229   20.985675   25.546228 H          1 MOL1         0.0987
@<TRIPOS>BOND
    1     1     2    1
    2     1     3    1
    3     1     4    1
    4     1     5    1
    5     5     6    1
    6     5     7    1
    7     5     8    1
    8     8     9    1
    9     8    10    1
   10     8    11    1
   11    11    12    1
   12    11    13    1
   13    11    14    1
   14    14    15    1
   15    14    16    1
   16    14    17    1
   17    17    18    1
   18    17    19    1
   19    17    20    1
   20    20    21    1
   21    20    22    1
   22    20    23    1
@<TRIPOS>SUBSTRUCTURE
       1 MOL1            1 RESIDUE      1      MOL     
@<SCITEGIC>MOL_PROPERTY
VConf Rank
SciTegic.value.IntegerValue
257

@<SCITEGIC>MOL_PROPERTY
Conf_Id
SciTegic.value.IntegerValue
40

@<SCITEGIC>MOL_PROPERTY
Delta U+W
SciTegic.value.DoubleValue
0.000

@<SCITEGIC>MOL_PROPERTY
U+W
SciTegic.value.DoubleValue
-8.382

@<SCITEGIC>MOL_PROPERTY
Grad RMS
SciTegic.value.DoubleValue
0.000000

@<SCITEGIC>MOL_PROPERTY
U
SciTegic.value.DoubleValue
46.604

@<SCITEGIC>MOL_PROPERTY
W
SciTegic.value.DoubleValue
-54.986

@<SCITEGIC>MOL_PROPERTY
W(PB)
SciTegic.value.DoubleValue
-57.162

@<SCITEGIC>MOL_PROPERTY
W(SA)
SciTegic.value.DoubleValue
2.176

@<SCITEGIC>MOL_PROPERTY
Valence
SciTegic.value.DoubleValue
1.727

@<SCITEGIC>MOL_PROPERTY
Coulomb
SciTegic.value.DoubleValue
44.434

@<SCITEGIC>MOL_PROPERTY
VdW
SciTegic.value.DoubleValue
0.443

@<SCITEGIC>MOL_PROPERTY
VdW6
SciTegic.value.DoubleValue
-4.623

@<SCITEGIC>MOL_PROPERTY
VdW12
SciTegic.value.DoubleValue
5.066

@<SCITEGIC>MOL_PROPERTY
Bond
SciTegic.value.DoubleValue
0.112

@<SCITEGIC>MOL_PROPERTY
Angle
SciTegic.value.DoubleValue
0.386

@<SCITEGIC>MOL_PROPERTY
Pdih
SciTegic.value.DoubleValue
1.228

@<SCITEGIC>MOL_PROPERTY
Idih
SciTegic.value.DoubleValue
0.000

@<SCITEGIC>MOL_PROPERTY
Tether
SciTegic.value.DoubleValue
0.000

@<TRIPOS>MOLECULE
guest-2_confgen4.mol2 : confsearch ligand conformer 258
          23          22           1
SMALL
USER_CHARGES
 
@<TRIPOS>ATOM
       1    N1      19.176958   20.055446   25.981503 N.4        1 MOL1        -0.5940
       2    H1      19.525137   19.348571   26.637200 H          1 MOL1         0.3649
       3    H2      18.155508   19.971270   25.961843 H          1 MOL1         0.3649
       4    H3      19.392755   20.971629   26.389020 H          1 MOL1         0.3649
       5    C1      19.784205   19.895427   24.602580 C.3        1 MOL1         0.0207
       6    H4      20.866094   20.024730   24.693184 H          1 MOL1         0.0950
       7    H5      19.393547   20.696381   23.969826 H          1 MOL1         0.0950
       8    C2      19.477697   18.527713   23.963405 C.3        1 MOL1        -0.1415
       9    H6      19.833255   17.732879   24.632557 H          1 MOL1         0.0976
      10    H7      18.391155   18.397795   23.871038 H          1 MOL1         0.0976
      11    C3      20.142355   18.350098   22.577655 C.3        1 MOL1        -0.1375
      12    H8      19.972307   17.317850   22.245223 H          1 MOL1         0.0976
      13    H9      21.230145   18.471025   22.674926 H          1 MOL1         0.0976
      14    C4      19.599146   19.335676   21.511759 C.3        1 MOL1        -0.1375
      15    H10     18.514582   19.199816   21.400027 H          1 MOL1         0.0976
      16    H11     19.747290   20.367635   21.856170 H          1 MOL1         0.0976
      17    C5      20.282431   19.187159   20.130603 C.3        1 MOL1        -0.1350
      18    H12     21.366799   19.332546   20.234571 H          1 MOL1         0.0976
      19    H13     19.926440   19.993074   19.473606 H          1 MOL1         0.0976
      20    C6      20.002611   17.829499   19.446608 C.3        1 MOL1        -0.2365
      21    H14     20.450861   16.996906   20.002592 H          1 MOL1         0.0987
      22    H15     20.426860   17.815173   18.434307 H          1 MOL1         0.0987
      23    H16     18.923856   17.645376   19.360596 H          1 MOL1         0.0987
@<TRIPOS>BOND
    1     1     2    1
    2     1     3    1
    3     1     4    1
    4     1     5    1
    5     5     6    1
    6     5     7    1
    7     5     8    1
    8     8     9    1
    9     8    10    1
   10     8    11    1
   11    11    12    1
   12    11    13    1
   13    11    14    1
   14    14    15    1
   15    14    16    1
   16    14    17    1
   17    17    18    1
   18    17    19    1
   19    17    20    1
   20    20    21    1
   21    20    22    1
   22    20    23    1
@<TRIPOS>SUBSTRUCTURE
       1 MOL1            1 RESIDUE      1      MOL     
@<SCITEGIC>MOL_PROPERTY
VConf Rank
SciTegic.value.IntegerValue
258

@<SCITEGIC>MOL_PROPERTY
Conf_Id
SciTegic.value.IntegerValue
65

@<SCITEGIC>MOL_PROPERTY
Delta U+W
SciTegic.value.DoubleValue
1.004

@<SCITEGIC>MOL_PROPERTY
U+W
SciTegic.value.DoubleValue
-7.378

@<SCITEGIC>MOL_PROPERTY
Grad RMS
SciTegic.value.DoubleValue
0.000000

@<SCITEGIC>MOL_PROPERTY
U
SciTegic.value.DoubleValue
48.047

@<SCITEGIC>MOL_PROPERTY
W
SciTegic.value.DoubleValue
-55.425

@<SCITEGIC>MOL_PROPERTY
W(PB)
SciTegic.value.DoubleValue
-57.542

@<SCITEGIC>MOL_PROPERTY
W(SA)
SciTegic.value.DoubleValue
2.116

@<SCITEGIC>MOL_PROPERTY
Valence
SciTegic.value.DoubleValue
2.583

@<SCITEGIC>MOL_PROPERTY
Coulomb
SciTegic.value.DoubleValue
44.791

@<SCITEGIC>MOL_PROPERTY
VdW
SciTegic.value.DoubleValue
0.673

@<SCITEGIC>MOL_PROPERTY
VdW6
SciTegic.value.DoubleValue
-5.788

@<SCITEGIC>MOL_PROPERTY
VdW12
SciTegic.value.DoubleValue
6.462

@<SCITEGIC>MOL_PROPERTY
Bond
SciTegic.value.DoubleValue
0.177

@<SCITEGIC>MOL_PROPERTY
Angle
SciTegic.value.DoubleValue
0.787

@<SCITEGIC>MOL_PROPERTY
Pdih
SciTegic.value.DoubleValue
1.619

@<SCITEGIC>MOL_PROPERTY
Idih
SciTegic.value.DoubleValue
0.000

@<SCITEGIC>MOL_PROPERTY
Tether
SciTegic.value.DoubleValue
0.000

@<TRIPOS>MOLECULE
guest-2_confgen4.mol2 : confsearch ligand conformer 259
          23          22           1
SMALL
USER_CHARGES
 
@<TRIPOS>ATOM
       1    N1      22.963486   18.273828   21.196387 N.4        1 MOL1        -0.5940
       2    H1      23.615296   19.047972   21.359736 H          1 MOL1         0.3649
       3    H2      23.149637   17.922219   20.251005 H          1 MOL1         0.3649
       4    H3      23.216380   17.524161   21.848214 H          1 MOL1         0.3649
       5    C1      21.520499   18.704968   21.362767 C.3        1 MOL1         0.0207
       6    H4      20.886106   17.842200   21.144374 H          1 MOL1         0.0950
       7    H5      21.312729   19.481597   20.621761 H          1 MOL1         0.0950
       8    C2      21.209231   19.238816   22.773885 C.3        1 MOL1        -0.1415
       9    H6      21.416616   18.458744   23.518509 H          1 MOL1         0.0976
      10    H7      21.886206   20.074131   22.997267 H          1 MOL1         0.0976
      11    C3      19.748057   19.724933   22.923135 C.3        1 MOL1        -0.1375
      12    H8      19.546532   20.512119   22.183476 H          1 MOL1         0.0976
      13    H9      19.640674   20.191131   23.911109 H          1 MOL1         0.0976
      14    C4      18.709180   18.584734   22.770641 C.3        1 MOL1        -0.1375
      15    H10     18.833560   18.102823   21.791970 H          1 MOL1         0.0976
      16    H11     18.898523   17.807734   23.524061 H          1 MOL1         0.0976
      17    C5      17.242979   19.068028   22.885533 C.3        1 MOL1        -0.1350
      18    H12     16.575926   18.226861   22.650268 H          1 MOL1         0.0976
      19    H13     17.044733   19.838211   22.127037 H          1 MOL1         0.0976
      20    C6      16.880545   19.611750   24.286389 C.3        1 MOL1        -0.2365
      21    H14     17.432201   20.531099   24.518188 H          1 MOL1         0.0987
      22    H15     17.100830   18.871619   25.066576 H          1 MOL1         0.0987
      23    H16     15.809963   19.847974   24.341138 H          1 MOL1         0.0987
@<TRIPOS>BOND
    1     1     2    1
    2     1     3    1
    3     1     4    1
    4     1     5    1
    5     5     6    1
    6     5     7    1
    7     5     8    1
    8     8     9    1
    9     8    10    1
   10     8    11    1
   11    11    12    1
   12    11    13    1
   13    11    14    1
   14    14    15    1
   15    14    16    1
   16    14    17    1
   17    17    18    1
   18    17    19    1
   19    17    20    1
   20    20    21    1
   21    20    22    1
   22    20    23    1
@<TRIPOS>SUBSTRUCTURE
       1 MOL1            1 RESIDUE      1      MOL     
@<SCITEGIC>MOL_PROPERTY
VConf Rank
SciTegic.value.IntegerValue
259

@<SCITEGIC>MOL_PROPERTY
Conf_Id
SciTegic.value.IntegerValue
92

@<SCITEGIC>MOL_PROPERTY
Delta U+W
SciTegic.value.DoubleValue
0.973

@<SCITEGIC>MOL_PROPERTY
U+W
SciTegic.value.DoubleValue
-7.409

@<SCITEGIC>MOL_PROPERTY
Grad RMS
SciTegic.value.DoubleValue
0.000000

@<SCITEGIC>MOL_PROPERTY
U
SciTegic.value.DoubleValue
48.047

@<SCITEGIC>MOL_PROPERTY
W
SciTegic.value.DoubleValue
-55.456

@<SCITEGIC>MOL_PROPERTY
W(PB)
SciTegic.value.DoubleValue
-57.595

@<SCITEGIC>MOL_PROPERTY
W(SA)
SciTegic.value.DoubleValue
2.138

@<SCITEGIC>MOL_PROPERTY
Valence
SciTegic.value.DoubleValue
2.583

@<SCITEGIC>MOL_PROPERTY
Coulomb
SciTegic.value.DoubleValue
44.791

@<SCITEGIC>MOL_PROPERTY
VdW
SciTegic.value.DoubleValue
0.674

@<SCITEGIC>MOL_PROPERTY
VdW6
SciTegic.value.DoubleValue
-5.789

@<SCITEGIC>MOL_PROPERTY
VdW12
SciTegic.value.DoubleValue
6.462

@<SCITEGIC>MOL_PROPERTY
Bond
SciTegic.value.DoubleValue
0.177

@<SCITEGIC>MOL_PROPERTY
Angle
SciTegic.value.DoubleValue
0.787

@<SCITEGIC>MOL_PROPERTY
Pdih
SciTegic.value.DoubleValue
1.619

@<SCITEGIC>MOL_PROPERTY
Idih
SciTegic.value.DoubleValue
0.000

@<SCITEGIC>MOL_PROPERTY
Tether
SciTegic.value.DoubleValue
0.000

@<TRIPOS>MOLECULE
guest-2_confgen4.mol2 : confsearch ligand conformer 260
          23          22           1
SMALL
USER_CHARGES
 
@<TRIPOS>ATOM
       1    N1      16.249342   19.475839   22.501121 N.4        1 MOL1        -0.5940
       2    H1      15.831451   20.180194   21.883639 H          1 MOL1         0.3649
       3    H2      15.775067   19.554760   23.406487 H          1 MOL1         0.3649
       4    H3      16.007469   18.558360   22.113086 H          1 MOL1         0.3649
       5    C1      17.747981   19.658103   22.630100 C.3        1 MOL1         0.0207
       6    H4      17.933552   20.662427   23.020375 H          1 MOL1         0.0950
       7    H5      18.180961   19.592490   21.628643 H          1 MOL1         0.0950
       8    C2      18.405673   18.614209   23.552371 C.3        1 MOL1        -0.1415
       9    H6      17.931316   18.660234   24.541721 H          1 MOL1         0.0976
      10    H7      18.218530   17.605441   23.160760 H          1 MOL1         0.0976
      11    C3      19.928164   18.834627   23.715069 C.3        1 MOL1        -0.1375
      12    H8      20.310942   18.116698   24.453655 H          1 MOL1         0.0976
      13    H9      20.111074   19.835184   24.131095 H          1 MOL1         0.0976
      14    C4      20.711631   18.668366   22.390682 C.3        1 MOL1        -0.1375
      15    H10     20.500436   17.679470   21.960685 H          1 MOL1         0.0976
      16    H11     20.373009   19.412974   21.657912 H          1 MOL1         0.0976
      17    C5      22.234318   18.822184   22.601722 C.3        1 MOL1        -0.1350
      18    H12     22.586098   18.075706   23.327657 H          1 MOL1         0.0976
      19    H13     22.451250   19.809786   23.032490 H          1 MOL1         0.0976
      20    C6      23.014552   18.657561   21.280095 C.3        1 MOL1        -0.2365
      21    H14     22.843958   17.665542   20.841889 H          1 MOL1         0.0987
      22    H15     24.093230   18.769576   21.450248 H          1 MOL1         0.0987
      23    H16     22.709395   19.413297   20.544594 H          1 MOL1         0.0987
@<TRIPOS>BOND
    1     1     2    1
    2     1     3    1
    3     1     4    1
    4     1     5    1
    5     5     6    1
    6     5     7    1
    7     5     8    1
    8     8     9    1
    9     8    10    1
   10     8    11    1
   11    11    12    1
   12    11    13    1
   13    11    14    1
   14    14    15    1
   15    14    16    1
   16    14    17    1
   17    17    18    1
   18    17    19    1
   19    17    20    1
   20    20    21    1
   21    20    22    1
   22    20    23    1
@<TRIPOS>SUBSTRUCTURE
       1 MOL1            1 RESIDUE      1      MOL     
@<SCITEGIC>MOL_PROPERTY
VConf Rank
SciTegic.value.IntegerValue
260

@<SCITEGIC>MOL_PROPERTY
Conf_Id
SciTegic.value.IntegerValue
42

@<SCITEGIC>MOL_PROPERTY
Delta U+W
SciTegic.value.DoubleValue
0.365

@<SCITEGIC>MOL_PROPERTY
U+W
SciTegic.value.DoubleValue
-8.017

@<SCITEGIC>MOL_PROPERTY
Grad RMS
SciTegic.value.DoubleValue
0.000000

@<SCITEGIC>MOL_PROPERTY
U
SciTegic.value.DoubleValue
47.375

@<SCITEGIC>MOL_PROPERTY
W
SciTegic.value.DoubleValue
-55.392

@<SCITEGIC>MOL_PROPERTY
W(PB)
SciTegic.value.DoubleValue
-57.543

@<SCITEGIC>MOL_PROPERTY
W(SA)
SciTegic.value.DoubleValue
2.152

@<SCITEGIC>MOL_PROPERTY
Valence
SciTegic.value.DoubleValue
2.032

@<SCITEGIC>MOL_PROPERTY
Coulomb
SciTegic.value.DoubleValue
44.843

@<SCITEGIC>MOL_PROPERTY
VdW
SciTegic.value.DoubleValue
0.499

@<SCITEGIC>MOL_PROPERTY
VdW6
SciTegic.value.DoubleValue
-5.218

@<SCITEGIC>MOL_PROPERTY
VdW12
SciTegic.value.DoubleValue
5.717

@<SCITEGIC>MOL_PROPERTY
Bond
SciTegic.value.DoubleValue
0.135

@<SCITEGIC>MOL_PROPERTY
Angle
SciTegic.value.DoubleValue
0.514

@<SCITEGIC>MOL_PROPERTY
Pdih
SciTegic.value.DoubleValue
1.383

@<SCITEGIC>MOL_PROPERTY
Idih
SciTegic.value.DoubleValue
0.000

@<SCITEGIC>MOL_PROPERTY
Tether
SciTegic.value.DoubleValue
0.000

@<TRIPOS>MOLECULE
guest-2_confgen4.mol2 : confsearch ligand conformer 261
          23          22           1
SMALL
USER_CHARGES
 
@<TRIPOS>ATOM
       1    N1      21.631722   19.693435   20.156199 N.4        1 MOL1        -0.5940
       2    H1      20.863576   19.639187   19.479707 H          1 MOL1         0.3649
       3    H2      22.505261   19.651288   19.620382 H          1 MOL1         0.3649
       4    H3      21.590240   20.621581   20.587738 H          1 MOL1         0.3649
       5    C1      21.551885   18.586785   21.189900 C.3        1 MOL1         0.0207
       6    H4      22.407989   18.687055   21.862546 H          1 MOL1         0.0950
       7    H5      21.644368   17.634182   20.661161 H          1 MOL1         0.0950
       8    C2      20.245744   18.590487   22.007954 C.3        1 MOL1        -0.1415
       9    H6      19.386387   18.517499   21.328374 H          1 MOL1         0.0976
      10    H7      20.238537   17.688210   22.631623 H          1 MOL1         0.0976
      11    C3      20.108212   19.840887   22.910390 C.3        1 MOL1        -0.1375
      12    H8      20.219892   20.746292   22.299571 H          1 MOL1         0.0976
      13    H9      20.933179   19.858307   23.636017 H          1 MOL1         0.0976
      14    C4      18.756996   19.939211   23.665111 C.3        1 MOL1        -0.1375
      15    H10     18.762761   20.881416   24.230534 H          1 MOL1         0.0976
      16    H11     17.929710   20.030900   22.947882 H          1 MOL1         0.0976
      17    C5      18.479013   18.782453   24.659634 C.3        1 MOL1        -0.1350
      18    H12     17.949990   19.190620   25.532277 H          1 MOL1         0.0976
      19    H13     19.423645   18.373246   25.044107 H          1 MOL1         0.0976
      20    C6      17.607745   17.653807   24.060209 C.3        1 MOL1        -0.2365
      21    H14     16.630833   18.040510   23.742149 H          1 MOL1         0.0987
      22    H15     17.427698   16.869957   24.807255 H          1 MOL1         0.0987
      23    H16     18.081873   17.182506   23.192340 H          1 MOL1         0.0987
@<TRIPOS>BOND
    1     1     2    1
    2     1     3    1
    3     1     4    1
    4     1     5    1
    5     5     6    1
    6     5     7    1
    7     5     8    1
    8     8     9    1
    9     8    10    1
   10     8    11    1
   11    11    12    1
   12    11    13    1
   13    11    14    1
   14    14    15    1
   15    14    16    1
   16    14    17    1
   17    17    18    1
   18    17    19    1
   19    17    20    1
   20    20    21    1
   21    20    22    1
   22    20    23    1
@<TRIPOS>SUBSTRUCTURE
       1 MOL1            1 RESIDUE      1      MOL     
@<SCITEGIC>MOL_PROPERTY
VConf Rank
SciTegic.value.IntegerValue
261

@<SCITEGIC>MOL_PROPERTY
Conf_Id
SciTegic.value.IntegerValue
3

@<SCITEGIC>MOL_PROPERTY
Delta U+W
SciTegic.value.DoubleValue
3.283

@<SCITEGIC>MOL_PROPERTY
U+W
SciTegic.value.DoubleValue
-5.099

@<SCITEGIC>MOL_PROPERTY
Grad RMS
SciTegic.value.DoubleValue
0.000000

@<SCITEGIC>MOL_PROPERTY
U
SciTegic.value.DoubleValue
50.701

@<SCITEGIC>MOL_PROPERTY
W
SciTegic.value.DoubleValue
-55.800

@<SCITEGIC>MOL_PROPERTY
W(PB)
SciTegic.value.DoubleValue
-57.867

@<SCITEGIC>MOL_PROPERTY
W(SA)
SciTegic.value.DoubleValue
2.067

@<SCITEGIC>MOL_PROPERTY
Valence
SciTegic.value.DoubleValue
4.880

@<SCITEGIC>MOL_PROPERTY
Coulomb
SciTegic.value.DoubleValue
45.095

@<SCITEGIC>MOL_PROPERTY
VdW
SciTegic.value.DoubleValue
0.726

@<SCITEGIC>MOL_PROPERTY
VdW6
SciTegic.value.DoubleValue
-6.620

@<SCITEGIC>MOL_PROPERTY
VdW12
SciTegic.value.DoubleValue
7.346

@<SCITEGIC>MOL_PROPERTY
Bond
SciTegic.value.DoubleValue
0.222

@<SCITEGIC>MOL_PROPERTY
Angle
SciTegic.value.DoubleValue
1.260

@<SCITEGIC>MOL_PROPERTY
Pdih
SciTegic.value.DoubleValue
3.398

@<SCITEGIC>MOL_PROPERTY
Idih
SciTegic.value.DoubleValue
0.000

@<SCITEGIC>MOL_PROPERTY
Tether
SciTegic.value.DoubleValue
0.000

@<TRIPOS>MOLECULE
guest-2_confgen4.mol2 : confsearch ligand conformer 262
          23          22           1
SMALL
USER_CHARGES
 
@<TRIPOS>ATOM
       1    N1      21.589780   20.518935   24.349598 N.4        1 MOL1        -0.5940
       2    H1      21.608739   21.528342   24.172706 H          1 MOL1         0.3649
       3    H2      22.202998   20.344286   25.152901 H          1 MOL1         0.3649
       4    H3      20.637065   20.279832   24.640740 H          1 MOL1         0.3649
       5    C1      22.018028   19.725570   23.130800 C.3        1 MOL1         0.0207
       6    H4      22.005531   18.665084   23.394810 H          1 MOL1         0.0950
       7    H5      23.049536   20.003940   22.898360 H          1 MOL1         0.0950
       8    C2      21.132138   19.966592   21.891290 C.3        1 MOL1        -0.1415
       9    H6      21.195213   21.025361   21.606975 H          1 MOL1         0.0976
      10    H7      21.545326   19.398644   21.047152 H          1 MOL1         0.0976
      11    C3      19.644859   19.578292   22.088440 C.3        1 MOL1        -0.1375
      12    H8      19.103535   19.827932   21.166744 H          1 MOL1         0.0976
      13    H9      19.199312   20.194255   22.880794 H          1 MOL1         0.0976
      14    C4      19.444716   18.076637   22.416168 C.3        1 MOL1        -0.1375
      15    H10     19.866542   17.462116   21.608954 H          1 MOL1         0.0976
      16    H11     20.005535   17.820388   23.324558 H          1 MOL1         0.0976
      17    C5      17.963362   17.687242   22.640689 C.3        1 MOL1        -0.1350
      18    H12     17.539006   18.291367   23.454740 H          1 MOL1         0.0976
      19    H13     17.921947   16.642762   22.980113 H          1 MOL1         0.0976
      20    C6      17.088542   17.832325   21.374598 C.3        1 MOL1        -0.2365
      21    H14     17.510322   17.263642   20.535725 H          1 MOL1         0.0987
      22    H15     16.993844   18.880917   21.066809 H          1 MOL1         0.0987
      23    H16     16.076086   17.451907   21.562082 H          1 MOL1         0.0987
@<TRIPOS>BOND
    1     1     2    1
    2     1     3    1
    3     1     4    1
    4     1     5    1
    5     5     6    1
    6     5     7    1
    7     5     8    1
    8     8     9    1
    9     8    10    1
   10     8    11    1
   11    11    12    1
   12    11    13    1
   13    11    14    1
   14    14    15    1
   15    14    16    1
   16    14    17    1
   17    17    18    1
   18    17    19    1
   19    17    20    1
   20    20    21    1
   21    20    22    1
   22    20    23    1
@<TRIPOS>SUBSTRUCTURE
       1 MOL1            1 RESIDUE      1      MOL     
@<SCITEGIC>MOL_PROPERTY
VConf Rank
SciTegic.value.IntegerValue
262

@<SCITEGIC>MOL_PROPERTY
Conf_Id
SciTegic.value.IntegerValue
83

@<SCITEGIC>MOL_PROPERTY
Delta U+W
SciTegic.value.DoubleValue
1.229

@<SCITEGIC>MOL_PROPERTY
U+W
SciTegic.value.DoubleValue
-7.154

@<SCITEGIC>MOL_PROPERTY
Grad RMS
SciTegic.value.DoubleValue
0.000000

@<SCITEGIC>MOL_PROPERTY
U
SciTegic.value.DoubleValue
48.727

@<SCITEGIC>MOL_PROPERTY
W
SciTegic.value.DoubleValue
-55.880

@<SCITEGIC>MOL_PROPERTY
W(PB)
SciTegic.value.DoubleValue
-57.960

@<SCITEGIC>MOL_PROPERTY
W(SA)
SciTegic.value.DoubleValue
2.080

@<SCITEGIC>MOL_PROPERTY
Valence
SciTegic.value.DoubleValue
2.671

@<SCITEGIC>MOL_PROPERTY
Coulomb
SciTegic.value.DoubleValue
45.371

@<SCITEGIC>MOL_PROPERTY
VdW
SciTegic.value.DoubleValue
0.684

@<SCITEGIC>MOL_PROPERTY
VdW6
SciTegic.value.DoubleValue
-6.511

@<SCITEGIC>MOL_PROPERTY
VdW12
SciTegic.value.DoubleValue
7.195

@<SCITEGIC>MOL_PROPERTY
Bond
SciTegic.value.DoubleValue
0.203

@<SCITEGIC>MOL_PROPERTY
Angle
SciTegic.value.DoubleValue
0.915

@<SCITEGIC>MOL_PROPERTY
Pdih
SciTegic.value.DoubleValue
1.554

@<SCITEGIC>MOL_PROPERTY
Idih
SciTegic.value.DoubleValue
0.000

@<SCITEGIC>MOL_PROPERTY
Tether
SciTegic.value.DoubleValue
0.000

@<TRIPOS>MOLECULE
guest-2_confgen4.mol2 : confsearch ligand conformer 263
          23          22           1
SMALL
USER_CHARGES
 
@<TRIPOS>ATOM
       1    N1      21.011159   18.734947   25.164147 N.4        1 MOL1        -0.5940
       2    H1      21.074326   17.762536   25.481920 H          1 MOL1         0.3649
       3    H2      20.015776   18.966945   25.093513 H          1 MOL1         0.3649
       4    H3      21.404545   19.319502   25.909383 H          1 MOL1         0.3649
       5    C1      21.729292   18.944165   23.845508 C.3        1 MOL1         0.0207
       6    H4      22.786366   18.712649   24.002097 H          1 MOL1         0.0950
       7    H5      21.650621   20.001548   23.580473 H          1 MOL1         0.0950
       8    C2      21.180684   18.074433   22.695781 C.3        1 MOL1        -0.1415
       9    H6      21.790845   18.249345   21.799695 H          1 MOL1         0.0976
      10    H7      21.313553   17.015356   22.953670 H          1 MOL1         0.0976
      11    C3      19.690899   18.334857   22.357598 C.3        1 MOL1        -0.1375
      12    H8      19.062354   18.090374   23.224148 H          1 MOL1         0.0976
      13    H9      19.396756   17.639298   21.561011 H          1 MOL1         0.0976
      14    C4      19.414044   19.790461   21.902625 C.3        1 MOL1        -0.1375
      15    H10     19.730445   20.488206   22.689007 H          1 MOL1         0.0976
      16    H11     20.023258   20.024267   21.018678 H          1 MOL1         0.0976
      17    C5      17.923143   20.064762   21.588909 C.3        1 MOL1        -0.1350
      18    H12     17.797447   21.138304   21.389982 H          1 MOL1         0.0976
      19    H13     17.309761   19.842815   22.473346 H          1 MOL1         0.0976
      20    C6      17.391783   19.269793   20.374404 C.3        1 MOL1        -0.2365
      21    H14     18.008807   19.449034   19.484369 H          1 MOL1         0.0987
      22    H15     16.364160   19.573760   20.136644 H          1 MOL1         0.0987
      23    H16     17.377915   18.190956   20.572298 H          1 MOL1         0.0987
@<TRIPOS>BOND
    1     1     2    1
    2     1     3    1
    3     1     4    1
    4     1     5    1
    5     5     6    1
    6     5     7    1
    7     5     8    1
    8     8     9    1
    9     8    10    1
   10     8    11    1
   11    11    12    1
   12    11    13    1
   13    11    14    1
   14    14    15    1
   15    14    16    1
   16    14    17    1
   17    17    18    1
   18    17    19    1
   19    17    20    1
   20    20    21    1
   21    20    22    1
   22    20    23    1
@<TRIPOS>SUBSTRUCTURE
       1 MOL1            1 RESIDUE      1      MOL     
@<SCITEGIC>MOL_PROPERTY
VConf Rank
SciTegic.value.IntegerValue
263

@<SCITEGIC>MOL_PROPERTY
Conf_Id
SciTegic.value.IntegerValue
50

@<SCITEGIC>MOL_PROPERTY
Delta U+W
SciTegic.value.DoubleValue
1.252

@<SCITEGIC>MOL_PROPERTY
U+W
SciTegic.value.DoubleValue
-7.130

@<SCITEGIC>MOL_PROPERTY
Grad RMS
SciTegic.value.DoubleValue
0.000000

@<SCITEGIC>MOL_PROPERTY
U
SciTegic.value.DoubleValue
48.727

@<SCITEGIC>MOL_PROPERTY
W
SciTegic.value.DoubleValue
-55.857

@<SCITEGIC>MOL_PROPERTY
W(PB)
SciTegic.value.DoubleValue
-57.937

@<SCITEGIC>MOL_PROPERTY
W(SA)
SciTegic.value.DoubleValue
2.080

@<SCITEGIC>MOL_PROPERTY
Valence
SciTegic.value.DoubleValue
2.671

@<SCITEGIC>MOL_PROPERTY
Coulomb
SciTegic.value.DoubleValue
45.371

@<SCITEGIC>MOL_PROPERTY
VdW
SciTegic.value.DoubleValue
0.684

@<SCITEGIC>MOL_PROPERTY
VdW6
SciTegic.value.DoubleValue
-6.511

@<SCITEGIC>MOL_PROPERTY
VdW12
SciTegic.value.DoubleValue
7.196

@<SCITEGIC>MOL_PROPERTY
Bond
SciTegic.value.DoubleValue
0.203

@<SCITEGIC>MOL_PROPERTY
Angle
SciTegic.value.DoubleValue
0.915

@<SCITEGIC>MOL_PROPERTY
Pdih
SciTegic.value.DoubleValue
1.554

@<SCITEGIC>MOL_PROPERTY
Idih
SciTegic.value.DoubleValue
0.000

@<SCITEGIC>MOL_PROPERTY
Tether
SciTegic.value.DoubleValue
0.000

@<TRIPOS>MOLECULE
guest-2_confgen4.mol2 : confsearch ligand conformer 264
          23          22           1
SMALL
USER_CHARGES
 
@<TRIPOS>ATOM
       1    N1      16.935508   18.656382   21.291981 N.4        1 MOL1        -0.5940
       2    H1      17.573325   18.497026   20.506279 H          1 MOL1         0.3649
       3    H2      16.097553   19.108399   20.910614 H          1 MOL1         0.3649
       4    H3      16.646666   17.736361   21.639484 H          1 MOL1         0.3649
       5    C1      17.580493   19.492979   22.379795 C.3        1 MOL1         0.0207
       6    H4      16.832216   19.655263   23.160385 H          1 MOL1         0.0950
       7    H5      17.841367   20.464368   21.951122 H          1 MOL1         0.0950
       8    C2      18.834221   18.847068   23.000862 C.3        1 MOL1        -0.1415
       9    H6      19.158806   19.469013   23.842582 H          1 MOL1         0.0976
      10    H7      18.568258   17.869874   23.425270 H          1 MOL1         0.0976
      11    C3      19.988498   18.681002   21.979714 C.3        1 MOL1        -0.1375
      12    H8      20.197754   19.637004   21.480087 H          1 MOL1         0.0976
      13    H9      19.659963   17.990755   21.191291 H          1 MOL1         0.0976
      14    C4      21.288571   18.113865   22.607627 C.3        1 MOL1        -0.1375
      15    H10     21.049021   17.469582   23.464778 H          1 MOL1         0.0976
      16    H11     21.767115   17.456392   21.868562 H          1 MOL1         0.0976
      17    C5      22.329966   19.185414   23.020527 C.3        1 MOL1        -0.1350
      18    H12     22.639351   19.758611   22.135371 H          1 MOL1         0.0976
      19    H13     23.232819   18.673080   23.381336 H          1 MOL1         0.0976
      20    C6      21.842335   20.158715   24.115942 C.3        1 MOL1        -0.2365
      21    H14     21.470954   19.613874   24.993473 H          1 MOL1         0.0987
      22    H15     21.042131   20.809891   23.743227 H          1 MOL1         0.0987
      23    H16     22.664348   20.806730   24.446488 H          1 MOL1         0.0987
@<TRIPOS>BOND
    1     1     2    1
    2     1     3    1
    3     1     4    1
    4     1     5    1
    5     5     6    1
    6     5     7    1
    7     5     8    1
    8     8     9    1
    9     8    10    1
   10     8    11    1
   11    11    12    1
   12    11    13    1
   13    11    14    1
   14    14    15    1
   15    14    16    1
   16    14    17    1
   17    17    18    1
   18    17    19    1
   19    17    20    1
   20    20    21    1
   21    20    22    1
   22    20    23    1
@<TRIPOS>SUBSTRUCTURE
       1 MOL1            1 RESIDUE      1      MOL     
@<SCITEGIC>MOL_PROPERTY
VConf Rank
SciTegic.value.IntegerValue
264

@<SCITEGIC>MOL_PROPERTY
Conf_Id
SciTegic.value.IntegerValue
55

@<SCITEGIC>MOL_PROPERTY
Delta U+W
SciTegic.value.DoubleValue
3.232

@<SCITEGIC>MOL_PROPERTY
U+W
SciTegic.value.DoubleValue
-5.150

@<SCITEGIC>MOL_PROPERTY
Grad RMS
SciTegic.value.DoubleValue
0.000000

@<SCITEGIC>MOL_PROPERTY
U
SciTegic.value.DoubleValue
50.625

@<SCITEGIC>MOL_PROPERTY
W
SciTegic.value.DoubleValue
-55.776

@<SCITEGIC>MOL_PROPERTY
W(PB)
SciTegic.value.DoubleValue
-57.839

@<SCITEGIC>MOL_PROPERTY
W(SA)
SciTegic.value.DoubleValue
2.064

@<SCITEGIC>MOL_PROPERTY
Valence
SciTegic.value.DoubleValue
4.837

@<SCITEGIC>MOL_PROPERTY
Coulomb
SciTegic.value.DoubleValue
45.097

@<SCITEGIC>MOL_PROPERTY
VdW
SciTegic.value.DoubleValue
0.692

@<SCITEGIC>MOL_PROPERTY
VdW6
SciTegic.value.DoubleValue
-6.655

@<SCITEGIC>MOL_PROPERTY
VdW12
SciTegic.value.DoubleValue
7.347

@<SCITEGIC>MOL_PROPERTY
Bond
SciTegic.value.DoubleValue
0.223

@<SCITEGIC>MOL_PROPERTY
Angle
SciTegic.value.DoubleValue
1.167

@<SCITEGIC>MOL_PROPERTY
Pdih
SciTegic.value.DoubleValue
3.447

@<SCITEGIC>MOL_PROPERTY
Idih
SciTegic.value.DoubleValue
0.000

@<SCITEGIC>MOL_PROPERTY
Tether
SciTegic.value.DoubleValue
0.000

@<TRIPOS>MOLECULE
guest-2_confgen4.mol2 : confsearch ligand conformer 265
          23          22           1
SMALL
USER_CHARGES
 
@<TRIPOS>ATOM
       1    N1      17.855925   16.772389   21.701791 N.4        1 MOL1        -0.5940
       2    H1      16.924631   16.669039   22.117527 H          1 MOL1         0.3649
       3    H2      18.194869   15.827279   21.492308 H          1 MOL1         0.3649
       4    H3      17.733502   17.251106   20.803682 H          1 MOL1         0.3649
       5    C1      18.803492   17.520583   22.617198 C.3        1 MOL1         0.0207
       6    H4      19.778275   17.559921   22.127718 H          1 MOL1         0.0950
       7    H5      18.908128   16.941205   23.538487 H          1 MOL1         0.0950
       8    C2      18.316413   18.943253   22.955649 C.3        1 MOL1        -0.1415
       9    H6      18.162013   19.523289   22.036094 H          1 MOL1         0.0976
      10    H7      17.333591   18.860524   23.438594 H          1 MOL1         0.0976
      11    C3      19.272212   19.702349   23.910472 C.3        1 MOL1        -0.1375
      12    H8      19.688203   19.009872   24.655477 H          1 MOL1         0.0976
      13    H9      18.678199   20.429957   24.480764 H          1 MOL1         0.0976
      14    C4      20.415749   20.480676   23.209043 C.3        1 MOL1        -0.1375
      15    H10     19.985746   21.242194   22.543851 H          1 MOL1         0.0976
      16    H11     20.976478   21.030129   23.977890 H          1 MOL1         0.0976
      17    C5      21.399556   19.596936   22.408025 C.3        1 MOL1        -0.1350
      18    H12     20.888895   19.161772   21.539250 H          1 MOL1         0.0976
      19    H13     21.747683   18.763182   23.033597 H          1 MOL1         0.0976
      20    C6      22.616151   20.406340   21.910589 C.3        1 MOL1        -0.2365
      21    H14     23.180918   20.828767   22.751902 H          1 MOL1         0.0987
      22    H15     22.300916   21.233179   21.260808 H          1 MOL1         0.0987
      23    H16     23.298091   19.766845   21.335234 H          1 MOL1         0.0987
@<TRIPOS>BOND
    1     1     2    1
    2     1     3    1
    3     1     4    1
    4     1     5    1
    5     5     6    1
    6     5     7    1
    7     5     8    1
    8     8     9    1
    9     8    10    1
   10     8    11    1
   11    11    12    1
   12    11    13    1
   13    11    14    1
   14    14    15    1
   15    14    16    1
   16    14    17    1
   17    17    18    1
   18    17    19    1
   19    17    20    1
   20    20    21    1
   21    20    22    1
   22    20    23    1
@<TRIPOS>SUBSTRUCTURE
       1 MOL1            1 RESIDUE      1      MOL     
@<SCITEGIC>MOL_PROPERTY
VConf Rank
SciTegic.value.IntegerValue
265

@<SCITEGIC>MOL_PROPERTY
Conf_Id
SciTegic.value.IntegerValue
93

@<SCITEGIC>MOL_PROPERTY
Delta U+W
SciTegic.value.DoubleValue
2.589

@<SCITEGIC>MOL_PROPERTY
U+W
SciTegic.value.DoubleValue
-5.793

@<SCITEGIC>MOL_PROPERTY
Grad RMS
SciTegic.value.DoubleValue
0.000000

@<SCITEGIC>MOL_PROPERTY
U
SciTegic.value.DoubleValue
50.122

@<SCITEGIC>MOL_PROPERTY
W
SciTegic.value.DoubleValue
-55.915

@<SCITEGIC>MOL_PROPERTY
W(PB)
SciTegic.value.DoubleValue
-58.031

@<SCITEGIC>MOL_PROPERTY
W(SA)
SciTegic.value.DoubleValue
2.115

@<SCITEGIC>MOL_PROPERTY
Valence
SciTegic.value.DoubleValue
4.132

@<SCITEGIC>MOL_PROPERTY
Coulomb
SciTegic.value.DoubleValue
45.536

@<SCITEGIC>MOL_PROPERTY
VdW
SciTegic.value.DoubleValue
0.454

@<SCITEGIC>MOL_PROPERTY
VdW6
SciTegic.value.DoubleValue
-6.262

@<SCITEGIC>MOL_PROPERTY
VdW12
SciTegic.value.DoubleValue
6.715

@<SCITEGIC>MOL_PROPERTY
Bond
SciTegic.value.DoubleValue
0.182

@<SCITEGIC>MOL_PROPERTY
Angle
SciTegic.value.DoubleValue
1.157

@<SCITEGIC>MOL_PROPERTY
Pdih
SciTegic.value.DoubleValue
2.794

@<SCITEGIC>MOL_PROPERTY
Idih
SciTegic.value.DoubleValue
0.000

@<SCITEGIC>MOL_PROPERTY
Tether
SciTegic.value.DoubleValue
0.000

@<TRIPOS>MOLECULE
guest-2_confgen4.mol2 : confsearch ligand conformer 266
          23          22           1
SMALL
USER_CHARGES
 
@<TRIPOS>ATOM
       1    N1      20.253332   16.236768   24.042153 N.4        1 MOL1        -0.5940
       2    H1      19.246938   16.042102   24.036596 H          1 MOL1         0.3649
       3    H2      20.555949   16.215191   25.021927 H          1 MOL1         0.3649
       4    H3      20.714633   15.451874   23.571015 H          1 MOL1         0.3649
       5    C1      20.577039   17.561406   23.381702 C.3        1 MOL1         0.0207
       6    H4      21.657327   17.715551   23.449645 H          1 MOL1         0.0950
       7    H5      20.084505   18.348865   23.954990 H          1 MOL1         0.0950
       8    C2      20.139892   17.620912   21.904831 C.3        1 MOL1        -0.1415
       9    H6      20.650320   16.811493   21.366014 H          1 MOL1         0.0976
      10    H7      19.063649   17.421544   21.816423 H          1 MOL1         0.0976
      11    C3      20.490726   18.966232   21.220366 C.3        1 MOL1        -0.1375
      12    H8      20.623737   18.778180   20.145916 H          1 MOL1         0.0976
      13    H9      21.463259   19.329499   21.580670 H          1 MOL1         0.0976
      14    C4      19.418014   20.076257   21.370724 C.3        1 MOL1        -0.1375
      15    H10     19.745498   20.948694   20.788445 H          1 MOL1         0.0976
      16    H11     18.477387   19.740615   20.912622 H          1 MOL1         0.0976
      17    C5      19.149241   20.519218   22.827449 C.3        1 MOL1        -0.1350
      18    H12     20.099333   20.747966   23.330118 H          1 MOL1         0.0976
      19    H13     18.673725   19.701982   23.385054 H          1 MOL1         0.0976
      20    C6      18.228584   21.756844   22.885374 C.3        1 MOL1        -0.2365
      21    H14     18.039460   22.050830   23.925967 H          1 MOL1         0.0987
      22    H15     17.259724   21.550307   22.412191 H          1 MOL1         0.0987
      23    H16     18.684425   22.613271   22.371609 H          1 MOL1         0.0987
@<TRIPOS>BOND
    1     1     2    1
    2     1     3    1
    3     1     4    1
    4     1     5    1
    5     5     6    1
    6     5     7    1
    7     5     8    1
    8     8     9    1
    9     8    10    1
   10     8    11    1
   11    11    12    1
   12    11    13    1
   13    11    14    1
   14    14    15    1
   15    14    16    1
   16    14    17    1
   17    17    18    1
   18    17    19    1
   19    17    20    1
   20    20    21    1
   21    20    22    1
   22    20    23    1
@<TRIPOS>SUBSTRUCTURE
       1 MOL1            1 RESIDUE      1      MOL     
@<SCITEGIC>MOL_PROPERTY
VConf Rank
SciTegic.value.IntegerValue
266

@<SCITEGIC>MOL_PROPERTY
Conf_Id
SciTegic.value.IntegerValue
70

@<SCITEGIC>MOL_PROPERTY
Delta U+W
SciTegic.value.DoubleValue
2.599

@<SCITEGIC>MOL_PROPERTY
U+W
SciTegic.value.DoubleValue
-5.783

@<SCITEGIC>MOL_PROPERTY
Grad RMS
SciTegic.value.DoubleValue
0.000000

@<SCITEGIC>MOL_PROPERTY
U
SciTegic.value.DoubleValue
50.122

@<SCITEGIC>MOL_PROPERTY
W
SciTegic.value.DoubleValue
-55.906

@<SCITEGIC>MOL_PROPERTY
W(PB)
SciTegic.value.DoubleValue
-58.010

@<SCITEGIC>MOL_PROPERTY
W(SA)
SciTegic.value.DoubleValue
2.105

@<SCITEGIC>MOL_PROPERTY
Valence
SciTegic.value.DoubleValue
4.132

@<SCITEGIC>MOL_PROPERTY
Coulomb
SciTegic.value.DoubleValue
45.536

@<SCITEGIC>MOL_PROPERTY
VdW
SciTegic.value.DoubleValue
0.454

@<SCITEGIC>MOL_PROPERTY
VdW6
SciTegic.value.DoubleValue
-6.262

@<SCITEGIC>MOL_PROPERTY
VdW12
SciTegic.value.DoubleValue
6.715

@<SCITEGIC>MOL_PROPERTY
Bond
SciTegic.value.DoubleValue
0.182

@<SCITEGIC>MOL_PROPERTY
Angle
SciTegic.value.DoubleValue
1.157

@<SCITEGIC>MOL_PROPERTY
Pdih
SciTegic.value.DoubleValue
2.794

@<SCITEGIC>MOL_PROPERTY
Idih
SciTegic.value.DoubleValue
0.000

@<SCITEGIC>MOL_PROPERTY
Tether
SciTegic.value.DoubleValue
0.000

@<TRIPOS>MOLECULE
guest-2_confgen4.mol2 : confsearch ligand conformer 267
          23          22           1
SMALL
USER_CHARGES
 
@<TRIPOS>ATOM
       1    N1      17.920187   18.109972   24.519055 N.4        1 MOL1        -0.5940
       2    H1      16.910105   18.047735   24.356673 H          1 MOL1         0.3649
       3    H2      18.068152   18.004152   25.528348 H          1 MOL1         0.3649
       4    H3      18.350503   17.298893   24.064695 H          1 MOL1         0.3649
       5    C1      18.494573   19.412803   23.998529 C.3        1 MOL1         0.0207
       6    H4      19.562362   19.430567   24.231888 H          1 MOL1         0.0950
       7    H5      18.014209   20.229933   24.543547 H          1 MOL1         0.0950
       8    C2      18.289659   19.616999   22.483901 C.3        1 MOL1        -0.1415
       9    H6      17.213529   19.632053   22.266110 H          1 MOL1         0.0976
      10    H7      18.664356   20.610529   22.206563 H          1 MOL1         0.0976
      11    C3      18.972623   18.536896   21.604161 C.3        1 MOL1        -0.1375
      12    H8      18.807747   18.785592   20.546726 H          1 MOL1         0.0976
      13    H9      18.473046   17.571770   21.762866 H          1 MOL1         0.0976
      14    C4      20.493324   18.359584   21.850795 C.3        1 MOL1        -0.1375
      15    H10     20.671239   18.018699   22.879403 H          1 MOL1         0.0976
      16    H11     20.858244   17.554459   21.198151 H          1 MOL1         0.0976
      17    C5      21.317180   19.639863   21.576859 C.3        1 MOL1        -0.1350
      18    H12     21.017089   20.438639   22.268119 H          1 MOL1         0.0976
      19    H13     21.110787   20.003451   20.560532 H          1 MOL1         0.0976
      20    C6      22.831748   19.386200   21.732169 C.3        1 MOL1        -0.2365
      21    H14     23.400575   20.304549   21.537015 H          1 MOL1         0.0987
      22    H15     23.178367   18.619435   21.027102 H          1 MOL1         0.0987
      23    H16     23.073210   19.049982   22.748957 H          1 MOL1         0.0987
@<TRIPOS>BOND
    1     1     2    1
    2     1     3    1
    3     1     4    1
    4     1     5    1
    5     5     6    1
    6     5     7    1
    7     5     8    1
    8     8     9    1
    9     8    10    1
   10     8    11    1
   11    11    12    1
   12    11    13    1
   13    11    14    1
   14    14    15    1
   15    14    16    1
   16    14    17    1
   17    17    18    1
   18    17    19    1
   19    17    20    1
   20    20    21    1
   21    20    22    1
   22    20    23    1
@<TRIPOS>SUBSTRUCTURE
       1 MOL1            1 RESIDUE      1      MOL     
@<SCITEGIC>MOL_PROPERTY
VConf Rank
SciTegic.value.IntegerValue
267

@<SCITEGIC>MOL_PROPERTY
Conf_Id
SciTegic.value.IntegerValue
72

@<SCITEGIC>MOL_PROPERTY
Delta U+W
SciTegic.value.DoubleValue
1.051

@<SCITEGIC>MOL_PROPERTY
U+W
SciTegic.value.DoubleValue
-7.331

@<SCITEGIC>MOL_PROPERTY
Grad RMS
SciTegic.value.DoubleValue
0.000000

@<SCITEGIC>MOL_PROPERTY
U
SciTegic.value.DoubleValue
48.590

@<SCITEGIC>MOL_PROPERTY
W
SciTegic.value.DoubleValue
-55.922

@<SCITEGIC>MOL_PROPERTY
W(PB)
SciTegic.value.DoubleValue
-58.012

@<SCITEGIC>MOL_PROPERTY
W(SA)
SciTegic.value.DoubleValue
2.090

@<SCITEGIC>MOL_PROPERTY
Valence
SciTegic.value.DoubleValue
2.601

@<SCITEGIC>MOL_PROPERTY
Coulomb
SciTegic.value.DoubleValue
45.520

@<SCITEGIC>MOL_PROPERTY
VdW
SciTegic.value.DoubleValue
0.469

@<SCITEGIC>MOL_PROPERTY
VdW6
SciTegic.value.DoubleValue
-6.867

@<SCITEGIC>MOL_PROPERTY
VdW12
SciTegic.value.DoubleValue
7.336

@<SCITEGIC>MOL_PROPERTY
Bond
SciTegic.value.DoubleValue
0.205

@<SCITEGIC>MOL_PROPERTY
Angle
SciTegic.value.DoubleValue
0.962

@<SCITEGIC>MOL_PROPERTY
Pdih
SciTegic.value.DoubleValue
1.434

@<SCITEGIC>MOL_PROPERTY
Idih
SciTegic.value.DoubleValue
0.000

@<SCITEGIC>MOL_PROPERTY
Tether
SciTegic.value.DoubleValue
0.000

@<TRIPOS>MOLECULE
guest-2_confgen4.mol2 : confsearch ligand conformer 268
          23          22           1
SMALL
USER_CHARGES
 
@<TRIPOS>ATOM
       1    N1      20.387200   15.937941   23.112120 N.4        1 MOL1        -0.5940
       2    H1      20.142953   15.112499   22.554495 H          1 MOL1         0.3649
       3    H2      20.373482   15.647661   24.095142 H          1 MOL1         0.3649
       4    H3      21.356948   16.177069   22.881751 H          1 MOL1         0.3649
       5    C1      19.442303   17.093207   22.851033 C.3        1 MOL1         0.0207
       6    H4      18.428280   16.761057   23.089326 H          1 MOL1         0.0950
       7    H5      19.485798   17.328303   21.784369 H          1 MOL1         0.0950
       8    C2      19.782486   18.349717   23.674001 C.3        1 MOL1        -0.1415
       9    H6      19.772610   18.093425   24.741683 H          1 MOL1         0.0976
      10    H7      20.804889   18.676506   23.445239 H          1 MOL1         0.0976
      11    C3      18.787814   19.511597   23.429611 C.3        1 MOL1        -0.1375
      12    H8      19.071337   20.365376   24.059393 H          1 MOL1         0.0976
      13    H9      17.791856   19.205026   23.778027 H          1 MOL1         0.0976
      14    C4      18.674625   19.972284   21.951195 C.3        1 MOL1        -0.1375
      15    H10     18.233259   19.165686   21.350446 H          1 MOL1         0.0976
      16    H11     17.959612   20.804765   21.897322 H          1 MOL1         0.0976
      17    C5      20.006998   20.414815   21.294562 C.3        1 MOL1        -0.1350
      18    H12     19.805178   20.704333   20.253823 H          1 MOL1         0.0976
      19    H13     20.703809   19.567649   21.240871 H          1 MOL1         0.0976
      20    C6      20.682709   21.601281   22.018599 C.3        1 MOL1        -0.2365
      21    H14     19.999572   22.457055   22.095501 H          1 MOL1         0.0987
      22    H15     21.573402   21.930921   21.468286 H          1 MOL1         0.0987
      23    H16     21.003044   21.325170   23.030877 H          1 MOL1         0.0987
@<TRIPOS>BOND
    1     1     2    1
    2     1     3    1
    3     1     4    1
    4     1     5    1
    5     5     6    1
    6     5     7    1
    7     5     8    1
    8     8     9    1
    9     8    10    1
   10     8    11    1
   11    11    12    1
   12    11    13    1
   13    11    14    1
   14    14    15    1
   15    14    16    1
   16    14    17    1
   17    17    18    1
   18    17    19    1
   19    17    20    1
   20    20    21    1
   21    20    22    1
   22    20    23    1
@<TRIPOS>SUBSTRUCTURE
       1 MOL1            1 RESIDUE      1      MOL     
@<SCITEGIC>MOL_PROPERTY
VConf Rank
SciTegic.value.IntegerValue
268

@<SCITEGIC>MOL_PROPERTY
Conf_Id
SciTegic.value.IntegerValue
26

@<SCITEGIC>MOL_PROPERTY
Delta U+W
SciTegic.value.DoubleValue
1.076

@<SCITEGIC>MOL_PROPERTY
U+W
SciTegic.value.DoubleValue
-7.306

@<SCITEGIC>MOL_PROPERTY
Grad RMS
SciTegic.value.DoubleValue
0.000000

@<SCITEGIC>MOL_PROPERTY
U
SciTegic.value.DoubleValue
48.641

@<SCITEGIC>MOL_PROPERTY
W
SciTegic.value.DoubleValue
-55.947

@<SCITEGIC>MOL_PROPERTY
W(PB)
SciTegic.value.DoubleValue
-58.031

@<SCITEGIC>MOL_PROPERTY
W(SA)
SciTegic.value.DoubleValue
2.084

@<SCITEGIC>MOL_PROPERTY
Valence
SciTegic.value.DoubleValue
2.922

@<SCITEGIC>MOL_PROPERTY
Coulomb
SciTegic.value.DoubleValue
45.269

@<SCITEGIC>MOL_PROPERTY
VdW
SciTegic.value.DoubleValue
0.449

@<SCITEGIC>MOL_PROPERTY
VdW6
SciTegic.value.DoubleValue
-7.045

@<SCITEGIC>MOL_PROPERTY
VdW12
SciTegic.value.DoubleValue
7.494

@<SCITEGIC>MOL_PROPERTY
Bond
SciTegic.value.DoubleValue
0.220

@<SCITEGIC>MOL_PROPERTY
Angle
SciTegic.value.DoubleValue
1.205

@<SCITEGIC>MOL_PROPERTY
Pdih
SciTegic.value.DoubleValue
1.497

@<SCITEGIC>MOL_PROPERTY
Idih
SciTegic.value.DoubleValue
0.000

@<SCITEGIC>MOL_PROPERTY
Tether
SciTegic.value.DoubleValue
0.000

@<TRIPOS>MOLECULE
guest-2_confgen4.mol2 : confsearch ligand conformer 269
          23          22           1
SMALL
USER_CHARGES
 
@<TRIPOS>ATOM
       1    N1      20.515526   18.938896   19.562099 N.4        1 MOL1        -0.5940
       2    H1      20.257528   18.076164   19.072289 H          1 MOL1         0.3649
       3    H2      21.319170   19.335520   19.063296 H          1 MOL1         0.3649
       4    H3      19.737872   19.596315   19.444979 H          1 MOL1         0.3649
       5    C1      20.828323   18.687077   21.023051 C.3        1 MOL1         0.0207
       6    H4      21.122942   19.639012   21.472442 H          1 MOL1         0.0950
       7    H5      21.680606   18.004126   21.073459 H          1 MOL1         0.0950
       8    C2      19.640404   18.091104   21.801179 C.3        1 MOL1        -0.1415
       9    H6      18.780099   18.769783   21.740330 H          1 MOL1         0.0976
      10    H7      19.328855   17.154814   21.319487 H          1 MOL1         0.0976
      11    C3      19.982322   17.800863   23.283715 C.3        1 MOL1        -0.1375
      12    H8      20.763328   17.028983   23.323001 H          1 MOL1         0.0976
      13    H9      19.105042   17.358853   23.774591 H          1 MOL1         0.0976
      14    C4      20.464300   19.034081   24.094658 C.3        1 MOL1        -0.1375
      15    H10     20.661387   18.718458   25.128441 H          1 MOL1         0.0976
      16    H11     21.431646   19.374183   23.701119 H          1 MOL1         0.0976
      17    C5      19.482641   20.233277   24.116969 C.3        1 MOL1        -0.1350
      18    H12     19.350856   20.635226   23.103465 H          1 MOL1         0.0976
      19    H13     19.933925   21.044221   24.705531 H          1 MOL1         0.0976
      20    C6      18.104437   19.885915   24.723938 C.3        1 MOL1        -0.2365
      21    H14     17.565557   19.156090   24.107073 H          1 MOL1         0.0987
      22    H15     17.478244   20.784555   24.795846 H          1 MOL1         0.0987
      23    H16     18.211968   19.469749   25.733980 H          1 MOL1         0.0987
@<TRIPOS>BOND
    1     1     2    1
    2     1     3    1
    3     1     4    1
    4     1     5    1
    5     5     6    1
    6     5     7    1
    7     5     8    1
    8     8     9    1
    9     8    10    1
   10     8    11    1
   11    11    12    1
   12    11    13    1
   13    11    14    1
   14    14    15    1
   15    14    16    1
   16    14    17    1
   17    17    18    1
   18    17    19    1
   19    17    20    1
   20    20    21    1
   21    20    22    1
   22    20    23    1
@<TRIPOS>SUBSTRUCTURE
       1 MOL1            1 RESIDUE      1      MOL     
@<SCITEGIC>MOL_PROPERTY
VConf Rank
SciTegic.value.IntegerValue
269

@<SCITEGIC>MOL_PROPERTY
Conf_Id
SciTegic.value.IntegerValue
90

@<SCITEGIC>MOL_PROPERTY
Delta U+W
SciTegic.value.DoubleValue
1.131

@<SCITEGIC>MOL_PROPERTY
U+W
SciTegic.value.DoubleValue
-7.251

@<SCITEGIC>MOL_PROPERTY
Grad RMS
SciTegic.value.DoubleValue
0.000000

@<SCITEGIC>MOL_PROPERTY
U
SciTegic.value.DoubleValue
48.641

@<SCITEGIC>MOL_PROPERTY
W
SciTegic.value.DoubleValue
-55.892

@<SCITEGIC>MOL_PROPERTY
W(PB)
SciTegic.value.DoubleValue
-57.962

@<SCITEGIC>MOL_PROPERTY
W(SA)
SciTegic.value.DoubleValue
2.070

@<SCITEGIC>MOL_PROPERTY
Valence
SciTegic.value.DoubleValue
2.922

@<SCITEGIC>MOL_PROPERTY
Coulomb
SciTegic.value.DoubleValue
45.269

@<SCITEGIC>MOL_PROPERTY
VdW
SciTegic.value.DoubleValue
0.450

@<SCITEGIC>MOL_PROPERTY
VdW6
SciTegic.value.DoubleValue
-7.045

@<SCITEGIC>MOL_PROPERTY
VdW12
SciTegic.value.DoubleValue
7.495

@<SCITEGIC>MOL_PROPERTY
Bond
SciTegic.value.DoubleValue
0.220

@<SCITEGIC>MOL_PROPERTY
Angle
SciTegic.value.DoubleValue
1.205

@<SCITEGIC>MOL_PROPERTY
Pdih
SciTegic.value.DoubleValue
1.497

@<SCITEGIC>MOL_PROPERTY
Idih
SciTegic.value.DoubleValue
0.000

@<SCITEGIC>MOL_PROPERTY
Tether
SciTegic.value.DoubleValue
0.000

@<TRIPOS>MOLECULE
guest-2_confgen4.mol2 : confsearch ligand conformer 270
          23          22           1
SMALL
USER_CHARGES
 
@<TRIPOS>ATOM
       1    N1      20.825942   20.467390   20.681709 N.4        1 MOL1        -0.5940
       2    H1      20.857381   21.470118   20.468637 H          1 MOL1         0.3649
       3    H2      19.840050   20.215395   20.800615 H          1 MOL1         0.3649
       4    H3      21.167487   19.974159   19.850659 H          1 MOL1         0.3649
       5    C1      21.642155   20.127315   21.913187 C.3        1 MOL1         0.0207
       6    H4      21.247687   20.706738   22.751865 H          1 MOL1         0.0950
       7    H5      22.670373   20.451612   21.731202 H          1 MOL1         0.0950
       8    C2      21.634118   18.626071   22.266870 C.3        1 MOL1        -0.1415
       9    H6      22.075779   18.058628   21.436969 H          1 MOL1         0.0976
      10    H7      22.291486   18.464579   23.131526 H          1 MOL1         0.0976
      11    C3      20.226417   18.060923   22.582414 C.3        1 MOL1        -0.1375
      12    H8      20.321502   16.989382   22.805728 H          1 MOL1         0.0976
      13    H9      19.594564   18.132034   21.688094 H          1 MOL1         0.0976
      14    C4      19.541966   18.770173   23.778226 C.3        1 MOL1        -0.1375
      15    H10     20.225648   18.762515   24.638335 H          1 MOL1         0.0976
      16    H11     19.358301   19.825909   23.538184 H          1 MOL1         0.0976
      17    C5      18.209482   18.107619   24.203551 C.3        1 MOL1        -0.1350
      18    H12     17.846276   18.600104   25.116445 H          1 MOL1         0.0976
      19    H13     18.385328   17.056298   24.471098 H          1 MOL1         0.0976
      20    C6      17.109592   18.191848   23.120831 C.3        1 MOL1        -0.2365
      21    H14     16.933370   19.231744   22.816696 H          1 MOL1         0.0987
      22    H15     16.162693   17.789568   23.503571 H          1 MOL1         0.0987
      23    H16     17.376650   17.612282   22.228535 H          1 MOL1         0.0987
@<TRIPOS>BOND
    1     1     2    1
    2     1     3    1
    3     1     4    1
    4     1     5    1
    5     5     6    1
    6     5     7    1
    7     5     8    1
    8     8     9    1
    9     8    10    1
   10     8    11    1
   11    11    12    1
   12    11    13    1
   13    11    14    1
   14    14    15    1
   15    14    16    1
   16    14    17    1
   17    17    18    1
   18    17    19    1
   19    17    20    1
   20    20    21    1
   21    20    22    1
   22    20    23    1
@<TRIPOS>SUBSTRUCTURE
       1 MOL1            1 RESIDUE      1      MOL     
@<SCITEGIC>MOL_PROPERTY
VConf Rank
SciTegic.value.IntegerValue
270

@<SCITEGIC>MOL_PROPERTY
Conf_Id
SciTegic.value.IntegerValue
85

@<SCITEGIC>MOL_PROPERTY
Delta U+W
SciTegic.value.DoubleValue
1.193

@<SCITEGIC>MOL_PROPERTY
U+W
SciTegic.value.DoubleValue
-7.189

@<SCITEGIC>MOL_PROPERTY
Grad RMS
SciTegic.value.DoubleValue
0.000000

@<SCITEGIC>MOL_PROPERTY
U
SciTegic.value.DoubleValue
48.775

@<SCITEGIC>MOL_PROPERTY
W
SciTegic.value.DoubleValue
-55.965

@<SCITEGIC>MOL_PROPERTY
W(PB)
SciTegic.value.DoubleValue
-58.038

@<SCITEGIC>MOL_PROPERTY
W(SA)
SciTegic.value.DoubleValue
2.073

@<SCITEGIC>MOL_PROPERTY
Valence
SciTegic.value.DoubleValue
2.602

@<SCITEGIC>MOL_PROPERTY
Coulomb
SciTegic.value.DoubleValue
45.581

@<SCITEGIC>MOL_PROPERTY
VdW
SciTegic.value.DoubleValue
0.592

@<SCITEGIC>MOL_PROPERTY
VdW6
SciTegic.value.DoubleValue
-6.616

@<SCITEGIC>MOL_PROPERTY
VdW12
SciTegic.value.DoubleValue
7.208

@<SCITEGIC>MOL_PROPERTY
Bond
SciTegic.value.DoubleValue
0.196

@<SCITEGIC>MOL_PROPERTY
Angle
SciTegic.value.DoubleValue
0.832

@<SCITEGIC>MOL_PROPERTY
Pdih
SciTegic.value.DoubleValue
1.574

@<SCITEGIC>MOL_PROPERTY
Idih
SciTegic.value.DoubleValue
0.000

@<SCITEGIC>MOL_PROPERTY
Tether
SciTegic.value.DoubleValue
0.000

@<TRIPOS>MOLECULE
guest-2_confgen4.mol2 : confsearch ligand conformer 271
          23          22           1
SMALL
USER_CHARGES
 
@<TRIPOS>ATOM
       1    N1      18.710051   17.363779   21.656539 N.4        1 MOL1        -0.5940
       2    H1      19.238256   17.492891   22.525446 H          1 MOL1         0.3649
       3    H2      19.029198   16.487103   21.230056 H          1 MOL1         0.3649
       4    H3      17.726543   17.230252   21.913245 H          1 MOL1         0.3649
       5    C1      18.890224   18.543361   20.720706 C.3        1 MOL1         0.0207
       6    H4      18.299803   18.333198   19.824746 H          1 MOL1         0.0950
       7    H5      19.941952   18.600884   20.427979 H          1 MOL1         0.0950
       8    C2      18.437577   19.891844   21.316881 C.3        1 MOL1        -0.1415
       9    H6      18.229522   20.573104   20.481156 H          1 MOL1         0.0976
      10    H7      17.481748   19.763243   21.841975 H          1 MOL1         0.0976
      11    C3      19.469571   20.584595   22.247039 C.3        1 MOL1        -0.1375
      12    H8      19.041696   21.550156   22.550554 H          1 MOL1         0.0976
      13    H9      20.378318   20.831573   21.680778 H          1 MOL1         0.0976
      14    C4      19.837698   19.798063   23.531215 C.3        1 MOL1        -0.1375
      15    H10     19.986324   20.516285   24.349632 H          1 MOL1         0.0976
      16    H11     18.995954   19.165556   23.842867 H          1 MOL1         0.0976
      17    C5      21.136519   18.967916   23.386226 C.3        1 MOL1        -0.1350
      18    H12     21.987079   19.648805   23.241065 H          1 MOL1         0.0976
      19    H13     21.102386   18.333084   22.492861 H          1 MOL1         0.0976
      20    C6      21.395487   18.091565   24.629918 C.3        1 MOL1        -0.2365
      21    H14     21.487650   18.708131   25.533645 H          1 MOL1         0.0987
      22    H15     22.327157   17.522277   24.515547 H          1 MOL1         0.0987
      23    H16     20.580093   17.374174   24.788817 H          1 MOL1         0.0987
@<TRIPOS>BOND
    1     1     2    1
    2     1     3    1
    3     1     4    1
    4     1     5    1
    5     5     6    1
    6     5     7    1
    7     5     8    1
    8     8     9    1
    9     8    10    1
   10     8    11    1
   11    11    12    1
   12    11    13    1
   13    11    14    1
   14    14    15    1
   15    14    16    1
   16    14    17    1
   17    17    18    1
   18    17    19    1
   19    17    20    1
   20    20    21    1
   21    20    22    1
   22    20    23    1
@<TRIPOS>SUBSTRUCTURE
       1 MOL1            1 RESIDUE      1      MOL     
@<SCITEGIC>MOL_PROPERTY
VConf Rank
SciTegic.value.IntegerValue
271

@<SCITEGIC>MOL_PROPERTY
Conf_Id
SciTegic.value.IntegerValue
82

@<SCITEGIC>MOL_PROPERTY
Delta U+W
SciTegic.value.DoubleValue
5.994

@<SCITEGIC>MOL_PROPERTY
U+W
SciTegic.value.DoubleValue
-2.388

@<SCITEGIC>MOL_PROPERTY
Grad RMS
SciTegic.value.DoubleValue
0.000000

@<SCITEGIC>MOL_PROPERTY
U
SciTegic.value.DoubleValue
52.836

@<SCITEGIC>MOL_PROPERTY
W
SciTegic.value.DoubleValue
-55.224

@<SCITEGIC>MOL_PROPERTY
W(PB)
SciTegic.value.DoubleValue
-57.261

@<SCITEGIC>MOL_PROPERTY
W(SA)
SciTegic.value.DoubleValue
2.037

@<SCITEGIC>MOL_PROPERTY
Valence
SciTegic.value.DoubleValue
5.785

@<SCITEGIC>MOL_PROPERTY
Coulomb
SciTegic.value.DoubleValue
46.744

@<SCITEGIC>MOL_PROPERTY
VdW
SciTegic.value.DoubleValue
0.307

@<SCITEGIC>MOL_PROPERTY
VdW6
SciTegic.value.DoubleValue
-7.672

@<SCITEGIC>MOL_PROPERTY
VdW12
SciTegic.value.DoubleValue
7.979

@<SCITEGIC>MOL_PROPERTY
Bond
SciTegic.value.DoubleValue
0.217

@<SCITEGIC>MOL_PROPERTY
Angle
SciTegic.value.DoubleValue
1.470

@<SCITEGIC>MOL_PROPERTY
Pdih
SciTegic.value.DoubleValue
4.098

@<SCITEGIC>MOL_PROPERTY
Idih
SciTegic.value.DoubleValue
0.000

@<SCITEGIC>MOL_PROPERTY
Tether
SciTegic.value.DoubleValue
0.000

@<TRIPOS>MOLECULE
guest-2_confgen4.mol2 : confsearch ligand conformer 272
          23          22           1
SMALL
USER_CHARGES
 
@<TRIPOS>ATOM
       1    N1      20.810349   18.331678   20.838734 N.4        1 MOL1        -0.5940
       2    H1      20.217844   18.044987   20.052756 H          1 MOL1         0.3649
       3    H2      21.748130   18.501921   20.459410 H          1 MOL1         0.3649
       4    H3      20.450483   19.227889   21.182213 H          1 MOL1         0.3649
       5    C1      20.828688   17.286733   21.937555 C.3        1 MOL1         0.0207
       6    H4      21.522657   17.610777   22.717639 H          1 MOL1         0.0950
       7    H5      21.220302   16.366188   21.496255 H          1 MOL1         0.0950
       8    C2      19.444163   17.000147   22.553735 C.3        1 MOL1        -0.1415
       9    H6      18.691053   16.929955   21.757637 H          1 MOL1         0.0976
      10    H7      19.483983   16.004563   23.015324 H          1 MOL1         0.0976
      11    C3      18.981274   18.007810   23.640226 C.3        1 MOL1        -0.1375
      12    H8      19.668981   17.977958   24.496753 H          1 MOL1         0.0976
      13    H9      18.015757   17.653155   24.026878 H          1 MOL1         0.0976
      14    C4      18.796285   19.468310   23.154448 C.3        1 MOL1        -0.1375
      15    H10     18.526408   19.482628   22.090171 H          1 MOL1         0.0976
      16    H11     17.937578   19.905570   23.682809 H          1 MOL1         0.0976
      17    C5      20.029305   20.363152   23.430170 C.3        1 MOL1        -0.1350
      18    H12     20.947128   19.900163   23.048692 H          1 MOL1         0.0976
      19    H13     20.169235   20.462203   24.515869 H          1 MOL1         0.0976
      20    C6      19.865709   21.766958   22.810177 C.3        1 MOL1        -0.2365
      21    H14     19.755974   21.710672   21.719509 H          1 MOL1         0.0987
      22    H15     20.741796   22.391433   23.028540 H          1 MOL1         0.0987
      23    H16     18.981359   22.275739   23.215683 H          1 MOL1         0.0987
@<TRIPOS>BOND
    1     1     2    1
    2     1     3    1
    3     1     4    1
    4     1     5    1
    5     5     6    1
    6     5     7    1
    7     5     8    1
    8     8     9    1
    9     8    10    1
   10     8    11    1
   11    11    12    1
   12    11    13    1
   13    11    14    1
   14    14    15    1
   15    14    16    1
   16    14    17    1
   17    17    18    1
   18    17    19    1
   19    17    20    1
   20    20    21    1
   21    20    22    1
   22    20    23    1
@<TRIPOS>SUBSTRUCTURE
       1 MOL1            1 RESIDUE      1      MOL     
@<SCITEGIC>MOL_PROPERTY
VConf Rank
SciTegic.value.IntegerValue
272

@<SCITEGIC>MOL_PROPERTY
Conf_Id
SciTegic.value.IntegerValue
5

@<SCITEGIC>MOL_PROPERTY
Delta U+W
SciTegic.value.DoubleValue
6.087

@<SCITEGIC>MOL_PROPERTY
U+W
SciTegic.value.DoubleValue
-2.295

@<SCITEGIC>MOL_PROPERTY
Grad RMS
SciTegic.value.DoubleValue
0.000000

@<SCITEGIC>MOL_PROPERTY
U
SciTegic.value.DoubleValue
52.836

@<SCITEGIC>MOL_PROPERTY
W
SciTegic.value.DoubleValue
-55.131

@<SCITEGIC>MOL_PROPERTY
W(PB)
SciTegic.value.DoubleValue
-57.202

@<SCITEGIC>MOL_PROPERTY
W(SA)
SciTegic.value.DoubleValue
2.071

@<SCITEGIC>MOL_PROPERTY
Valence
SciTegic.value.DoubleValue
5.785

@<SCITEGIC>MOL_PROPERTY
Coulomb
SciTegic.value.DoubleValue
46.744

@<SCITEGIC>MOL_PROPERTY
VdW
SciTegic.value.DoubleValue
0.307

@<SCITEGIC>MOL_PROPERTY
VdW6
SciTegic.value.DoubleValue
-7.672

@<SCITEGIC>MOL_PROPERTY
VdW12
SciTegic.value.DoubleValue
7.980

@<SCITEGIC>MOL_PROPERTY
Bond
SciTegic.value.DoubleValue
0.217

@<SCITEGIC>MOL_PROPERTY
Angle
SciTegic.value.DoubleValue
1.470

@<SCITEGIC>MOL_PROPERTY
Pdih
SciTegic.value.DoubleValue
4.098

@<SCITEGIC>MOL_PROPERTY
Idih
SciTegic.value.DoubleValue
0.000

@<SCITEGIC>MOL_PROPERTY
Tether
SciTegic.value.DoubleValue
0.000

@<TRIPOS>MOLECULE
guest-2_confgen4.mol2 : confsearch ligand conformer 273
          23          22           1
SMALL
USER_CHARGES
 
@<TRIPOS>ATOM
       1    N1      20.504814   21.107544   25.735385 N.4        1 MOL1        -0.5940
       2    H1      19.733066   21.771008   25.612489 H          1 MOL1         0.3649
       3    H2      21.276461   21.625336   26.169603 H          1 MOL1         0.3649
       4    H3      20.195065   20.407595   26.417302 H          1 MOL1         0.3649
       5    C1      20.920311   20.473811   24.423271 C.3        1 MOL1         0.0207
       6    H4      21.761618   19.804670   24.623144 H          1 MOL1         0.0950
       7    H5      21.265076   21.270165   23.758099 H          1 MOL1         0.0950
       8    C2      19.783504   19.688499   23.745384 C.3        1 MOL1        -0.1415
       9    H6      19.429543   18.900367   24.423366 H          1 MOL1         0.0976
      10    H7      18.934711   20.360680   23.561476 H          1 MOL1         0.0976
      11    C3      20.247151   19.059233   22.413002 C.3        1 MOL1        -0.1375
      12    H8      21.099748   18.391606   22.600499 H          1 MOL1         0.0976
      13    H9      20.605391   19.850369   21.739526 H          1 MOL1         0.0976
      14    C4      19.112773   18.267730   21.723285 C.3        1 MOL1        -0.1375
      15    H10     18.754561   17.476547   22.396507 H          1 MOL1         0.0976
      16    H11     18.260197   18.935148   21.535722 H          1 MOL1         0.0976
      17    C5      19.576782   17.638608   20.390745 C.3        1 MOL1        -0.1350
      18    H12     20.428202   16.968029   20.573446 H          1 MOL1         0.0976
      19    H13     19.933867   18.426499   19.712739 H          1 MOL1         0.0976
      20    C6      18.441462   16.849112   19.704996 C.3        1 MOL1        -0.2365
      21    H14     18.789823   16.410122   18.761079 H          1 MOL1         0.0987
      22    H15     17.588013   17.501399   19.478337 H          1 MOL1         0.0987
      23    H16     18.086191   16.031551   20.345781 H          1 MOL1         0.0987
@<TRIPOS>BOND
    1     1     2    1
    2     1     3    1
    3     1     4    1
    4     1     5    1
    5     5     6    1
    6     5     7    1
    7     5     8    1
    8     8     9    1
    9     8    10    1
   10     8    11    1
   11    11    12    1
   12    11    13    1
   13    11    14    1
   14    14    15    1
   15    14    16    1
   16    14    17    1
   17    17    18    1
   18    17    19    1
   19    17    20    1
   20    20    21    1
   21    20    22    1
   22    20    23    1
@<TRIPOS>SUBSTRUCTURE
       1 MOL1            1 RESIDUE      1      MOL     
@<SCITEGIC>MOL_PROPERTY
VConf Rank
SciTegic.value.IntegerValue
273

@<SCITEGIC>MOL_PROPERTY
Conf_Id
SciTegic.value.IntegerValue
40

@<SCITEGIC>MOL_PROPERTY
Delta U+W
SciTegic.value.DoubleValue
0.000

@<SCITEGIC>MOL_PROPERTY
U+W
SciTegic.value.DoubleValue
-8.382

@<SCITEGIC>MOL_PROPERTY
Grad RMS
SciTegic.value.DoubleValue
0.000000

@<SCITEGIC>MOL_PROPERTY
U
SciTegic.value.DoubleValue
46.604

@<SCITEGIC>MOL_PROPERTY
W
SciTegic.value.DoubleValue
-54.986

@<SCITEGIC>MOL_PROPERTY
W(PB)
SciTegic.value.DoubleValue
-57.162

@<SCITEGIC>MOL_PROPERTY
W(SA)
SciTegic.value.DoubleValue
2.176

@<SCITEGIC>MOL_PROPERTY
Valence
SciTegic.value.DoubleValue
1.727

@<SCITEGIC>MOL_PROPERTY
Coulomb
SciTegic.value.DoubleValue
44.434

@<SCITEGIC>MOL_PROPERTY
VdW
SciTegic.value.DoubleValue
0.443

@<SCITEGIC>MOL_PROPERTY
VdW6
SciTegic.value.DoubleValue
-4.623

@<SCITEGIC>MOL_PROPERTY
VdW12
SciTegic.value.DoubleValue
5.066

@<SCITEGIC>MOL_PROPERTY
Bond
SciTegic.value.DoubleValue
0.112

@<SCITEGIC>MOL_PROPERTY
Angle
SciTegic.value.DoubleValue
0.386

@<SCITEGIC>MOL_PROPERTY
Pdih
SciTegic.value.DoubleValue
1.228

@<SCITEGIC>MOL_PROPERTY
Idih
SciTegic.value.DoubleValue
0.000

@<SCITEGIC>MOL_PROPERTY
Tether
SciTegic.value.DoubleValue
0.000

@<TRIPOS>MOLECULE
guest-2_confgen4.mol2 : confsearch ligand conformer 274
          23          22           1
SMALL
USER_CHARGES
 
@<TRIPOS>ATOM
       1    N1      21.683818   16.558748   20.868693 N.4        1 MOL1        -0.5940
       2    H1      22.665409   16.599551   21.161361 H          1 MOL1         0.3649
       3    H2      21.627752   16.990459   19.940622 H          1 MOL1         0.3649
       4    H3      21.449148   15.567244   20.750891 H          1 MOL1         0.3649
       5    C1      20.767877   17.239570   21.865345 C.3        1 MOL1         0.0207
       6    H4      20.856446   16.713059   22.819469 H          1 MOL1         0.0950
       7    H5      19.741605   17.130179   21.505737 H          1 MOL1         0.0950
       8    C2      21.095693   18.731534   22.064619 C.3        1 MOL1        -0.1415
       9    H6      22.143220   18.828207   22.379721 H          1 MOL1         0.0976
      10    H7      21.005712   19.261124   21.106798 H          1 MOL1         0.0976
      11    C3      20.190654   19.409292   23.120635 C.3        1 MOL1        -0.1375
      12    H8      20.560149   20.429762   23.285181 H          1 MOL1         0.0976
      13    H9      20.290160   18.883262   24.080199 H          1 MOL1         0.0976
      14    C4      18.698960   19.457675   22.702205 C.3        1 MOL1        -0.1375
      15    H10     18.597821   20.001891   21.753089 H          1 MOL1         0.0976
      16    H11     18.336950   18.438370   22.513868 H          1 MOL1         0.0976
      17    C5      17.781058   20.104503   23.767848 C.3        1 MOL1        -0.1350
      18    H12     17.870212   19.557562   24.716904 H          1 MOL1         0.0976
      19    H13     16.736029   19.992852   23.446412 H          1 MOL1         0.0976
      20    C6      18.070231   21.604719   24.002630 C.3        1 MOL1        -0.2365
      21    H14     19.061844   21.760744   24.444915 H          1 MOL1         0.0987
      22    H15     17.331572   22.034673   24.691447 H          1 MOL1         0.0987
      23    H16     18.019675   22.168690   23.062209 H          1 MOL1         0.0987
@<TRIPOS>BOND
    1     1     2    1
    2     1     3    1
    3     1     4    1
    4     1     5    1
    5     5     6    1
    6     5     7    1
    7     5     8    1
    8     8     9    1
    9     8    10    1
   10     8    11    1
   11    11    12    1
   12    11    13    1
   13    11    14    1
   14    14    15    1
   15    14    16    1
   16    14    17    1
   17    17    18    1
   18    17    19    1
   19    17    20    1
   20    20    21    1
   21    20    22    1
   22    20    23    1
@<TRIPOS>SUBSTRUCTURE
       1 MOL1            1 RESIDUE      1      MOL     
@<SCITEGIC>MOL_PROPERTY
VConf Rank
SciTegic.value.IntegerValue
274

@<SCITEGIC>MOL_PROPERTY
Conf_Id
SciTegic.value.IntegerValue
65

@<SCITEGIC>MOL_PROPERTY
Delta U+W
SciTegic.value.DoubleValue
1.004

@<SCITEGIC>MOL_PROPERTY
U+W
SciTegic.value.DoubleValue
-7.378

@<SCITEGIC>MOL_PROPERTY
Grad RMS
SciTegic.value.DoubleValue
0.000000

@<SCITEGIC>MOL_PROPERTY
U
SciTegic.value.DoubleValue
48.047

@<SCITEGIC>MOL_PROPERTY
W
SciTegic.value.DoubleValue
-55.425

@<SCITEGIC>MOL_PROPERTY
W(PB)
SciTegic.value.DoubleValue
-57.542

@<SCITEGIC>MOL_PROPERTY
W(SA)
SciTegic.value.DoubleValue
2.116

@<SCITEGIC>MOL_PROPERTY
Valence
SciTegic.value.DoubleValue
2.583

@<SCITEGIC>MOL_PROPERTY
Coulomb
SciTegic.value.DoubleValue
44.791

@<SCITEGIC>MOL_PROPERTY
VdW
SciTegic.value.DoubleValue
0.673

@<SCITEGIC>MOL_PROPERTY
VdW6
SciTegic.value.DoubleValue
-5.788

@<SCITEGIC>MOL_PROPERTY
VdW12
SciTegic.value.DoubleValue
6.462

@<SCITEGIC>MOL_PROPERTY
Bond
SciTegic.value.DoubleValue
0.177

@<SCITEGIC>MOL_PROPERTY
Angle
SciTegic.value.DoubleValue
0.787

@<SCITEGIC>MOL_PROPERTY
Pdih
SciTegic.value.DoubleValue
1.619

@<SCITEGIC>MOL_PROPERTY
Idih
SciTegic.value.DoubleValue
0.000

@<SCITEGIC>MOL_PROPERTY
Tether
SciTegic.value.DoubleValue
0.000

@<TRIPOS>MOLECULE
guest-2_confgen4.mol2 : confsearch ligand conformer 275
          23          22           1
SMALL
USER_CHARGES
 
@<TRIPOS>ATOM
       1    N1      16.385267   17.971501   22.121206 N.4        1 MOL1        -0.5940
       2    H1      15.764394   18.785137   22.063312 H          1 MOL1         0.3649
       3    H2      15.883130   17.250797   22.650803 H          1 MOL1         0.3649
       4    H3      16.502480   17.613293   21.167905 H          1 MOL1         0.3649
       5    C1      17.713606   18.318380   22.762271 C.3        1 MOL1         0.0207
       6    H4      18.307366   17.402520   22.818566 H          1 MOL1         0.0950
       7    H5      17.516773   18.664356   23.780587 H          1 MOL1         0.0950
       8    C2      18.492462   19.399590   21.989288 C.3        1 MOL1        -0.1415
       9    H6      18.691489   19.052127   20.966721 H          1 MOL1         0.0976
      10    H7      17.865178   20.296493   21.899698 H          1 MOL1         0.0976
      11    C3      19.824029   19.786444   22.675500 C.3        1 MOL1        -0.1375
      12    H8      19.620787   20.142919   23.694808 H          1 MOL1         0.0976
      13    H9      20.257685   20.634422   22.129754 H          1 MOL1         0.0976
      14    C4      20.845177   18.621257   22.722104 C.3        1 MOL1        -0.1375
      15    H10     20.401602   17.764733   23.246616 H          1 MOL1         0.0976
      16    H11     21.063749   18.279059   21.701150 H          1 MOL1         0.0976
      17    C5      22.168046   18.989883   23.436703 C.3        1 MOL1        -0.1350
      18    H12     22.782286   18.083231   23.529243 H          1 MOL1         0.0976
      19    H13     21.956380   19.323048   24.462372 H          1 MOL1         0.0976
      20    C6      22.988244   20.071359   22.697058 C.3        1 MOL1        -0.2365
      21    H14     22.468388   21.037241   22.688331 H          1 MOL1         0.0987
      22    H15     23.184861   19.776370   21.658148 H          1 MOL1         0.0987
      23    H16     23.956512   20.223493   23.191283 H          1 MOL1         0.0987
@<TRIPOS>BOND
    1     1     2    1
    2     1     3    1
    3     1     4    1
    4     1     5    1
    5     5     6    1
    6     5     7    1
    7     5     8    1
    8     8     9    1
    9     8    10    1
   10     8    11    1
   11    11    12    1
   12    11    13    1
   13    11    14    1
   14    14    15    1
   15    14    16    1
   16    14    17    1
   17    17    18    1
   18    17    19    1
   19    17    20    1
   20    20    21    1
   21    20    22    1
   22    20    23    1
@<TRIPOS>SUBSTRUCTURE
       1 MOL1            1 RESIDUE      1      MOL     
@<SCITEGIC>MOL_PROPERTY
VConf Rank
SciTegic.value.IntegerValue
275

@<SCITEGIC>MOL_PROPERTY
Conf_Id
SciTegic.value.IntegerValue
92

@<SCITEGIC>MOL_PROPERTY
Delta U+W
SciTegic.value.DoubleValue
0.973

@<SCITEGIC>MOL_PROPERTY
U+W
SciTegic.value.DoubleValue
-7.409

@<SCITEGIC>MOL_PROPERTY
Grad RMS
SciTegic.value.DoubleValue
0.000000

@<SCITEGIC>MOL_PROPERTY
U
SciTegic.value.DoubleValue
48.047

@<SCITEGIC>MOL_PROPERTY
W
SciTegic.value.DoubleValue
-55.456

@<SCITEGIC>MOL_PROPERTY
W(PB)
SciTegic.value.DoubleValue
-57.595

@<SCITEGIC>MOL_PROPERTY
W(SA)
SciTegic.value.DoubleValue
2.138

@<SCITEGIC>MOL_PROPERTY
Valence
SciTegic.value.DoubleValue
2.583

@<SCITEGIC>MOL_PROPERTY
Coulomb
SciTegic.value.DoubleValue
44.791

@<SCITEGIC>MOL_PROPERTY
VdW
SciTegic.value.DoubleValue
0.674

@<SCITEGIC>MOL_PROPERTY
VdW6
SciTegic.value.DoubleValue
-5.789

@<SCITEGIC>MOL_PROPERTY
VdW12
SciTegic.value.DoubleValue
6.462

@<SCITEGIC>MOL_PROPERTY
Bond
SciTegic.value.DoubleValue
0.177

@<SCITEGIC>MOL_PROPERTY
Angle
SciTegic.value.DoubleValue
0.787

@<SCITEGIC>MOL_PROPERTY
Pdih
SciTegic.value.DoubleValue
1.619

@<SCITEGIC>MOL_PROPERTY
Idih
SciTegic.value.DoubleValue
0.000

@<SCITEGIC>MOL_PROPERTY
Tether
SciTegic.value.DoubleValue
0.000

@<TRIPOS>MOLECULE
guest-2_confgen4.mol2 : confsearch ligand conformer 276
          23          22           1
SMALL
USER_CHARGES
 
@<TRIPOS>ATOM
       1    N1      21.496433   21.925335   21.768473 N.4        1 MOL1        -0.5940
       2    H1      21.373998   22.786761   22.311600 H          1 MOL1         0.3649
       3    H2      21.490836   22.193912   20.779186 H          1 MOL1         0.3649
       4    H3      22.434983   21.571077   21.979341 H          1 MOL1         0.3649
       5    C1      20.422476   20.903871   22.083121 C.3        1 MOL1         0.0207
       6    H4      19.451644   21.356060   21.863052 H          1 MOL1         0.0950
       7    H5      20.467501   20.689294   23.153926 H          1 MOL1         0.0950
       8    C2      20.578991   19.597450   21.282107 C.3        1 MOL1        -0.1415
       9    H6      20.576807   19.832103   20.209316 H          1 MOL1         0.0976
      10    H7      21.554471   19.143763   21.502566 H          1 MOL1         0.0976
      11    C3      19.453190   18.577753   21.575061 C.3        1 MOL1        -0.1375
      12    H8      19.576043   17.715469   20.905116 H          1 MOL1         0.0976
      13    H9      18.480217   19.025598   21.329283 H          1 MOL1         0.0976
      14    C4      19.445730   18.084969   23.042225 C.3        1 MOL1        -0.1375
      15    H10     20.430513   17.667919   23.294592 H          1 MOL1         0.0976
      16    H11     19.274613   18.930639   23.721651 H          1 MOL1         0.0976
      17    C5      18.357773   17.014720   23.282407 C.3        1 MOL1        -0.1350
      18    H12     18.524123   16.159040   22.613004 H          1 MOL1         0.0976
      19    H13     17.370314   17.426529   23.030781 H          1 MOL1         0.0976
      20    C6      18.350317   16.524994   24.746195 C.3        1 MOL1        -0.2365
      21    H14     19.315092   16.076825   25.017453 H          1 MOL1         0.0987
      22    H15     17.572011   15.765676   24.896929 H          1 MOL1         0.0987
      23    H16     18.151320   17.353271   25.438711 H          1 MOL1         0.0987
@<TRIPOS>BOND
    1     1     2    1
    2     1     3    1
    3     1     4    1
    4     1     5    1
    5     5     6    1
    6     5     7    1
    7     5     8    1
    8     8     9    1
    9     8    10    1
   10     8    11    1
   11    11    12    1
   12    11    13    1
   13    11    14    1
   14    14    15    1
   15    14    16    1
   16    14    17    1
   17    17    18    1
   18    17    19    1
   19    17    20    1
   20    20    21    1
   21    20    22    1
   22    20    23    1
@<TRIPOS>SUBSTRUCTURE
       1 MOL1            1 RESIDUE      1      MOL     
@<SCITEGIC>MOL_PROPERTY
VConf Rank
SciTegic.value.IntegerValue
276

@<SCITEGIC>MOL_PROPERTY
Conf_Id
SciTegic.value.IntegerValue
42

@<SCITEGIC>MOL_PROPERTY
Delta U+W
SciTegic.value.DoubleValue
0.365

@<SCITEGIC>MOL_PROPERTY
U+W
SciTegic.value.DoubleValue
-8.017

@<SCITEGIC>MOL_PROPERTY
Grad RMS
SciTegic.value.DoubleValue
0.000000

@<SCITEGIC>MOL_PROPERTY
U
SciTegic.value.DoubleValue
47.375

@<SCITEGIC>MOL_PROPERTY
W
SciTegic.value.DoubleValue
-55.392

@<SCITEGIC>MOL_PROPERTY
W(PB)
SciTegic.value.DoubleValue
-57.543

@<SCITEGIC>MOL_PROPERTY
W(SA)
SciTegic.value.DoubleValue
2.152

@<SCITEGIC>MOL_PROPERTY
Valence
SciTegic.value.DoubleValue
2.032

@<SCITEGIC>MOL_PROPERTY
Coulomb
SciTegic.value.DoubleValue
44.843

@<SCITEGIC>MOL_PROPERTY
VdW
SciTegic.value.DoubleValue
0.499

@<SCITEGIC>MOL_PROPERTY
VdW6
SciTegic.value.DoubleValue
-5.218

@<SCITEGIC>MOL_PROPERTY
VdW12
SciTegic.value.DoubleValue
5.717

@<SCITEGIC>MOL_PROPERTY
Bond
SciTegic.value.DoubleValue
0.135

@<SCITEGIC>MOL_PROPERTY
Angle
SciTegic.value.DoubleValue
0.514

@<SCITEGIC>MOL_PROPERTY
Pdih
SciTegic.value.DoubleValue
1.383

@<SCITEGIC>MOL_PROPERTY
Idih
SciTegic.value.DoubleValue
0.000

@<SCITEGIC>MOL_PROPERTY
Tether
SciTegic.value.DoubleValue
0.000

@<TRIPOS>MOLECULE
guest-2_confgen4.mol2 : confsearch ligand conformer 277
          23          22           1
SMALL
USER_CHARGES
 
@<TRIPOS>ATOM
       1    N1      16.889232   18.094933   21.582075 N.4        1 MOL1        -0.5940
       2    H1      16.412848   18.873501   22.048468 H          1 MOL1         0.3649
       3    H2      16.169187   17.405517   21.340853 H          1 MOL1         0.3649
       4    H3      17.265760   18.454990   20.700039 H          1 MOL1         0.3649
       5    C1      17.973940   17.493621   22.454666 C.3        1 MOL1         0.0207
       6    H4      18.423662   16.658215   21.911280 H          1 MOL1         0.0950
       7    H5      17.492586   17.095933   23.352281 H          1 MOL1         0.0950
       8    C2      19.070309   18.495567   22.866139 C.3        1 MOL1        -0.1415
       9    H6      18.613071   19.346974   23.387378 H          1 MOL1         0.0976
      10    H7      19.728476   17.994752   23.586637 H          1 MOL1         0.0976
      11    C3      19.908292   18.993306   21.663289 C.3        1 MOL1        -0.1375
      12    H8      19.238271   19.401008   20.895055 H          1 MOL1         0.0976
      13    H9      20.421331   18.139573   21.199246 H          1 MOL1         0.0976
      14    C4      20.948247   20.087795   22.017753 C.3        1 MOL1        -0.1375
      15    H10     21.443098   20.387576   21.083548 H          1 MOL1         0.0976
      16    H11     20.437764   20.989421   22.383406 H          1 MOL1         0.0976
      17    C5      22.043540   19.646630   23.022814 C.3        1 MOL1        -0.1350
      18    H12     22.990484   20.129118   22.742680 H          1 MOL1         0.0976
      19    H13     22.221552   18.565087   22.944227 H          1 MOL1         0.0976
      20    C6      21.726285   20.035135   24.485918 C.3        1 MOL1        -0.2365
      21    H14     21.621507   21.123091   24.588055 H          1 MOL1         0.0987
      22    H15     22.537590   19.715345   25.152576 H          1 MOL1         0.0987
      23    H16     20.800223   19.572732   24.844681 H          1 MOL1         0.0987
@<TRIPOS>BOND
    1     1     2    1
    2     1     3    1
    3     1     4    1
    4     1     5    1
    5     5     6    1
    6     5     7    1
    7     5     8    1
    8     8     9    1
    9     8    10    1
   10     8    11    1
   11    11    12    1
   12    11    13    1
   13    11    14    1
   14    14    15    1
   15    14    16    1
   16    14    17    1
   17    17    18    1
   18    17    19    1
   19    17    20    1
   20    20    21    1
   21    20    22    1
   22    20    23    1
@<TRIPOS>SUBSTRUCTURE
       1 MOL1            1 RESIDUE      1      MOL     
@<SCITEGIC>MOL_PROPERTY
VConf Rank
SciTegic.value.IntegerValue
277

@<SCITEGIC>MOL_PROPERTY
Conf_Id
SciTegic.value.IntegerValue
3

@<SCITEGIC>MOL_PROPERTY
Delta U+W
SciTegic.value.DoubleValue
3.283

@<SCITEGIC>MOL_PROPERTY
U+W
SciTegic.value.DoubleValue
-5.099

@<SCITEGIC>MOL_PROPERTY
Grad RMS
SciTegic.value.DoubleValue
0.000000

@<SCITEGIC>MOL_PROPERTY
U
SciTegic.value.DoubleValue
50.701

@<SCITEGIC>MOL_PROPERTY
W
SciTegic.value.DoubleValue
-55.800

@<SCITEGIC>MOL_PROPERTY
W(PB)
SciTegic.value.DoubleValue
-57.867

@<SCITEGIC>MOL_PROPERTY
W(SA)
SciTegic.value.DoubleValue
2.067

@<SCITEGIC>MOL_PROPERTY
Valence
SciTegic.value.DoubleValue
4.880

@<SCITEGIC>MOL_PROPERTY
Coulomb
SciTegic.value.DoubleValue
45.095

@<SCITEGIC>MOL_PROPERTY
VdW
SciTegic.value.DoubleValue
0.726

@<SCITEGIC>MOL_PROPERTY
VdW6
SciTegic.value.DoubleValue
-6.620

@<SCITEGIC>MOL_PROPERTY
VdW12
SciTegic.value.DoubleValue
7.346

@<SCITEGIC>MOL_PROPERTY
Bond
SciTegic.value.DoubleValue
0.222

@<SCITEGIC>MOL_PROPERTY
Angle
SciTegic.value.DoubleValue
1.260

@<SCITEGIC>MOL_PROPERTY
Pdih
SciTegic.value.DoubleValue
3.398

@<SCITEGIC>MOL_PROPERTY
Idih
SciTegic.value.DoubleValue
0.000

@<SCITEGIC>MOL_PROPERTY
Tether
SciTegic.value.DoubleValue
0.000

@<TRIPOS>MOLECULE
guest-2_confgen4.mol2 : confsearch ligand conformer 278
          23          22           1
SMALL
USER_CHARGES
 
@<TRIPOS>ATOM
       1    N1      21.323296   16.657845   23.163205 N.4        1 MOL1        -0.5940
       2    H1      21.015975   15.839111   22.628619 H          1 MOL1         0.3649
       3    H2      22.129809   16.363489   23.724210 H          1 MOL1         0.3649
       4    H3      21.662535   17.350542   22.488900 H          1 MOL1         0.3649
       5    C1      20.209826   17.216644   24.027046 C.3        1 MOL1         0.0207
       6    H4      20.610030   18.063328   24.590476 H          1 MOL1         0.0950
       7    H5      19.922047   16.440749   24.741676 H          1 MOL1         0.0950
       8    C2      18.967842   17.660606   23.227265 C.3        1 MOL1        -0.1415
       9    H6      18.546701   16.789569   22.707901 H          1 MOL1         0.0976
      10    H7      18.196678   17.997814   23.932571 H          1 MOL1         0.0976
      11    C3      19.244287   18.785092   22.197335 C.3        1 MOL1        -0.1375
      12    H8      18.309171   18.991915   21.660997 H          1 MOL1         0.0976
      13    H9      19.958521   18.432662   21.441418 H          1 MOL1         0.0976
      14    C4      19.768998   20.091210   22.846304 C.3        1 MOL1        -0.1375
      15    H10     19.040331   20.457454   23.582563 H          1 MOL1         0.0976
      16    H11     20.691387   19.880542   23.403234 H          1 MOL1         0.0976
      17    C5      20.072595   21.210021   21.820370 C.3        1 MOL1        -0.1350
      18    H12     20.809448   20.852912   21.087399 H          1 MOL1         0.0976
      19    H13     20.546059   22.050658   22.346702 H          1 MOL1         0.0976
      20    C6      18.816544   21.729811   21.084506 C.3        1 MOL1        -0.2365
      21    H14     18.050519   22.062204   21.797057 H          1 MOL1         0.0987
      22    H15     18.376685   20.957886   20.441153 H          1 MOL1         0.0987
      23    H16     19.072674   22.584303   20.444837 H          1 MOL1         0.0987
@<TRIPOS>BOND
    1     1     2    1
    2     1     3    1
    3     1     4    1
    4     1     5    1
    5     5     6    1
    6     5     7    1
    7     5     8    1
    8     8     9    1
    9     8    10    1
   10     8    11    1
   11    11    12    1
   12    11    13    1
   13    11    14    1
   14    14    15    1
   15    14    16    1
   16    14    17    1
   17    17    18    1
   18    17    19    1
   19    17    20    1
   20    20    21    1
   21    20    22    1
   22    20    23    1
@<TRIPOS>SUBSTRUCTURE
       1 MOL1            1 RESIDUE      1      MOL     
@<SCITEGIC>MOL_PROPERTY
VConf Rank
SciTegic.value.IntegerValue
278

@<SCITEGIC>MOL_PROPERTY
Conf_Id
SciTegic.value.IntegerValue
83

@<SCITEGIC>MOL_PROPERTY
Delta U+W
SciTegic.value.DoubleValue
1.229

@<SCITEGIC>MOL_PROPERTY
U+W
SciTegic.value.DoubleValue
-7.154

@<SCITEGIC>MOL_PROPERTY
Grad RMS
SciTegic.value.DoubleValue
0.000000

@<SCITEGIC>MOL_PROPERTY
U
SciTegic.value.DoubleValue
48.727

@<SCITEGIC>MOL_PROPERTY
W
SciTegic.value.DoubleValue
-55.880

@<SCITEGIC>MOL_PROPERTY
W(PB)
SciTegic.value.DoubleValue
-57.960

@<SCITEGIC>MOL_PROPERTY
W(SA)
SciTegic.value.DoubleValue
2.080

@<SCITEGIC>MOL_PROPERTY
Valence
SciTegic.value.DoubleValue
2.671

@<SCITEGIC>MOL_PROPERTY
Coulomb
SciTegic.value.DoubleValue
45.371

@<SCITEGIC>MOL_PROPERTY
VdW
SciTegic.value.DoubleValue
0.684

@<SCITEGIC>MOL_PROPERTY
VdW6
SciTegic.value.DoubleValue
-6.511

@<SCITEGIC>MOL_PROPERTY
VdW12
SciTegic.value.DoubleValue
7.195

@<SCITEGIC>MOL_PROPERTY
Bond
SciTegic.value.DoubleValue
0.203

@<SCITEGIC>MOL_PROPERTY
Angle
SciTegic.value.DoubleValue
0.915

@<SCITEGIC>MOL_PROPERTY
Pdih
SciTegic.value.DoubleValue
1.554

@<SCITEGIC>MOL_PROPERTY
Idih
SciTegic.value.DoubleValue
0.000

@<SCITEGIC>MOL_PROPERTY
Tether
SciTegic.value.DoubleValue
0.000

@<TRIPOS>MOLECULE
guest-2_confgen4.mol2 : confsearch ligand conformer 279
          23          22           1
SMALL
USER_CHARGES
 
@<TRIPOS>ATOM
       1    N1      22.565732   19.039462   22.006040 N.4        1 MOL1        -0.5940
       2    H1      22.914371   19.946117   21.678964 H          1 MOL1         0.3649
       3    H2      21.887331   18.707655   21.313742 H          1 MOL1         0.3649
       4    H3      23.358581   18.389197   21.986520 H          1 MOL1         0.3649
       5    C1      21.951579   19.137848   23.388586 C.3        1 MOL1         0.0207
       6    H4      22.735485   19.462105   24.078423 H          1 MOL1         0.0950
       7    H5      21.629891   18.137412   23.688812 H          1 MOL1         0.0950
       8    C2      20.762078   20.116442   23.470553 C.3        1 MOL1        -0.1415
       9    H6      20.417410   20.165531   24.512020 H          1 MOL1         0.0976
      10    H7      21.111366   21.126062   23.216644 H          1 MOL1         0.0976
      11    C3      19.568595   19.743475   22.555051 C.3        1 MOL1        -0.1375
      12    H8      19.882963   19.765266   21.503174 H          1 MOL1         0.0976
      13    H9      18.802670   20.522570   22.661093 H          1 MOL1         0.0976
      14    C4      18.951602   18.361541   22.889725 C.3        1 MOL1        -0.1375
      15    H10     19.722948   17.584605   22.807564 H          1 MOL1         0.0976
      16    H11     18.612341   18.350836   23.934692 H          1 MOL1         0.0976
      17    C5      17.775895   17.970788   21.961571 C.3        1 MOL1        -0.1350
      18    H12     17.476632   16.938040   22.189026 H          1 MOL1         0.0976
      19    H13     18.112272   17.969313   20.915351 H          1 MOL1         0.0976
      20    C6      16.541268   18.888968   22.109848 C.3        1 MOL1        -0.2365
      21    H14     16.205305   18.933615   23.153947 H          1 MOL1         0.0987
      22    H15     15.706905   18.510714   21.505119 H          1 MOL1         0.0987
      23    H16     16.754717   19.910752   21.772744 H          1 MOL1         0.0987
@<TRIPOS>BOND
    1     1     2    1
    2     1     3    1
    3     1     4    1
    4     1     5    1
    5     5     6    1
    6     5     7    1
    7     5     8    1
    8     8     9    1
    9     8    10    1
   10     8    11    1
   11    11    12    1
   12    11    13    1
   13    11    14    1
   14    14    15    1
   15    14    16    1
   16    14    17    1
   17    17    18    1
   18    17    19    1
   19    17    20    1
   20    20    21    1
   21    20    22    1
   22    20    23    1
@<TRIPOS>SUBSTRUCTURE
       1 MOL1            1 RESIDUE      1      MOL     
@<SCITEGIC>MOL_PROPERTY
VConf Rank
SciTegic.value.IntegerValue
279

@<SCITEGIC>MOL_PROPERTY
Conf_Id
SciTegic.value.IntegerValue
50

@<SCITEGIC>MOL_PROPERTY
Delta U+W
SciTegic.value.DoubleValue
1.252

@<SCITEGIC>MOL_PROPERTY
U+W
SciTegic.value.DoubleValue
-7.130

@<SCITEGIC>MOL_PROPERTY
Grad RMS
SciTegic.value.DoubleValue
0.000000

@<SCITEGIC>MOL_PROPERTY
U
SciTegic.value.DoubleValue
48.727

@<SCITEGIC>MOL_PROPERTY
W
SciTegic.value.DoubleValue
-55.857

@<SCITEGIC>MOL_PROPERTY
W(PB)
SciTegic.value.DoubleValue
-57.937

@<SCITEGIC>MOL_PROPERTY
W(SA)
SciTegic.value.DoubleValue
2.080

@<SCITEGIC>MOL_PROPERTY
Valence
SciTegic.value.DoubleValue
2.671

@<SCITEGIC>MOL_PROPERTY
Coulomb
SciTegic.value.DoubleValue
45.371

@<SCITEGIC>MOL_PROPERTY
VdW
SciTegic.value.DoubleValue
0.684

@<SCITEGIC>MOL_PROPERTY
VdW6
SciTegic.value.DoubleValue
-6.511

@<SCITEGIC>MOL_PROPERTY
VdW12
SciTegic.value.DoubleValue
7.196

@<SCITEGIC>MOL_PROPERTY
Bond
SciTegic.value.DoubleValue
0.203

@<SCITEGIC>MOL_PROPERTY
Angle
SciTegic.value.DoubleValue
0.915

@<SCITEGIC>MOL_PROPERTY
Pdih
SciTegic.value.DoubleValue
1.554

@<SCITEGIC>MOL_PROPERTY
Idih
SciTegic.value.DoubleValue
0.000

@<SCITEGIC>MOL_PROPERTY
Tether
SciTegic.value.DoubleValue
0.000

@<TRIPOS>MOLECULE
guest-2_confgen4.mol2 : confsearch ligand conformer 280
          23          22           1
SMALL
USER_CHARGES
 
@<TRIPOS>ATOM
       1    N1      17.407231   17.042539   23.259734 N.4        1 MOL1        -0.5940
       2    H1      17.224993   17.814154   23.908528 H          1 MOL1         0.3649
       3    H2      17.113721   16.179821   23.730370 H          1 MOL1         0.3649
       4    H3      16.785630   17.169982   22.454752 H          1 MOL1         0.3649
       5    C1      18.864461   16.988974   22.843981 C.3        1 MOL1         0.0207
       6    H4      18.990531   16.122239   22.189419 H          1 MOL1         0.0950
       7    H5      19.467771   16.828295   23.741540 H          1 MOL1         0.0950
       8    C2      19.350183   18.255653   22.112984 C.3        1 MOL1        -0.1415
       9    H6      20.371868   18.076802   21.759662 H          1 MOL1         0.0976
      10    H7      18.738088   18.415557   21.215466 H          1 MOL1         0.0976
      11    C3      19.306304   19.517699   23.011867 C.3        1 MOL1        -0.1375
      12    H8      19.837392   19.333560   23.956003 H          1 MOL1         0.0976
      13    H9      18.260987   19.715807   23.283997 H          1 MOL1         0.0976
      14    C4      19.874375   20.785073   22.321096 C.3        1 MOL1        -0.1375
      15    H10     19.726016   20.726322   21.234021 H          1 MOL1         0.0976
      16    H11     19.283649   21.649966   22.653503 H          1 MOL1         0.0976
      17    C5      21.361033   21.086353   22.640917 C.3        1 MOL1        -0.1350
      18    H12     21.480498   21.244316   23.721912 H          1 MOL1         0.0976
      19    H13     21.634468   22.037483   22.163006 H          1 MOL1         0.0976
      20    C6      22.347495   19.995002   22.170942 C.3        1 MOL1        -0.2365
      21    H14     22.212982   19.771755   21.104685 H          1 MOL1         0.0987
      22    H15     22.217833   19.067600   22.742245 H          1 MOL1         0.0987
      23    H16     23.383728   20.326694   22.316165 H          1 MOL1         0.0987
@<TRIPOS>BOND
    1     1     2    1
    2     1     3    1
    3     1     4    1
    4     1     5    1
    5     5     6    1
    6     5     7    1
    7     5     8    1
    8     8     9    1
    9     8    10    1
   10     8    11    1
   11    11    12    1
   12    11    13    1
   13    11    14    1
   14    14    15    1
   15    14    16    1
   16    14    17    1
   17    17    18    1
   18    17    19    1
   19    17    20    1
   20    20    21    1
   21    20    22    1
   22    20    23    1
@<TRIPOS>SUBSTRUCTURE
       1 MOL1            1 RESIDUE      1      MOL     
@<SCITEGIC>MOL_PROPERTY
VConf Rank
SciTegic.value.IntegerValue
280

@<SCITEGIC>MOL_PROPERTY
Conf_Id
SciTegic.value.IntegerValue
55

@<SCITEGIC>MOL_PROPERTY
Delta U+W
SciTegic.value.DoubleValue
3.232

@<SCITEGIC>MOL_PROPERTY
U+W
SciTegic.value.DoubleValue
-5.150

@<SCITEGIC>MOL_PROPERTY
Grad RMS
SciTegic.value.DoubleValue
0.000000

@<SCITEGIC>MOL_PROPERTY
U
SciTegic.value.DoubleValue
50.625

@<SCITEGIC>MOL_PROPERTY
W
SciTegic.value.DoubleValue
-55.776

@<SCITEGIC>MOL_PROPERTY
W(PB)
SciTegic.value.DoubleValue
-57.839

@<SCITEGIC>MOL_PROPERTY
W(SA)
SciTegic.value.DoubleValue
2.064

@<SCITEGIC>MOL_PROPERTY
Valence
SciTegic.value.DoubleValue
4.837

@<SCITEGIC>MOL_PROPERTY
Coulomb
SciTegic.value.DoubleValue
45.097

@<SCITEGIC>MOL_PROPERTY
VdW
SciTegic.value.DoubleValue
0.692

@<SCITEGIC>MOL_PROPERTY
VdW6
SciTegic.value.DoubleValue
-6.655

@<SCITEGIC>MOL_PROPERTY
VdW12
SciTegic.value.DoubleValue
7.347

@<SCITEGIC>MOL_PROPERTY
Bond
SciTegic.value.DoubleValue
0.223

@<SCITEGIC>MOL_PROPERTY
Angle
SciTegic.value.DoubleValue
1.167

@<SCITEGIC>MOL_PROPERTY
Pdih
SciTegic.value.DoubleValue
3.447

@<SCITEGIC>MOL_PROPERTY
Idih
SciTegic.value.DoubleValue
0.000

@<SCITEGIC>MOL_PROPERTY
Tether
SciTegic.value.DoubleValue
0.000

@<TRIPOS>MOLECULE
guest-2_confgen4.mol2 : confsearch ligand conformer 281
          23          22           1
SMALL
USER_CHARGES
 
@<TRIPOS>ATOM
       1    N1      22.584546   20.489305   22.172634 N.4        1 MOL1        -0.5940
       2    H1      23.484014   20.016770   22.308638 H          1 MOL1         0.3649
       3    H2      22.710412   21.461403   22.474598 H          1 MOL1         0.3649
       4    H3      22.405352   20.511371   21.163595 H          1 MOL1         0.3649
       5    C1      21.466011   19.804242   22.931063 C.3        1 MOL1         0.0207
       6    H4      20.552687   20.379713   22.769780 H          1 MOL1         0.0950
       7    H5      21.709409   19.843087   23.996262 H          1 MOL1         0.0950
       8    C2      21.257796   18.338179   22.503171 C.3        1 MOL1        -0.1415
       9    H6      21.058116   18.279349   21.424965 H          1 MOL1         0.0976
      10    H7      22.197940   17.796990   22.674235 H          1 MOL1         0.0976
      11    C3      20.129750   17.628169   23.293654 C.3        1 MOL1        -0.1375
      12    H8      20.138484   17.959312   24.341447 H          1 MOL1         0.0976
      13    H9      20.355997   16.553180   23.320295 H          1 MOL1         0.0976
      14    C4      18.708409   17.791380   22.694801 C.3        1 MOL1        -0.1375
      15    H10     18.685623   17.361379   21.683924 H          1 MOL1         0.0976
      16    H11     18.013127   17.190033   23.296803 H          1 MOL1         0.0976
      17    C5      18.194426   19.248673   22.643625 C.3        1 MOL1        -0.1350
      18    H12     18.785183   19.828395   21.922623 H          1 MOL1         0.0976
      19    H13     18.320222   19.724324   23.626279 H          1 MOL1         0.0976
      20    C6      16.708794   19.314052   22.229738 C.3        1 MOL1        -0.2365
      21    H14     16.074267   18.778130   22.947635 H          1 MOL1         0.0987
      22    H15     16.555465   18.868090   21.238346 H          1 MOL1         0.0987
      23    H16     16.363606   20.355263   22.187838 H          1 MOL1         0.0987
@<TRIPOS>BOND
    1     1     2    1
    2     1     3    1
    3     1     4    1
    4     1     5    1
    5     5     6    1
    6     5     7    1
    7     5     8    1
    8     8     9    1
    9     8    10    1
   10     8    11    1
   11    11    12    1
   12    11    13    1
   13    11    14    1
   14    14    15    1
   15    14    16    1
   16    14    17    1
   17    17    18    1
   18    17    19    1
   19    17    20    1
   20    20    21    1
   21    20    22    1
   22    20    23    1
@<TRIPOS>SUBSTRUCTURE
       1 MOL1            1 RESIDUE      1      MOL     
@<SCITEGIC>MOL_PROPERTY
VConf Rank
SciTegic.value.IntegerValue
281

@<SCITEGIC>MOL_PROPERTY
Conf_Id
SciTegic.value.IntegerValue
93

@<SCITEGIC>MOL_PROPERTY
Delta U+W
SciTegic.value.DoubleValue
2.589

@<SCITEGIC>MOL_PROPERTY
U+W
SciTegic.value.DoubleValue
-5.793

@<SCITEGIC>MOL_PROPERTY
Grad RMS
SciTegic.value.DoubleValue
0.000000

@<SCITEGIC>MOL_PROPERTY
U
SciTegic.value.DoubleValue
50.122

@<SCITEGIC>MOL_PROPERTY
W
SciTegic.value.DoubleValue
-55.915

@<SCITEGIC>MOL_PROPERTY
W(PB)
SciTegic.value.DoubleValue
-58.031

@<SCITEGIC>MOL_PROPERTY
W(SA)
SciTegic.value.DoubleValue
2.115

@<SCITEGIC>MOL_PROPERTY
Valence
SciTegic.value.DoubleValue
4.132

@<SCITEGIC>MOL_PROPERTY
Coulomb
SciTegic.value.DoubleValue
45.536

@<SCITEGIC>MOL_PROPERTY
VdW
SciTegic.value.DoubleValue
0.454

@<SCITEGIC>MOL_PROPERTY
VdW6
SciTegic.value.DoubleValue
-6.262

@<SCITEGIC>MOL_PROPERTY
VdW12
SciTegic.value.DoubleValue
6.715

@<SCITEGIC>MOL_PROPERTY
Bond
SciTegic.value.DoubleValue
0.182

@<SCITEGIC>MOL_PROPERTY
Angle
SciTegic.value.DoubleValue
1.157

@<SCITEGIC>MOL_PROPERTY
Pdih
SciTegic.value.DoubleValue
2.794

@<SCITEGIC>MOL_PROPERTY
Idih
SciTegic.value.DoubleValue
0.000

@<SCITEGIC>MOL_PROPERTY
Tether
SciTegic.value.DoubleValue
0.000

@<TRIPOS>MOLECULE
guest-2_confgen4.mol2 : confsearch ligand conformer 282
          23          22           1
SMALL
USER_CHARGES
 
@<TRIPOS>ATOM
       1    N1      20.185132   21.830760   21.413520 N.4        1 MOL1        -0.5940
       2    H1      20.374515   21.412378   20.497088 H          1 MOL1         0.3649
       3    H2      21.017248   22.371758   21.672176 H          1 MOL1         0.3649
       4    H3      19.421393   22.502528   21.286010 H          1 MOL1         0.3649
       5    C1      19.848206   20.783175   22.455006 C.3        1 MOL1         0.0207
       6    H4      19.687831   21.295691   23.407375 H          1 MOL1         0.0950
       7    H5      20.715414   20.129184   22.562648 H          1 MOL1         0.0950
       8    C2      18.596523   19.958173   22.096609 C.3        1 MOL1        -0.1415
       9    H6      17.751090   20.651058   21.990905 H          1 MOL1         0.0976
      10    H7      18.724646   19.474216   21.119249 H          1 MOL1         0.0976
      11    C3      18.236160   18.901569   23.171407 C.3        1 MOL1        -0.1375
      12    H8      17.152365   18.725648   23.127360 H          1 MOL1         0.0976
      13    H9      18.430885   19.304184   24.175193 H          1 MOL1         0.0976
      14    C4      18.939086   17.529496   23.001750 C.3        1 MOL1        -0.1375
      15    H10     18.551983   16.849783   23.773488 H          1 MOL1         0.0976
      16    H11     18.652926   17.088540   22.036886 H          1 MOL1         0.0976
      17    C5      20.480929   17.578403   23.105817 C.3        1 MOL1        -0.1350
      18    H12     20.777414   18.120584   24.014560 H          1 MOL1         0.0976
      19    H13     20.896302   18.125365   22.249537 H          1 MOL1         0.0976
      20    C6      21.094898   16.162397   23.131358 C.3        1 MOL1        -0.2365
      21    H14     22.189533   16.215673   23.194313 H          1 MOL1         0.0987
      22    H15     20.836469   15.603889   22.222220 H          1 MOL1         0.0987
      23    H16     20.735750   15.591149   23.997327 H          1 MOL1         0.0987
@<TRIPOS>BOND
    1     1     2    1
    2     1     3    1
    3     1     4    1
    4     1     5    1
    5     5     6    1
    6     5     7    1
    7     5     8    1
    8     8     9    1
    9     8    10    1
   10     8    11    1
   11    11    12    1
   12    11    13    1
   13    11    14    1
   14    14    15    1
   15    14    16    1
   16    14    17    1
   17    17    18    1
   18    17    19    1
   19    17    20    1
   20    20    21    1
   21    20    22    1
   22    20    23    1
@<TRIPOS>SUBSTRUCTURE
       1 MOL1            1 RESIDUE      1      MOL     
@<SCITEGIC>MOL_PROPERTY
VConf Rank
SciTegic.value.IntegerValue
282

@<SCITEGIC>MOL_PROPERTY
Conf_Id
SciTegic.value.IntegerValue
70

@<SCITEGIC>MOL_PROPERTY
Delta U+W
SciTegic.value.DoubleValue
2.599

@<SCITEGIC>MOL_PROPERTY
U+W
SciTegic.value.DoubleValue
-5.783

@<SCITEGIC>MOL_PROPERTY
Grad RMS
SciTegic.value.DoubleValue
0.000000

@<SCITEGIC>MOL_PROPERTY
U
SciTegic.value.DoubleValue
50.122

@<SCITEGIC>MOL_PROPERTY
W
SciTegic.value.DoubleValue
-55.906

@<SCITEGIC>MOL_PROPERTY
W(PB)
SciTegic.value.DoubleValue
-58.010

@<SCITEGIC>MOL_PROPERTY
W(SA)
SciTegic.value.DoubleValue
2.105

@<SCITEGIC>MOL_PROPERTY
Valence
SciTegic.value.DoubleValue
4.132

@<SCITEGIC>MOL_PROPERTY
Coulomb
SciTegic.value.DoubleValue
45.536

@<SCITEGIC>MOL_PROPERTY
VdW
SciTegic.value.DoubleValue
0.454

@<SCITEGIC>MOL_PROPERTY
VdW6
SciTegic.value.DoubleValue
-6.262

@<SCITEGIC>MOL_PROPERTY
VdW12
SciTegic.value.DoubleValue
6.715

@<SCITEGIC>MOL_PROPERTY
Bond
SciTegic.value.DoubleValue
0.182

@<SCITEGIC>MOL_PROPERTY
Angle
SciTegic.value.DoubleValue
1.157

@<SCITEGIC>MOL_PROPERTY
Pdih
SciTegic.value.DoubleValue
2.794

@<SCITEGIC>MOL_PROPERTY
Idih
SciTegic.value.DoubleValue
0.000

@<SCITEGIC>MOL_PROPERTY
Tether
SciTegic.value.DoubleValue
0.000

@<TRIPOS>MOLECULE
guest-2_confgen4.mol2 : confsearch ligand conformer 283
          23          22           1
SMALL
USER_CHARGES
 
@<TRIPOS>ATOM
       1    N1      17.517681   20.427478   21.729128 N.4        1 MOL1        -0.5940
       2    H1      16.719435   20.011443   21.239000 H          1 MOL1         0.3649
       3    H2      17.416603   21.445387   21.655598 H          1 MOL1         0.3649
       4    H3      17.423753   20.186104   22.720280 H          1 MOL1         0.3649
       5    C1      18.838894   19.949479   21.159788 C.3        1 MOL1         0.0207
       6    H4      19.644113   20.453274   21.700860 H          1 MOL1         0.0950
       7    H5      18.884066   20.264021   20.113596 H          1 MOL1         0.0950
       8    C2      19.031659   18.421906   21.244317 C.3        1 MOL1        -0.1415
       9    H6      18.237708   17.927568   20.669002 H          1 MOL1         0.0976
      10    H7      19.972099   18.155436   20.745334 H          1 MOL1         0.0976
      11    C3      19.033111   17.865949   22.692735 C.3        1 MOL1        -0.1375
      12    H8      19.215683   16.783119   22.655988 H          1 MOL1         0.0976
      13    H9      18.030837   17.982822   23.126349 H          1 MOL1         0.0976
      14    C4      20.068753   18.521446   23.642771 C.3        1 MOL1        -0.1375
      15    H10     19.844226   19.589268   23.766203 H          1 MOL1         0.0976
      16    H11     19.957392   18.071995   24.639230 H          1 MOL1         0.0976
      17    C5      21.532970   18.348087   23.174893 C.3        1 MOL1        -0.1350
      18    H12     21.685010   18.852323   22.211271 H          1 MOL1         0.0976
      19    H13     21.747429   17.282268   23.014423 H          1 MOL1         0.0976
      20    C6      22.530821   18.921977   24.203156 C.3        1 MOL1        -0.2365
      21    H14     23.563723   18.793076   23.854569 H          1 MOL1         0.0987
      22    H15     22.436572   18.413572   25.171575 H          1 MOL1         0.0987
      23    H16     22.360276   19.994756   24.362101 H          1 MOL1         0.0987
@<TRIPOS>BOND
    1     1     2    1
    2     1     3    1
    3     1     4    1
    4     1     5    1
    5     5     6    1
    6     5     7    1
    7     5     8    1
    8     8     9    1
    9     8    10    1
   10     8    11    1
   11    11    12    1
   12    11    13    1
   13    11    14    1
   14    14    15    1
   15    14    16    1
   16    14    17    1
   17    17    18    1
   18    17    19    1
   19    17    20    1
   20    20    21    1
   21    20    22    1
   22    20    23    1
@<TRIPOS>SUBSTRUCTURE
       1 MOL1            1 RESIDUE      1      MOL     
@<SCITEGIC>MOL_PROPERTY
VConf Rank
SciTegic.value.IntegerValue
283

@<SCITEGIC>MOL_PROPERTY
Conf_Id
SciTegic.value.IntegerValue
72

@<SCITEGIC>MOL_PROPERTY
Delta U+W
SciTegic.value.DoubleValue
1.051

@<SCITEGIC>MOL_PROPERTY
U+W
SciTegic.value.DoubleValue
-7.331

@<SCITEGIC>MOL_PROPERTY
Grad RMS
SciTegic.value.DoubleValue
0.000000

@<SCITEGIC>MOL_PROPERTY
U
SciTegic.value.DoubleValue
48.590

@<SCITEGIC>MOL_PROPERTY
W
SciTegic.value.DoubleValue
-55.922

@<SCITEGIC>MOL_PROPERTY
W(PB)
SciTegic.value.DoubleValue
-58.012

@<SCITEGIC>MOL_PROPERTY
W(SA)
SciTegic.value.DoubleValue
2.090

@<SCITEGIC>MOL_PROPERTY
Valence
SciTegic.value.DoubleValue
2.601

@<SCITEGIC>MOL_PROPERTY
Coulomb
SciTegic.value.DoubleValue
45.520

@<SCITEGIC>MOL_PROPERTY
VdW
SciTegic.value.DoubleValue
0.469

@<SCITEGIC>MOL_PROPERTY
VdW6
SciTegic.value.DoubleValue
-6.867

@<SCITEGIC>MOL_PROPERTY
VdW12
SciTegic.value.DoubleValue
7.336

@<SCITEGIC>MOL_PROPERTY
Bond
SciTegic.value.DoubleValue
0.205

@<SCITEGIC>MOL_PROPERTY
Angle
SciTegic.value.DoubleValue
0.962

@<SCITEGIC>MOL_PROPERTY
Pdih
SciTegic.value.DoubleValue
1.434

@<SCITEGIC>MOL_PROPERTY
Idih
SciTegic.value.DoubleValue
0.000

@<SCITEGIC>MOL_PROPERTY
Tether
SciTegic.value.DoubleValue
0.000

@<TRIPOS>MOLECULE
guest-2_confgen4.mol2 : confsearch ligand conformer 284
          23          22           1
SMALL
USER_CHARGES
 
@<TRIPOS>ATOM
       1    N1      20.662284   20.613618   20.108554 N.4        1 MOL1        -0.5940
       2    H1      20.297328   20.611982   19.150034 H          1 MOL1         0.3649
       3    H2      21.671494   20.780668   20.042418 H          1 MOL1         0.3649
       4    H3      20.252641   21.425130   20.582159 H          1 MOL1         0.3649
       5    C1      20.350156   19.319357   20.831813 C.3        1 MOL1         0.0207
       6    H4      20.790078   18.497922   20.259917 H          1 MOL1         0.0950
       7    H5      19.264541   19.191569   20.838380 H          1 MOL1         0.0950
       8    C2      20.885218   19.289966   22.275649 C.3        1 MOL1        -0.1415
       9    H6      21.970465   19.456472   22.260062 H          1 MOL1         0.0976
      10    H7      20.454253   20.121863   22.847180 H          1 MOL1         0.0976
      11    C3      20.595618   17.948174   22.993136 C.3        1 MOL1        -0.1375
      12    H8      21.020136   17.983363   24.005310 H          1 MOL1         0.0976
      13    H9      21.135702   17.144508   22.473769 H          1 MOL1         0.0976
      14    C4      19.093578   17.563235   23.073501 C.3        1 MOL1        -0.1375
      15    H10     18.712707   17.366560   22.062285 H          1 MOL1         0.0976
      16    H11     19.004490   16.609921   23.612412 H          1 MOL1         0.0976
      17    C5      18.179952   18.611435   23.758179 C.3        1 MOL1        -0.1350
      18    H12     17.146722   18.237342   23.744657 H          1 MOL1         0.0976
      19    H13     18.169519   19.543439   23.177337 H          1 MOL1         0.0976
      20    C6      18.580796   18.912085   25.220180 C.3        1 MOL1        -0.2365
      21    H14     18.610320   17.992019   25.818133 H          1 MOL1         0.0987
      22    H15     17.855787   19.592118   25.685756 H          1 MOL1         0.0987
      23    H16     19.566378   19.390597   25.276853 H          1 MOL1         0.0987
@<TRIPOS>BOND
    1     1     2    1
    2     1     3    1
    3     1     4    1
    4     1     5    1
    5     5     6    1
    6     5     7    1
    7     5     8    1
    8     8     9    1
    9     8    10    1
   10     8    11    1
   11    11    12    1
   12    11    13    1
   13    11    14    1
   14    14    15    1
   15    14    16    1
   16    14    17    1
   17    17    18    1
   18    17    19    1
   19    17    20    1
   20    20    21    1
   21    20    22    1
   22    20    23    1
@<TRIPOS>SUBSTRUCTURE
       1 MOL1            1 RESIDUE      1      MOL     
@<SCITEGIC>MOL_PROPERTY
VConf Rank
SciTegic.value.IntegerValue
284

@<SCITEGIC>MOL_PROPERTY
Conf_Id
SciTegic.value.IntegerValue
26

@<SCITEGIC>MOL_PROPERTY
Delta U+W
SciTegic.value.DoubleValue
1.076

@<SCITEGIC>MOL_PROPERTY
U+W
SciTegic.value.DoubleValue
-7.306

@<SCITEGIC>MOL_PROPERTY
Grad RMS
SciTegic.value.DoubleValue
0.000000

@<SCITEGIC>MOL_PROPERTY
U
SciTegic.value.DoubleValue
48.641

@<SCITEGIC>MOL_PROPERTY
W
SciTegic.value.DoubleValue
-55.947

@<SCITEGIC>MOL_PROPERTY
W(PB)
SciTegic.value.DoubleValue
-58.031

@<SCITEGIC>MOL_PROPERTY
W(SA)
SciTegic.value.DoubleValue
2.084

@<SCITEGIC>MOL_PROPERTY
Valence
SciTegic.value.DoubleValue
2.922

@<SCITEGIC>MOL_PROPERTY
Coulomb
SciTegic.value.DoubleValue
45.269

@<SCITEGIC>MOL_PROPERTY
VdW
SciTegic.value.DoubleValue
0.449

@<SCITEGIC>MOL_PROPERTY
VdW6
SciTegic.value.DoubleValue
-7.045

@<SCITEGIC>MOL_PROPERTY
VdW12
SciTegic.value.DoubleValue
7.494

@<SCITEGIC>MOL_PROPERTY
Bond
SciTegic.value.DoubleValue
0.220

@<SCITEGIC>MOL_PROPERTY
Angle
SciTegic.value.DoubleValue
1.205

@<SCITEGIC>MOL_PROPERTY
Pdih
SciTegic.value.DoubleValue
1.497

@<SCITEGIC>MOL_PROPERTY
Idih
SciTegic.value.DoubleValue
0.000

@<SCITEGIC>MOL_PROPERTY
Tether
SciTegic.value.DoubleValue
0.000

@<TRIPOS>MOLECULE
guest-2_confgen4.mol2 : confsearch ligand conformer 285
          23          22           1
SMALL
USER_CHARGES
 
@<TRIPOS>ATOM
       1    N1      20.110254   15.928481   22.027371 N.4        1 MOL1        -0.5940
       2    H1      19.257522   15.376024   22.163101 H          1 MOL1         0.3649
       3    H2      20.902588   15.298802   22.193713 H          1 MOL1         0.3649
       4    H3      20.143197   16.194181   21.037936 H          1 MOL1         0.3649
       5    C1      20.151139   17.137590   22.939521 C.3        1 MOL1         0.0207
       6    H4      21.095332   17.659511   22.763363 H          1 MOL1         0.0950
       7    H5      20.142118   16.781682   23.973250 H          1 MOL1         0.0950
       8    C2      18.973593   18.104286   22.714349 C.3        1 MOL1        -0.1415
       9    H6      18.973976   18.452091   21.673453 H          1 MOL1         0.0976
      10    H7      18.030234   17.560786   22.857215 H          1 MOL1         0.0976
      11    C3      19.002933   19.316591   23.677945 C.3        1 MOL1        -0.1375
      12    H8      18.879656   18.954077   24.707847 H          1 MOL1         0.0976
      13    H9      18.129213   19.952290   23.481853 H          1 MOL1         0.0976
      14    C4      20.295205   20.174331   23.606714 C.3        1 MOL1        -0.1375
      15    H10     20.201137   21.009191   24.314758 H          1 MOL1         0.0976
      16    H11     21.147476   19.580394   23.963330 H          1 MOL1         0.0976
      17    C5      20.632398   20.743550   22.205103 C.3        1 MOL1        -0.1350
      18    H12     20.835272   19.925108   21.501459 H          1 MOL1         0.0976
      19    H13     21.566850   21.317553   22.275894 H          1 MOL1         0.0976
      20    C6      19.527426   21.660882   21.634089 C.3        1 MOL1        -0.2365
      21    H14     18.601766   21.104219   21.442154 H          1 MOL1         0.0987
      22    H15     19.849398   22.104980   20.683325 H          1 MOL1         0.0987
      23    H16     19.298295   22.480665   22.327194 H          1 MOL1         0.0987
@<TRIPOS>BOND
    1     1     2    1
    2     1     3    1
    3     1     4    1
    4     1     5    1
    5     5     6    1
    6     5     7    1
    7     5     8    1
    8     8     9    1
    9     8    10    1
   10     8    11    1
   11    11    12    1
   12    11    13    1
   13    11    14    1
   14    14    15    1
   15    14    16    1
   16    14    17    1
   17    17    18    1
   18    17    19    1
   19    17    20    1
   20    20    21    1
   21    20    22    1
   22    20    23    1
@<TRIPOS>SUBSTRUCTURE
       1 MOL1            1 RESIDUE      1      MOL     
@<SCITEGIC>MOL_PROPERTY
VConf Rank
SciTegic.value.IntegerValue
285

@<SCITEGIC>MOL_PROPERTY
Conf_Id
SciTegic.value.IntegerValue
90

@<SCITEGIC>MOL_PROPERTY
Delta U+W
SciTegic.value.DoubleValue
1.131

@<SCITEGIC>MOL_PROPERTY
U+W
SciTegic.value.DoubleValue
-7.251

@<SCITEGIC>MOL_PROPERTY
Grad RMS
SciTegic.value.DoubleValue
0.000000

@<SCITEGIC>MOL_PROPERTY
U
SciTegic.value.DoubleValue
48.641

@<SCITEGIC>MOL_PROPERTY
W
SciTegic.value.DoubleValue
-55.892

@<SCITEGIC>MOL_PROPERTY
W(PB)
SciTegic.value.DoubleValue
-57.962

@<SCITEGIC>MOL_PROPERTY
W(SA)
SciTegic.value.DoubleValue
2.070

@<SCITEGIC>MOL_PROPERTY
Valence
SciTegic.value.DoubleValue
2.922

@<SCITEGIC>MOL_PROPERTY
Coulomb
SciTegic.value.DoubleValue
45.269

@<SCITEGIC>MOL_PROPERTY
VdW
SciTegic.value.DoubleValue
0.450

@<SCITEGIC>MOL_PROPERTY
VdW6
SciTegic.value.DoubleValue
-7.045

@<SCITEGIC>MOL_PROPERTY
VdW12
SciTegic.value.DoubleValue
7.495

@<SCITEGIC>MOL_PROPERTY
Bond
SciTegic.value.DoubleValue
0.220

@<SCITEGIC>MOL_PROPERTY
Angle
SciTegic.value.DoubleValue
1.205

@<SCITEGIC>MOL_PROPERTY
Pdih
SciTegic.value.DoubleValue
1.497

@<SCITEGIC>MOL_PROPERTY
Idih
SciTegic.value.DoubleValue
0.000

@<SCITEGIC>MOL_PROPERTY
Tether
SciTegic.value.DoubleValue
0.000

@<TRIPOS>MOLECULE
guest-2_confgen4.mol2 : confsearch ligand conformer 286
          23          22           1
SMALL
USER_CHARGES
 
@<TRIPOS>ATOM
       1    N1      22.100173   17.857451   23.333980 N.4        1 MOL1        -0.5940
       2    H1      22.394535   17.013303   23.836590 H          1 MOL1         0.3649
       3    H2      21.432646   18.349122   23.935886 H          1 MOL1         0.3649
       4    H3      22.927256   18.456270   23.244973 H          1 MOL1         0.3649
       5    C1      21.496498   17.527040   21.983128 C.3        1 MOL1         0.0207
       6    H4      20.642553   16.864598   22.146423 H          1 MOL1         0.0950
       7    H5      22.246857   16.977157   21.408577 H          1 MOL1         0.0950
       8    C2      21.048601   18.768029   21.184239 C.3        1 MOL1        -0.1415
       9    H6      21.922509   19.402477   20.985369 H          1 MOL1         0.0976
      10    H7      20.678984   18.440721   20.203374 H          1 MOL1         0.0976
      11    C3      19.954175   19.608961   21.888261 C.3        1 MOL1        -0.1375
      12    H8      19.714216   20.472937   21.253379 H          1 MOL1         0.0976
      13    H9      20.353365   20.018964   22.824556 H          1 MOL1         0.0976
      14    C4      18.657574   18.806932   22.165838 C.3        1 MOL1        -0.1375
      15    H10     18.321666   18.334714   21.232326 H          1 MOL1         0.0976
      16    H11     18.860942   17.989572   22.870461 H          1 MOL1         0.0976
      17    C5      17.503957   19.677956   22.718901 C.3        1 MOL1        -0.1350
      18    H12     16.597078   19.060818   22.786337 H          1 MOL1         0.0976
      19    H13     17.273943   20.485132   22.009437 H          1 MOL1         0.0976
      20    C6      17.802318   20.278746   24.111441 C.3        1 MOL1        -0.2365
      21    H14     18.061277   19.493412   24.833333 H          1 MOL1         0.0987
      22    H15     16.922749   20.810898   24.496291 H          1 MOL1         0.0987
      23    H16     18.630374   20.997193   24.071845 H          1 MOL1         0.0987
@<TRIPOS>BOND
    1     1     2    1
    2     1     3    1
    3     1     4    1
    4     1     5    1
    5     5     6    1
    6     5     7    1
    7     5     8    1
    8     8     9    1
    9     8    10    1
   10     8    11    1
   11    11    12    1
   12    11    13    1
   13    11    14    1
   14    14    15    1
   15    14    16    1
   16    14    17    1
   17    17    18    1
   18    17    19    1
   19    17    20    1
   20    20    21    1
   21    20    22    1
   22    20    23    1
@<TRIPOS>SUBSTRUCTURE
       1 MOL1            1 RESIDUE      1      MOL     
@<SCITEGIC>MOL_PROPERTY
VConf Rank
SciTegic.value.IntegerValue
286

@<SCITEGIC>MOL_PROPERTY
Conf_Id
SciTegic.value.IntegerValue
85

@<SCITEGIC>MOL_PROPERTY
Delta U+W
SciTegic.value.DoubleValue
1.193

@<SCITEGIC>MOL_PROPERTY
U+W
SciTegic.value.DoubleValue
-7.189

@<SCITEGIC>MOL_PROPERTY
Grad RMS
SciTegic.value.DoubleValue
0.000000

@<SCITEGIC>MOL_PROPERTY
U
SciTegic.value.DoubleValue
48.775

@<SCITEGIC>MOL_PROPERTY
W
SciTegic.value.DoubleValue
-55.965

@<SCITEGIC>MOL_PROPERTY
W(PB)
SciTegic.value.DoubleValue
-58.038

@<SCITEGIC>MOL_PROPERTY
W(SA)
SciTegic.value.DoubleValue
2.073

@<SCITEGIC>MOL_PROPERTY
Valence
SciTegic.value.DoubleValue
2.602

@<SCITEGIC>MOL_PROPERTY
Coulomb
SciTegic.value.DoubleValue
45.581

@<SCITEGIC>MOL_PROPERTY
VdW
SciTegic.value.DoubleValue
0.592

@<SCITEGIC>MOL_PROPERTY
VdW6
SciTegic.value.DoubleValue
-6.616

@<SCITEGIC>MOL_PROPERTY
VdW12
SciTegic.value.DoubleValue
7.208

@<SCITEGIC>MOL_PROPERTY
Bond
SciTegic.value.DoubleValue
0.196

@<SCITEGIC>MOL_PROPERTY
Angle
SciTegic.value.DoubleValue
0.832

@<SCITEGIC>MOL_PROPERTY
Pdih
SciTegic.value.DoubleValue
1.574

@<SCITEGIC>MOL_PROPERTY
Idih
SciTegic.value.DoubleValue
0.000

@<SCITEGIC>MOL_PROPERTY
Tether
SciTegic.value.DoubleValue
0.000

@<TRIPOS>MOLECULE
guest-2_confgen4.mol2 : confsearch ligand conformer 287
          23          22           1
SMALL
USER_CHARGES
 
@<TRIPOS>ATOM
       1    N1      20.259124   17.750856   20.935986 N.4        1 MOL1        -0.5940
       2    H1      19.896175   18.701017   21.062997 H          1 MOL1         0.3649
       3    H2      19.707963   17.307945   20.192779 H          1 MOL1         0.3649
       4    H3      21.219262   17.834210   20.586413 H          1 MOL1         0.3649
       5    C1      20.199562   16.959971   22.228509 C.3        1 MOL1         0.0207
       6    H4      20.602074   15.966324   22.013659 H          1 MOL1         0.0950
       7    H5      19.152519   16.845659   22.521361 H          1 MOL1         0.0950
       8    C2      21.001946   17.588544   23.386005 C.3        1 MOL1        -0.1415
       9    H6      21.228405   16.791393   24.106495 H          1 MOL1         0.0976
      10    H7      21.973839   17.940682   23.015472 H          1 MOL1         0.0976
      11    C3      20.277275   18.727744   24.152285 C.3        1 MOL1        -0.1375
      12    H8      20.935009   19.039868   24.975371 H          1 MOL1         0.0976
      13    H9      19.369860   18.337658   24.633846 H          1 MOL1         0.0976
      14    C4      19.936632   19.982589   23.308137 C.3        1 MOL1        -0.1375
      15    H10     20.056768   20.872426   23.941775 H          1 MOL1         0.0976
      16    H11     20.663294   20.100195   22.493363 H          1 MOL1         0.0976
      17    C5      18.486166   19.977550   22.766634 C.3        1 MOL1        -0.1350
      18    H12     17.784324   20.029203   23.610959 H          1 MOL1         0.0976
      19    H13     18.262089   19.039475   22.245019 H          1 MOL1         0.0976
      20    C6      18.226824   21.167428   21.818605 C.3        1 MOL1        -0.2365
      21    H14     18.392371   22.123440   22.332417 H          1 MOL1         0.0987
      22    H15     17.190382   21.155849   21.456897 H          1 MOL1         0.0987
      23    H16     18.888943   21.131813   20.943908 H          1 MOL1         0.0987
@<TRIPOS>BOND
    1     1     2    1
    2     1     3    1
    3     1     4    1
    4     1     5    1
    5     5     6    1
    6     5     7    1
    7     5     8    1
    8     8     9    1
    9     8    10    1
   10     8    11    1
   11    11    12    1
   12    11    13    1
   13    11    14    1
   14    14    15    1
   15    14    16    1
   16    14    17    1
   17    17    18    1
   18    17    19    1
   19    17    20    1
   20    20    21    1
   21    20    22    1
   22    20    23    1
@<TRIPOS>SUBSTRUCTURE
       1 MOL1            1 RESIDUE      1      MOL     
@<SCITEGIC>MOL_PROPERTY
VConf Rank
SciTegic.value.IntegerValue
287

@<SCITEGIC>MOL_PROPERTY
Conf_Id
SciTegic.value.IntegerValue
82

@<SCITEGIC>MOL_PROPERTY
Delta U+W
SciTegic.value.DoubleValue
5.994

@<SCITEGIC>MOL_PROPERTY
U+W
SciTegic.value.DoubleValue
-2.388

@<SCITEGIC>MOL_PROPERTY
Grad RMS
SciTegic.value.DoubleValue
0.000000

@<SCITEGIC>MOL_PROPERTY
U
SciTegic.value.DoubleValue
52.836

@<SCITEGIC>MOL_PROPERTY
W
SciTegic.value.DoubleValue
-55.224

@<SCITEGIC>MOL_PROPERTY
W(PB)
SciTegic.value.DoubleValue
-57.261

@<SCITEGIC>MOL_PROPERTY
W(SA)
SciTegic.value.DoubleValue
2.037

@<SCITEGIC>MOL_PROPERTY
Valence
SciTegic.value.DoubleValue
5.785

@<SCITEGIC>MOL_PROPERTY
Coulomb
SciTegic.value.DoubleValue
46.744

@<SCITEGIC>MOL_PROPERTY
VdW
SciTegic.value.DoubleValue
0.307

@<SCITEGIC>MOL_PROPERTY
VdW6
SciTegic.value.DoubleValue
-7.672

@<SCITEGIC>MOL_PROPERTY
VdW12
SciTegic.value.DoubleValue
7.979

@<SCITEGIC>MOL_PROPERTY
Bond
SciTegic.value.DoubleValue
0.217

@<SCITEGIC>MOL_PROPERTY
Angle
SciTegic.value.DoubleValue
1.470

@<SCITEGIC>MOL_PROPERTY
Pdih
SciTegic.value.DoubleValue
4.098

@<SCITEGIC>MOL_PROPERTY
Idih
SciTegic.value.DoubleValue
0.000

@<SCITEGIC>MOL_PROPERTY
Tether
SciTegic.value.DoubleValue
0.000

@<TRIPOS>MOLECULE
guest-2_confgen4.mol2 : confsearch ligand conformer 288
          23          22           1
SMALL
USER_CHARGES
 
@<TRIPOS>ATOM
       1    N1      20.141416   16.935666   22.645670 N.4        1 MOL1        -0.5940
       2    H1      19.431606   16.343194   22.202768 H          1 MOL1         0.3649
       3    H2      20.979685   16.357127   22.767732 H          1 MOL1         0.3649
       4    H3      20.376087   17.680390   21.981599 H          1 MOL1         0.3649
       5    C1      19.653600   17.505158   23.963763 C.3        1 MOL1         0.0207
       6    H4      20.467481   18.072526   24.422913 H          1 MOL1         0.0950
       7    H5      19.423796   16.655912   24.612979 H          1 MOL1         0.0950
       8    C2      18.400509   18.395332   23.837006 C.3        1 MOL1        -0.1415
       9    H6      17.679547   17.926123   23.154415 H          1 MOL1         0.0976
      10    H7      17.908824   18.421060   24.818547 H          1 MOL1         0.0976
      11    C3      18.670608   19.861496   23.403963 C.3        1 MOL1        -0.1375
      12    H8      19.286125   20.368489   24.159983 H          1 MOL1         0.0976
      13    H9      17.706313   20.388382   23.409497 H          1 MOL1         0.0976
      14    C4      19.302534   20.032215   21.998691 C.3        1 MOL1        -0.1375
      15    H10     19.006090   19.200424   21.346027 H          1 MOL1         0.0976
      16    H11     18.882705   20.935713   21.534824 H          1 MOL1         0.0976
      17    C5      20.842213   20.190188   22.037866 C.3        1 MOL1        -0.1350
      18    H12     21.307589   19.385589   22.619527 H          1 MOL1         0.0976
      19    H13     21.097151   21.124957   22.556851 H          1 MOL1         0.0976
      20    C6      21.449458   20.216341   20.619277 C.3        1 MOL1        -0.2365
      21    H14     21.243050   19.282838   20.080079 H          1 MOL1         0.0987
      22    H15     22.538797   20.344002   20.666436 H          1 MOL1         0.0987
      23    H16     21.039258   21.047463   20.030770 H          1 MOL1         0.0987
@<TRIPOS>BOND
    1     1     2    1
    2     1     3    1
    3     1     4    1
    4     1     5    1
    5     5     6    1
    6     5     7    1
    7     5     8    1
    8     8     9    1
    9     8    10    1
   10     8    11    1
   11    11    12    1
   12    11    13    1
   13    11    14    1
   14    14    15    1
   15    14    16    1
   16    14    17    1
   17    17    18    1
   18    17    19    1
   19    17    20    1
   20    20    21    1
   21    20    22    1
   22    20    23    1
@<TRIPOS>SUBSTRUCTURE
       1 MOL1            1 RESIDUE      1      MOL     
@<SCITEGIC>MOL_PROPERTY
VConf Rank
SciTegic.value.IntegerValue
288

@<SCITEGIC>MOL_PROPERTY
Conf_Id
SciTegic.value.IntegerValue
5

@<SCITEGIC>MOL_PROPERTY
Delta U+W
SciTegic.value.DoubleValue
6.087

@<SCITEGIC>MOL_PROPERTY
U+W
SciTegic.value.DoubleValue
-2.295

@<SCITEGIC>MOL_PROPERTY
Grad RMS
SciTegic.value.DoubleValue
0.000000

@<SCITEGIC>MOL_PROPERTY
U
SciTegic.value.DoubleValue
52.836

@<SCITEGIC>MOL_PROPERTY
W
SciTegic.value.DoubleValue
-55.131

@<SCITEGIC>MOL_PROPERTY
W(PB)
SciTegic.value.DoubleValue
-57.202

@<SCITEGIC>MOL_PROPERTY
W(SA)
SciTegic.value.DoubleValue
2.071

@<SCITEGIC>MOL_PROPERTY
Valence
SciTegic.value.DoubleValue
5.785

@<SCITEGIC>MOL_PROPERTY
Coulomb
SciTegic.value.DoubleValue
46.744

@<SCITEGIC>MOL_PROPERTY
VdW
SciTegic.value.DoubleValue
0.307

@<SCITEGIC>MOL_PROPERTY
VdW6
SciTegic.value.DoubleValue
-7.672

@<SCITEGIC>MOL_PROPERTY
VdW12
SciTegic.value.DoubleValue
7.980

@<SCITEGIC>MOL_PROPERTY
Bond
SciTegic.value.DoubleValue
0.217

@<SCITEGIC>MOL_PROPERTY
Angle
SciTegic.value.DoubleValue
1.470

@<SCITEGIC>MOL_PROPERTY
Pdih
SciTegic.value.DoubleValue
4.098

@<SCITEGIC>MOL_PROPERTY
Idih
SciTegic.value.DoubleValue
0.000

@<SCITEGIC>MOL_PROPERTY
Tether
SciTegic.value.DoubleValue
0.000

@<TRIPOS>MOLECULE
guest-2_confgen4.mol2 : confsearch ligand conformer 289
          23          22           1
SMALL
USER_CHARGES
 
@<TRIPOS>ATOM
       1    N1      21.550970   19.867710   25.896454 N.4        1 MOL1        -0.5940
       2    H1      20.900280   20.603420   26.190082 H          1 MOL1         0.3649
       3    H2      22.479431   20.137019   26.239277 H          1 MOL1         0.3649
       4    H3      21.285389   19.013079   26.396410 H          1 MOL1         0.3649
       5    C1      21.541149   19.670431   24.394162 C.3        1 MOL1         0.0207
       6    H4      22.274890   18.897288   24.150505 H          1 MOL1         0.0950
       7    H5      21.861000   20.606687   23.928740 H          1 MOL1         0.0950
       8    C2      20.160739   19.265274   23.847452 C.3        1 MOL1        -0.1415
       9    H6      19.836417   18.333335   24.329536 H          1 MOL1         0.0976
      10    H7      19.423968   20.036662   24.108655 H          1 MOL1         0.0976
      11    C3      20.193256   19.074421   22.314905 C.3        1 MOL1        -0.1375
      12    H8      20.935283   18.305757   22.057313 H          1 MOL1         0.0976
      13    H9      20.523224   20.007280   21.836681 H          1 MOL1         0.0976
      14    C4      18.811411   18.667160   21.754864 C.3        1 MOL1        -0.1375
      15    H10     18.481404   17.734339   22.232833 H          1 MOL1         0.0976
      16    H11     18.069352   19.435648   22.012327 H          1 MOL1         0.0976
      17    C5      18.844264   18.476461   20.222117 C.3        1 MOL1        -0.1350
      18    H12     19.583561   17.706731   19.959575 H          1 MOL1         0.0976
      19    H13     19.171531   19.407889   19.739094 H          1 MOL1         0.0976
      20    C6      17.462767   18.069852   19.666562 C.3        1 MOL1        -0.2365
      21    H14     17.506060   17.939172   18.577482 H          1 MOL1         0.0987
      22    H15     16.708376   18.837224   19.883965 H          1 MOL1         0.0987
      23    H16     17.123611   17.122788   20.106189 H          1 MOL1         0.0987
@<TRIPOS>BOND
    1     1     2    1
    2     1     3    1
    3     1     4    1
    4     1     5    1
    5     5     6    1
    6     5     7    1
    7     5     8    1
    8     8     9    1
    9     8    10    1
   10     8    11    1
   11    11    12    1
   12    11    13    1
   13    11    14    1
   14    14    15    1
   15    14    16    1
   16    14    17    1
   17    17    18    1
   18    17    19    1
   19    17    20    1
   20    20    21    1
   21    20    22    1
   22    20    23    1
@<TRIPOS>SUBSTRUCTURE
       1 MOL1            1 RESIDUE      1      MOL     
@<SCITEGIC>MOL_PROPERTY
VConf Rank
SciTegic.value.IntegerValue
289

@<SCITEGIC>MOL_PROPERTY
Conf_Id
SciTegic.value.IntegerValue
40

@<SCITEGIC>MOL_PROPERTY
Delta U+W
SciTegic.value.DoubleValue
0.000

@<SCITEGIC>MOL_PROPERTY
U+W
SciTegic.value.DoubleValue
-8.382

@<SCITEGIC>MOL_PROPERTY
Grad RMS
SciTegic.value.DoubleValue
0.000000

@<SCITEGIC>MOL_PROPERTY
U
SciTegic.value.DoubleValue
46.604

@<SCITEGIC>MOL_PROPERTY
W
SciTegic.value.DoubleValue
-54.986

@<SCITEGIC>MOL_PROPERTY
W(PB)
SciTegic.value.DoubleValue
-57.162

@<SCITEGIC>MOL_PROPERTY
W(SA)
SciTegic.value.DoubleValue
2.176

@<SCITEGIC>MOL_PROPERTY
Valence
SciTegic.value.DoubleValue
1.727

@<SCITEGIC>MOL_PROPERTY
Coulomb
SciTegic.value.DoubleValue
44.434

@<SCITEGIC>MOL_PROPERTY
VdW
SciTegic.value.DoubleValue
0.443

@<SCITEGIC>MOL_PROPERTY
VdW6
SciTegic.value.DoubleValue
-4.623

@<SCITEGIC>MOL_PROPERTY
VdW12
SciTegic.value.DoubleValue
5.066

@<SCITEGIC>MOL_PROPERTY
Bond
SciTegic.value.DoubleValue
0.112

@<SCITEGIC>MOL_PROPERTY
Angle
SciTegic.value.DoubleValue
0.386

@<SCITEGIC>MOL_PROPERTY
Pdih
SciTegic.value.DoubleValue
1.228

@<SCITEGIC>MOL_PROPERTY
Idih
SciTegic.value.DoubleValue
0.000

@<SCITEGIC>MOL_PROPERTY
Tether
SciTegic.value.DoubleValue
0.000

@<TRIPOS>MOLECULE
guest-2_confgen4.mol2 : confsearch ligand conformer 290
          23          22           1
SMALL
USER_CHARGES
 
@<TRIPOS>ATOM
       1    N1      20.703790   22.447840   22.228149 N.4        1 MOL1        -0.5940
       2    H1      19.872552   23.031991   22.091587 H          1 MOL1         0.3649
       3    H2      21.158079   22.351603   21.314260 H          1 MOL1         0.3649
       4    H3      21.346138   22.979015   22.825870 H          1 MOL1         0.3649
       5    C1      20.356239   21.102082   22.831412 C.3        1 MOL1         0.0207
       6    H4      19.904265   21.278087   23.811286 H          1 MOL1         0.0950
       7    H5      21.288034   20.549560   22.976310 H          1 MOL1         0.0950
       8    C2      19.391542   20.279624   21.956166 C.3        1 MOL1        -0.1415
       9    H6      18.480339   20.866665   21.779985 H          1 MOL1         0.0976
      10    H7      19.845510   20.101495   20.972212 H          1 MOL1         0.0976
      11    C3      18.999954   18.928651   22.600489 C.3        1 MOL1        -0.1375
      12    H8      18.229380   18.460393   21.974461 H          1 MOL1         0.0976
      13    H9      18.537299   19.110601   23.580395 H          1 MOL1         0.0976
      14    C4      20.199734   17.960253   22.759576 C.3        1 MOL1        -0.1375
      15    H10     20.649029   17.762341   21.776628 H          1 MOL1         0.0976
      16    H11     20.980436   18.438915   23.365293 H          1 MOL1         0.0976
      17    C5      19.823112   16.618649   23.433950 C.3        1 MOL1        -0.1350
      18    H12     19.382631   16.810042   24.422456 H          1 MOL1         0.0976
      19    H13     20.743116   16.044989   23.613895 H          1 MOL1         0.0976
      20    C6      18.856587   15.754792   22.591946 C.3        1 MOL1        -0.2365
      21    H14     17.873793   16.231114   22.489525 H          1 MOL1         0.0987
      22    H15     18.700680   14.778235   23.068366 H          1 MOL1         0.0987
      23    H16     19.259755   15.576737   21.586579 H          1 MOL1         0.0987
@<TRIPOS>BOND
    1     1     2    1
    2     1     3    1
    3     1     4    1
    4     1     5    1
    5     5     6    1
    6     5     7    1
    7     5     8    1
    8     8     9    1
    9     8    10    1
   10     8    11    1
   11    11    12    1
   12    11    13    1
   13    11    14    1
   14    14    15    1
   15    14    16    1
   16    14    17    1
   17    17    18    1
   18    17    19    1
   19    17    20    1
   20    20    21    1
   21    20    22    1
   22    20    23    1
@<TRIPOS>SUBSTRUCTURE
       1 MOL1            1 RESIDUE      1      MOL     
@<SCITEGIC>MOL_PROPERTY
VConf Rank
SciTegic.value.IntegerValue
290

@<SCITEGIC>MOL_PROPERTY
Conf_Id
SciTegic.value.IntegerValue
65

@<SCITEGIC>MOL_PROPERTY
Delta U+W
SciTegic.value.DoubleValue
1.004

@<SCITEGIC>MOL_PROPERTY
U+W
SciTegic.value.DoubleValue
-7.378

@<SCITEGIC>MOL_PROPERTY
Grad RMS
SciTegic.value.DoubleValue
0.000000

@<SCITEGIC>MOL_PROPERTY
U
SciTegic.value.DoubleValue
48.047

@<SCITEGIC>MOL_PROPERTY
W
SciTegic.value.DoubleValue
-55.425

@<SCITEGIC>MOL_PROPERTY
W(PB)
SciTegic.value.DoubleValue
-57.542

@<SCITEGIC>MOL_PROPERTY
W(SA)
SciTegic.value.DoubleValue
2.116

@<SCITEGIC>MOL_PROPERTY
Valence
SciTegic.value.DoubleValue
2.583

@<SCITEGIC>MOL_PROPERTY
Coulomb
SciTegic.value.DoubleValue
44.791

@<SCITEGIC>MOL_PROPERTY
VdW
SciTegic.value.DoubleValue
0.673

@<SCITEGIC>MOL_PROPERTY
VdW6
SciTegic.value.DoubleValue
-5.788

@<SCITEGIC>MOL_PROPERTY
VdW12
SciTegic.value.DoubleValue
6.462

@<SCITEGIC>MOL_PROPERTY
Bond
SciTegic.value.DoubleValue
0.177

@<SCITEGIC>MOL_PROPERTY
Angle
SciTegic.value.DoubleValue
0.787

@<SCITEGIC>MOL_PROPERTY
Pdih
SciTegic.value.DoubleValue
1.619

@<SCITEGIC>MOL_PROPERTY
Idih
SciTegic.value.DoubleValue
0.000

@<SCITEGIC>MOL_PROPERTY
Tether
SciTegic.value.DoubleValue
0.000

@<TRIPOS>MOLECULE
guest-2_confgen4.mol2 : confsearch ligand conformer 291
          23          22           1
SMALL
USER_CHARGES
 
@<TRIPOS>ATOM
       1    N1      22.192037   19.422873   25.206246 N.4        1 MOL1        -0.5940
       2    H1      21.999630   18.775157   25.977142 H          1 MOL1         0.3649
       3    H2      22.499010   20.305710   25.628615 H          1 MOL1         0.3649
       4    H3      22.992581   19.046067   24.688578 H          1 MOL1         0.3649
       5    C1      20.982259   19.615945   24.314654 C.3        1 MOL1         0.0207
       6    H4      21.250027   20.337716   23.538853 H          1 MOL1         0.0950
       7    H5      20.180446   20.044606   24.921906 H          1 MOL1         0.0950
       8    C2      20.496463   18.306341   23.664982 C.3        1 MOL1        -0.1415
       9    H6      21.301057   17.875939   23.053944 H          1 MOL1         0.0976
      10    H7      20.276817   17.575690   24.454824 H          1 MOL1         0.0976
      11    C3      19.230893   18.500379   22.796478 C.3        1 MOL1        -0.1375
      12    H8      18.424754   18.921876   23.412799 H          1 MOL1         0.0976
      13    H9      18.886179   17.511805   22.466544 H          1 MOL1         0.0976
      14    C4      19.473590   19.405161   21.561552 C.3        1 MOL1        -0.1375
      15    H10     19.841884   20.385601   21.891100 H          1 MOL1         0.0976
      16    H11     20.265467   18.972209   20.934892 H          1 MOL1         0.0976
      17    C5      18.204127   19.631688   20.705008 C.3        1 MOL1        -0.1350
      18    H12     18.433412   20.371360   19.925146 H          1 MOL1         0.0976
      19    H13     17.411682   20.074577   21.324427 H          1 MOL1         0.0976
      20    C6      17.678258   18.344895   20.028980 C.3        1 MOL1        -0.2365
      21    H14     17.316477   17.619205   20.767726 H          1 MOL1         0.0987
      22    H15     18.462579   17.864697   19.429596 H          1 MOL1         0.0987
      23    H16     16.840260   18.578156   19.359433 H          1 MOL1         0.0987
@<TRIPOS>BOND
    1     1     2    1
    2     1     3    1
    3     1     4    1
    4     1     5    1
    5     5     6    1
    6     5     7    1
    7     5     8    1
    8     8     9    1
    9     8    10    1
   10     8    11    1
   11    11    12    1
   12    11    13    1
   13    11    14    1
   14    14    15    1
   15    14    16    1
   16    14    17    1
   17    17    18    1
   18    17    19    1
   19    17    20    1
   20    20    21    1
   21    20    22    1
   22    20    23    1
@<TRIPOS>SUBSTRUCTURE
       1 MOL1            1 RESIDUE      1      MOL     
@<SCITEGIC>MOL_PROPERTY
VConf Rank
SciTegic.value.IntegerValue
291

@<SCITEGIC>MOL_PROPERTY
Conf_Id
SciTegic.value.IntegerValue
92

@<SCITEGIC>MOL_PROPERTY
Delta U+W
SciTegic.value.DoubleValue
0.973

@<SCITEGIC>MOL_PROPERTY
U+W
SciTegic.value.DoubleValue
-7.409

@<SCITEGIC>MOL_PROPERTY
Grad RMS
SciTegic.value.DoubleValue
0.000000

@<SCITEGIC>MOL_PROPERTY
U
SciTegic.value.DoubleValue
48.047

@<SCITEGIC>MOL_PROPERTY
W
SciTegic.value.DoubleValue
-55.456

@<SCITEGIC>MOL_PROPERTY
W(PB)
SciTegic.value.DoubleValue
-57.595

@<SCITEGIC>MOL_PROPERTY
W(SA)
SciTegic.value.DoubleValue
2.138

@<SCITEGIC>MOL_PROPERTY
Valence
SciTegic.value.DoubleValue
2.583

@<SCITEGIC>MOL_PROPERTY
Coulomb
SciTegic.value.DoubleValue
44.791

@<SCITEGIC>MOL_PROPERTY
VdW
SciTegic.value.DoubleValue
0.674

@<SCITEGIC>MOL_PROPERTY
VdW6
SciTegic.value.DoubleValue
-5.789

@<SCITEGIC>MOL_PROPERTY
VdW12
SciTegic.value.DoubleValue
6.462

@<SCITEGIC>MOL_PROPERTY
Bond
SciTegic.value.DoubleValue
0.177

@<SCITEGIC>MOL_PROPERTY
Angle
SciTegic.value.DoubleValue
0.787

@<SCITEGIC>MOL_PROPERTY
Pdih
SciTegic.value.DoubleValue
1.619

@<SCITEGIC>MOL_PROPERTY
Idih
SciTegic.value.DoubleValue
0.000

@<SCITEGIC>MOL_PROPERTY
Tether
SciTegic.value.DoubleValue
0.000

@<TRIPOS>MOLECULE
guest-2_confgen4.mol2 : confsearch ligand conformer 292
          23          22           1
SMALL
USER_CHARGES
 
@<TRIPOS>ATOM
       1    N1      19.888163   19.770994   26.040365 N.4        1 MOL1        -0.5940
       2    H1      19.035474   19.961604   26.577602 H          1 MOL1         0.3649
       3    H2      20.577104   20.478861   26.314476 H          1 MOL1         0.3649
       4    H3      20.244561   18.864197   26.359016 H          1 MOL1         0.3649
       5    C1      19.627853   19.783521   24.547764 C.3        1 MOL1         0.0207
       6    H4      19.224762   20.764928   24.283614 H          1 MOL1         0.0950
       7    H5      18.865898   19.029544   24.334139 H          1 MOL1         0.0950
       8    C2      20.890811   19.500300   23.712551 C.3        1 MOL1        -0.1415
       9    H6      21.663247   20.237475   23.969189 H          1 MOL1         0.0976
      10    H7      21.296092   18.514906   23.978523 H          1 MOL1         0.0976
      11    C3      20.626459   19.559942   22.189530 C.3        1 MOL1        -0.1375
      12    H8      21.582743   19.441931   21.661283 H          1 MOL1         0.0976
      13    H9      20.245222   20.555458   21.922593 H          1 MOL1         0.0976
      14    C4      19.638039   18.473787   21.700903 C.3        1 MOL1        -0.1375
      15    H10     20.005755   17.481975   21.998413 H          1 MOL1         0.0976
      16    H11     18.661540   18.609502   22.184730 H          1 MOL1         0.0976
      17    C5      19.453091   18.514389   20.167633 C.3        1 MOL1        -0.1350
      18    H12     20.423724   18.371044   19.672373 H          1 MOL1         0.0976
      19    H13     19.085894   19.504928   19.864354 H          1 MOL1         0.0976
      20    C6      18.466131   17.431691   19.681588 C.3        1 MOL1        -0.2365
      21    H14     18.823486   16.426620   19.941118 H          1 MOL1         0.0987
      22    H15     18.348307   17.476042   18.591086 H          1 MOL1         0.0987
      23    H16     17.475041   17.569388   20.133253 H          1 MOL1         0.0987
@<TRIPOS>BOND
    1     1     2    1
    2     1     3    1
    3     1     4    1
    4     1     5    1
    5     5     6    1
    6     5     7    1
    7     5     8    1
    8     8     9    1
    9     8    10    1
   10     8    11    1
   11    11    12    1
   12    11    13    1
   13    11    14    1
   14    14    15    1
   15    14    16    1
   16    14    17    1
   17    17    18    1
   18    17    19    1
   19    17    20    1
   20    20    21    1
   21    20    22    1
   22    20    23    1
@<TRIPOS>SUBSTRUCTURE
       1 MOL1            1 RESIDUE      1      MOL     
@<SCITEGIC>MOL_PROPERTY
VConf Rank
SciTegic.value.IntegerValue
292

@<SCITEGIC>MOL_PROPERTY
Conf_Id
SciTegic.value.IntegerValue
42

@<SCITEGIC>MOL_PROPERTY
Delta U+W
SciTegic.value.DoubleValue
0.365

@<SCITEGIC>MOL_PROPERTY
U+W
SciTegic.value.DoubleValue
-8.017

@<SCITEGIC>MOL_PROPERTY
Grad RMS
SciTegic.value.DoubleValue
0.000000

@<SCITEGIC>MOL_PROPERTY
U
SciTegic.value.DoubleValue
47.375

@<SCITEGIC>MOL_PROPERTY
W
SciTegic.value.DoubleValue
-55.392

@<SCITEGIC>MOL_PROPERTY
W(PB)
SciTegic.value.DoubleValue
-57.543

@<SCITEGIC>MOL_PROPERTY
W(SA)
SciTegic.value.DoubleValue
2.152

@<SCITEGIC>MOL_PROPERTY
Valence
SciTegic.value.DoubleValue
2.032

@<SCITEGIC>MOL_PROPERTY
Coulomb
SciTegic.value.DoubleValue
44.843

@<SCITEGIC>MOL_PROPERTY
VdW
SciTegic.value.DoubleValue
0.499

@<SCITEGIC>MOL_PROPERTY
VdW6
SciTegic.value.DoubleValue
-5.218

@<SCITEGIC>MOL_PROPERTY
VdW12
SciTegic.value.DoubleValue
5.717

@<SCITEGIC>MOL_PROPERTY
Bond
SciTegic.value.DoubleValue
0.135

@<SCITEGIC>MOL_PROPERTY
Angle
SciTegic.value.DoubleValue
0.514

@<SCITEGIC>MOL_PROPERTY
Pdih
SciTegic.value.DoubleValue
1.383

@<SCITEGIC>MOL_PROPERTY
Idih
SciTegic.value.DoubleValue
0.000

@<SCITEGIC>MOL_PROPERTY
Tether
SciTegic.value.DoubleValue
0.000

@<TRIPOS>MOLECULE
guest-2_confgen4.mol2 : confsearch ligand conformer 293
          23          22           1
SMALL
USER_CHARGES
 
@<TRIPOS>ATOM
       1    N1      21.828575   21.393253   22.604463 N.4        1 MOL1        -0.5940
       2    H1      21.790420   21.497395   21.585477 H          1 MOL1         0.3649
       3    H2      22.666497   21.890680   22.924463 H          1 MOL1         0.3649
       4    H3      21.020232   21.890450   22.990179 H          1 MOL1         0.3649
       5    C1      21.845912   19.935532   23.021995 C.3        1 MOL1         0.0207
       6    H4      21.910942   19.894720   24.112649 H          1 MOL1         0.0950
       7    H5      22.753077   19.485129   22.609974 H          1 MOL1         0.0950
       8    C2      20.618128   19.135446   22.544878 C.3        1 MOL1        -0.1415
       9    H6      20.539178   19.200806   21.451651 H          1 MOL1         0.0976
      10    H7      20.789425   18.080414   22.791216 H          1 MOL1         0.0976
      11    C3      19.300711   19.610581   23.204775 C.3        1 MOL1        -0.1375
      12    H8      19.181598   20.690435   23.046471 H          1 MOL1         0.0976
      13    H9      19.366018   19.466669   24.292171 H          1 MOL1         0.0976
      14    C4      18.026935   18.907216   22.668276 C.3        1 MOL1        -0.1375
      15    H10     17.162792   19.357159   23.176502 H          1 MOL1         0.0976
      16    H11     17.891907   19.132952   21.601489 H          1 MOL1         0.0976
      17    C5      17.979390   17.375134   22.902592 C.3        1 MOL1        -0.1350
      18    H12     16.940496   17.085460   23.114159 H          1 MOL1         0.0976
      19    H13     18.555525   17.107242   23.799198 H          1 MOL1         0.0976
      20    C6      18.464097   16.552830   21.685573 C.3        1 MOL1        -0.2365
      21    H14     17.844819   16.758210   20.802753 H          1 MOL1         0.0987
      22    H15     18.395630   15.477830   21.896770 H          1 MOL1         0.0987
      23    H16     19.504954   16.774281   21.425388 H          1 MOL1         0.0987
@<TRIPOS>BOND
    1     1     2    1
    2     1     3    1
    3     1     4    1
    4     1     5    1
    5     5     6    1
    6     5     7    1
    7     5     8    1
    8     8     9    1
    9     8    10    1
   10     8    11    1
   11    11    12    1
   12    11    13    1
   13    11    14    1
   14    14    15    1
   15    14    16    1
   16    14    17    1
   17    17    18    1
   18    17    19    1
   19    17    20    1
   20    20    21    1
   21    20    22    1
   22    20    23    1
@<TRIPOS>SUBSTRUCTURE
       1 MOL1            1 RESIDUE      1      MOL     
@<SCITEGIC>MOL_PROPERTY
VConf Rank
SciTegic.value.IntegerValue
293

@<SCITEGIC>MOL_PROPERTY
Conf_Id
SciTegic.value.IntegerValue
3

@<SCITEGIC>MOL_PROPERTY
Delta U+W
SciTegic.value.DoubleValue
3.283

@<SCITEGIC>MOL_PROPERTY
U+W
SciTegic.value.DoubleValue
-5.099

@<SCITEGIC>MOL_PROPERTY
Grad RMS
SciTegic.value.DoubleValue
0.000000

@<SCITEGIC>MOL_PROPERTY
U
SciTegic.value.DoubleValue
50.701

@<SCITEGIC>MOL_PROPERTY
W
SciTegic.value.DoubleValue
-55.800

@<SCITEGIC>MOL_PROPERTY
W(PB)
SciTegic.value.DoubleValue
-57.867

@<SCITEGIC>MOL_PROPERTY
W(SA)
SciTegic.value.DoubleValue
2.067

@<SCITEGIC>MOL_PROPERTY
Valence
SciTegic.value.DoubleValue
4.880

@<SCITEGIC>MOL_PROPERTY
Coulomb
SciTegic.value.DoubleValue
45.095

@<SCITEGIC>MOL_PROPERTY
VdW
SciTegic.value.DoubleValue
0.726

@<SCITEGIC>MOL_PROPERTY
VdW6
SciTegic.value.DoubleValue
-6.620

@<SCITEGIC>MOL_PROPERTY
VdW12
SciTegic.value.DoubleValue
7.346

@<SCITEGIC>MOL_PROPERTY
Bond
SciTegic.value.DoubleValue
0.222

@<SCITEGIC>MOL_PROPERTY
Angle
SciTegic.value.DoubleValue
1.260

@<SCITEGIC>MOL_PROPERTY
Pdih
SciTegic.value.DoubleValue
3.398

@<SCITEGIC>MOL_PROPERTY
Idih
SciTegic.value.DoubleValue
0.000

@<SCITEGIC>MOL_PROPERTY
Tether
SciTegic.value.DoubleValue
0.000

@<TRIPOS>MOLECULE
guest-2_confgen4.mol2 : confsearch ligand conformer 294
          23          22           1
SMALL
USER_CHARGES
 
@<TRIPOS>ATOM
       1    N1      19.897840   18.010201   19.873799 N.4        1 MOL1        -0.5940
       2    H1      18.983643   17.717838   19.514185 H          1 MOL1         0.3649
       3    H2      20.575914   17.869704   19.117287 H          1 MOL1         0.3649
       4    H3      19.846734   19.018372   20.048667 H          1 MOL1         0.3649
       5    C1      20.282128   17.244266   21.124383 C.3        1 MOL1         0.0207
       6    H4      21.274326   17.580019   21.436317 H          1 MOL1         0.0950
       7    H5      20.351563   16.186061   20.858100 H          1 MOL1         0.0950
       8    C2      19.282877   17.413984   22.287125 C.3        1 MOL1        -0.1415
       9    H6      18.303818   17.025340   21.976958 H          1 MOL1         0.0976
      10    H7      19.608939   16.785401   23.126426 H          1 MOL1         0.0976
      11    C3      19.120621   18.875305   22.776882 C.3        1 MOL1        -0.1375
      12    H8      18.362435   18.885379   23.570562 H          1 MOL1         0.0976
      13    H9      18.722400   19.499535   21.966015 H          1 MOL1         0.0976
      14    C4      20.439271   19.489185   23.312364 C.3        1 MOL1        -0.1375
      15    H10     20.821767   18.878698   24.141924 H          1 MOL1         0.0976
      16    H11     21.205537   19.457422   22.526755 H          1 MOL1         0.0976
      17    C5      20.290320   20.957829   23.778566 C.3        1 MOL1        -0.1350
      18    H12     19.918210   21.575614   22.949349 H          1 MOL1         0.0976
      19    H13     21.285876   21.349525   24.030177 H          1 MOL1         0.0976
      20    C6      19.366787   21.124640   25.006819 C.3        1 MOL1        -0.2365
      21    H14     19.698682   20.491067   25.839549 H          1 MOL1         0.0987
      22    H15     18.327792   20.865063   24.769425 H          1 MOL1         0.0987
      23    H16     19.374482   22.165920   25.354111 H          1 MOL1         0.0987
@<TRIPOS>BOND
    1     1     2    1
    2     1     3    1
    3     1     4    1
    4     1     5    1
    5     5     6    1
    6     5     7    1
    7     5     8    1
    8     8     9    1
    9     8    10    1
   10     8    11    1
   11    11    12    1
   12    11    13    1
   13    11    14    1
   14    14    15    1
   15    14    16    1
   16    14    17    1
   17    17    18    1
   18    17    19    1
   19    17    20    1
   20    20    21    1
   21    20    22    1
   22    20    23    1
@<TRIPOS>SUBSTRUCTURE
       1 MOL1            1 RESIDUE      1      MOL     
@<SCITEGIC>MOL_PROPERTY
VConf Rank
SciTegic.value.IntegerValue
294

@<SCITEGIC>MOL_PROPERTY
Conf_Id
SciTegic.value.IntegerValue
83

@<SCITEGIC>MOL_PROPERTY
Delta U+W
SciTegic.value.DoubleValue
1.229

@<SCITEGIC>MOL_PROPERTY
U+W
SciTegic.value.DoubleValue
-7.154

@<SCITEGIC>MOL_PROPERTY
Grad RMS
SciTegic.value.DoubleValue
0.000000

@<SCITEGIC>MOL_PROPERTY
U
SciTegic.value.DoubleValue
48.727

@<SCITEGIC>MOL_PROPERTY
W
SciTegic.value.DoubleValue
-55.880

@<SCITEGIC>MOL_PROPERTY
W(PB)
SciTegic.value.DoubleValue
-57.960

@<SCITEGIC>MOL_PROPERTY
W(SA)
SciTegic.value.DoubleValue
2.080

@<SCITEGIC>MOL_PROPERTY
Valence
SciTegic.value.DoubleValue
2.671

@<SCITEGIC>MOL_PROPERTY
Coulomb
SciTegic.value.DoubleValue
45.371

@<SCITEGIC>MOL_PROPERTY
VdW
SciTegic.value.DoubleValue
0.684

@<SCITEGIC>MOL_PROPERTY
VdW6
SciTegic.value.DoubleValue
-6.511

@<SCITEGIC>MOL_PROPERTY
VdW12
SciTegic.value.DoubleValue
7.195

@<SCITEGIC>MOL_PROPERTY
Bond
SciTegic.value.DoubleValue
0.203

@<SCITEGIC>MOL_PROPERTY
Angle
SciTegic.value.DoubleValue
0.915

@<SCITEGIC>MOL_PROPERTY
Pdih
SciTegic.value.DoubleValue
1.554

@<SCITEGIC>MOL_PROPERTY
Idih
SciTegic.value.DoubleValue
0.000

@<SCITEGIC>MOL_PROPERTY
Tether
SciTegic.value.DoubleValue
0.000

@<TRIPOS>MOLECULE
guest-2_confgen4.mol2 : confsearch ligand conformer 295
          23          22           1
SMALL
USER_CHARGES
 
@<TRIPOS>ATOM
       1    N1      17.722569   16.975320   23.091574 N.4        1 MOL1        -0.5940
       2    H1      17.541988   16.369535   22.284748 H          1 MOL1         0.3649
       3    H2      17.447659   17.925563   22.824995 H          1 MOL1         0.3649
       4    H3      17.086774   16.676216   23.838660 H          1 MOL1         0.3649
       5    C1      19.173105   16.914266   23.528052 C.3        1 MOL1         0.0207
       6    H4      19.386684   15.885160   23.829466 H          1 MOL1         0.0950
       7    H5      19.290423   17.554727   24.405854 H          1 MOL1         0.0950
       8    C2      20.169351   17.342530   22.431074 C.3        1 MOL1        -0.1415
       9    H6      21.190762   17.215555   22.813772 H          1 MOL1         0.0976
      10    H7      20.076247   16.658997   21.576722 H          1 MOL1         0.0976
      11    C3      19.985724   18.801122   21.940727 C.3        1 MOL1        -0.1375
      12    H8      18.993327   18.920814   21.486227 H          1 MOL1         0.0976
      13    H9      20.712859   18.984098   21.139060 H          1 MOL1         0.0976
      14    C4      20.178302   19.851262   23.064359 C.3        1 MOL1        -0.1375
      15    H10     19.467671   19.654321   23.877729 H          1 MOL1         0.0976
      16    H11     21.182000   19.748282   23.499280 H          1 MOL1         0.0976
      17    C5      19.969860   21.309135   22.587281 C.3        1 MOL1        -0.1350
      18    H12     20.008235   21.974047   23.461514 H          1 MOL1         0.0976
      19    H13     18.963167   21.420865   22.160887 H          1 MOL1         0.0976
      20    C6      21.025063   21.779041   21.560113 C.3        1 MOL1        -0.2365
      21    H14     22.042526   21.646424   21.950228 H          1 MOL1         0.0987
      22    H15     20.890019   22.844062   21.331139 H          1 MOL1         0.0987
      23    H16     20.943622   21.226972   20.615745 H          1 MOL1         0.0987
@<TRIPOS>BOND
    1     1     2    1
    2     1     3    1
    3     1     4    1
    4     1     5    1
    5     5     6    1
    6     5     7    1
    7     5     8    1
    8     8     9    1
    9     8    10    1
   10     8    11    1
   11    11    12    1
   12    11    13    1
   13    11    14    1
   14    14    15    1
   15    14    16    1
   16    14    17    1
   17    17    18    1
   18    17    19    1
   19    17    20    1
   20    20    21    1
   21    20    22    1
   22    20    23    1
@<TRIPOS>SUBSTRUCTURE
       1 MOL1            1 RESIDUE      1      MOL     
@<SCITEGIC>MOL_PROPERTY
VConf Rank
SciTegic.value.IntegerValue
295

@<SCITEGIC>MOL_PROPERTY
Conf_Id
SciTegic.value.IntegerValue
50

@<SCITEGIC>MOL_PROPERTY
Delta U+W
SciTegic.value.DoubleValue
1.252

@<SCITEGIC>MOL_PROPERTY
U+W
SciTegic.value.DoubleValue
-7.130

@<SCITEGIC>MOL_PROPERTY
Grad RMS
SciTegic.value.DoubleValue
0.000000

@<SCITEGIC>MOL_PROPERTY
U
SciTegic.value.DoubleValue
48.727

@<SCITEGIC>MOL_PROPERTY
W
SciTegic.value.DoubleValue
-55.857

@<SCITEGIC>MOL_PROPERTY
W(PB)
SciTegic.value.DoubleValue
-57.937

@<SCITEGIC>MOL_PROPERTY
W(SA)
SciTegic.value.DoubleValue
2.080

@<SCITEGIC>MOL_PROPERTY
Valence
SciTegic.value.DoubleValue
2.671

@<SCITEGIC>MOL_PROPERTY
Coulomb
SciTegic.value.DoubleValue
45.371

@<SCITEGIC>MOL_PROPERTY
VdW
SciTegic.value.DoubleValue
0.684

@<SCITEGIC>MOL_PROPERTY
VdW6
SciTegic.value.DoubleValue
-6.511

@<SCITEGIC>MOL_PROPERTY
VdW12
SciTegic.value.DoubleValue
7.196

@<SCITEGIC>MOL_PROPERTY
Bond
SciTegic.value.DoubleValue
0.203

@<SCITEGIC>MOL_PROPERTY
Angle
SciTegic.value.DoubleValue
0.915

@<SCITEGIC>MOL_PROPERTY
Pdih
SciTegic.value.DoubleValue
1.554

@<SCITEGIC>MOL_PROPERTY
Idih
SciTegic.value.DoubleValue
0.000

@<SCITEGIC>MOL_PROPERTY
Tether
SciTegic.value.DoubleValue
0.000

@<TRIPOS>MOLECULE
guest-2_confgen4.mol2 : confsearch ligand conformer 296
          23          22           1
SMALL
USER_CHARGES
 
@<TRIPOS>ATOM
       1    N1      22.891744   18.338139   22.542084 N.4        1 MOL1        -0.5940
       2    H1      22.866511   19.273957   22.125981 H          1 MOL1         0.3649
       3    H2      23.639137   17.819694   22.068220 H          1 MOL1         0.3649
       4    H3      23.178512   18.448701   23.519921 H          1 MOL1         0.3649
       5    C1      21.554710   17.632898   22.422866 C.3        1 MOL1         0.0207
       6    H4      21.668992   16.632119   22.848255 H          1 MOL1         0.0950
       7    H5      21.320773   17.526366   21.360164 H          1 MOL1         0.0950
       8    C2      20.400319   18.362359   23.137029 C.3        1 MOL1        -0.1415
       9    H6      19.510158   17.725262   23.088200 H          1 MOL1         0.0976
      10    H7      20.642203   18.471463   24.202560 H          1 MOL1         0.0976
      11    C3      20.100011   19.752383   22.520326 C.3        1 MOL1        -0.1375
      12    H8      19.950116   19.665202   21.435297 H          1 MOL1         0.0976
      13    H9      20.982498   20.391859   22.655508 H          1 MOL1         0.0976
      14    C4      18.883832   20.463615   23.169297 C.3        1 MOL1        -0.1375
      15    H10     18.775142   20.153672   24.217779 H          1 MOL1         0.0976
      16    H11     19.094263   21.541692   23.200283 H          1 MOL1         0.0976
      17    C5      17.542991   20.272723   22.415034 C.3        1 MOL1        -0.1350
      18    H12     17.631521   20.679252   21.397846 H          1 MOL1         0.0976
      19    H13     16.772277   20.874610   22.916578 H          1 MOL1         0.0976
      20    C6      17.056793   18.808783   22.340721 C.3        1 MOL1        -0.2365
      21    H14     17.013578   18.354370   23.338958 H          1 MOL1         0.0987
      22    H15     17.715319   18.201632   21.707489 H          1 MOL1         0.0987
      23    H16     16.049837   18.760896   21.906399 H          1 MOL1         0.0987
@<TRIPOS>BOND
    1     1     2    1
    2     1     3    1
    3     1     4    1
    4     1     5    1
    5     5     6    1
    6     5     7    1
    7     5     8    1
    8     8     9    1
    9     8    10    1
   10     8    11    1
   11    11    12    1
   12    11    13    1
   13    11    14    1
   14    14    15    1
   15    14    16    1
   16    14    17    1
   17    17    18    1
   18    17    19    1
   19    17    20    1
   20    20    21    1
   21    20    22    1
   22    20    23    1
@<TRIPOS>SUBSTRUCTURE
       1 MOL1            1 RESIDUE      1      MOL     
@<SCITEGIC>MOL_PROPERTY
VConf Rank
SciTegic.value.IntegerValue
296

@<SCITEGIC>MOL_PROPERTY
Conf_Id
SciTegic.value.IntegerValue
55

@<SCITEGIC>MOL_PROPERTY
Delta U+W
SciTegic.value.DoubleValue
3.232

@<SCITEGIC>MOL_PROPERTY
U+W
SciTegic.value.DoubleValue
-5.150

@<SCITEGIC>MOL_PROPERTY
Grad RMS
SciTegic.value.DoubleValue
0.000000

@<SCITEGIC>MOL_PROPERTY
U
SciTegic.value.DoubleValue
50.625

@<SCITEGIC>MOL_PROPERTY
W
SciTegic.value.DoubleValue
-55.776

@<SCITEGIC>MOL_PROPERTY
W(PB)
SciTegic.value.DoubleValue
-57.839

@<SCITEGIC>MOL_PROPERTY
W(SA)
SciTegic.value.DoubleValue
2.064

@<SCITEGIC>MOL_PROPERTY
Valence
SciTegic.value.DoubleValue
4.837

@<SCITEGIC>MOL_PROPERTY
Coulomb
SciTegic.value.DoubleValue
45.097

@<SCITEGIC>MOL_PROPERTY
VdW
SciTegic.value.DoubleValue
0.692

@<SCITEGIC>MOL_PROPERTY
VdW6
SciTegic.value.DoubleValue
-6.655

@<SCITEGIC>MOL_PROPERTY
VdW12
SciTegic.value.DoubleValue
7.347

@<SCITEGIC>MOL_PROPERTY
Bond
SciTegic.value.DoubleValue
0.223

@<SCITEGIC>MOL_PROPERTY
Angle
SciTegic.value.DoubleValue
1.167

@<SCITEGIC>MOL_PROPERTY
Pdih
SciTegic.value.DoubleValue
3.447

@<SCITEGIC>MOL_PROPERTY
Idih
SciTegic.value.DoubleValue
0.000

@<SCITEGIC>MOL_PROPERTY
Tether
SciTegic.value.DoubleValue
0.000

@<TRIPOS>MOLECULE
guest-2_confgen4.mol2 : confsearch ligand conformer 297
          23          22           1
SMALL
USER_CHARGES
 
@<TRIPOS>ATOM
       1    N1      19.639824   17.274721   20.006439 N.4        1 MOL1        -0.5940
       2    H1      19.518054   17.689825   19.077090 H          1 MOL1         0.3649
       3    H2      19.115592   16.393149   20.009626 H          1 MOL1         0.3649
       4    H3      20.631357   17.032317   20.100566 H          1 MOL1         0.3649
       5    C1      19.178646   18.208268   21.107099 C.3        1 MOL1         0.0207
       6    H4      19.303267   17.688681   22.058855 H          1 MOL1         0.0950
       7    H5      18.112176   18.399475   20.960535 H          1 MOL1         0.0950
       8    C2      19.944582   19.545758   21.122852 C.3        1 MOL1        -0.1415
       9    H6      21.023466   19.367251   21.222892 H          1 MOL1         0.0976
      10    H7      19.799922   20.032198   20.148959 H          1 MOL1         0.0976
      11    C3      19.458977   20.511751   22.233036 C.3        1 MOL1        -0.1375
      12    H8      18.368811   20.435148   22.348245 H          1 MOL1         0.0976
      13    H9      19.650394   21.540661   21.898071 H          1 MOL1         0.0976
      14    C4      20.154307   20.331324   23.607603 C.3        1 MOL1        -0.1375
      15    H10     21.232419   20.513489   23.499057 H          1 MOL1         0.0976
      16    H11     19.780593   21.112165   24.284409 H          1 MOL1         0.0976
      17    C5      19.931560   18.950135   24.265785 C.3        1 MOL1        -0.1350
      18    H12     20.436565   18.171081   23.680158 H          1 MOL1         0.0976
      19    H13     18.859520   18.708621   24.274670 H          1 MOL1         0.0976
      20    C6      20.476580   18.913041   25.709481 C.3        1 MOL1        -0.2365
      21    H14     19.969425   19.652562   26.342819 H          1 MOL1         0.0987
      22    H15     21.553359   19.126032   25.730257 H          1 MOL1         0.0987
      23    H16     20.320242   17.923134   26.157446 H          1 MOL1         0.0987
@<TRIPOS>BOND
    1     1     2    1
    2     1     3    1
    3     1     4    1
    4     1     5    1
    5     5     6    1
    6     5     7    1
    7     5     8    1
    8     8     9    1
    9     8    10    1
   10     8    11    1
   11    11    12    1
   12    11    13    1
   13    11    14    1
   14    14    15    1
   15    14    16    1
   16    14    17    1
   17    17    18    1
   18    17    19    1
   19    17    20    1
   20    20    21    1
   21    20    22    1
   22    20    23    1
@<TRIPOS>SUBSTRUCTURE
       1 MOL1            1 RESIDUE      1      MOL     
@<SCITEGIC>MOL_PROPERTY
VConf Rank
SciTegic.value.IntegerValue
297

@<SCITEGIC>MOL_PROPERTY
Conf_Id
SciTegic.value.IntegerValue
93

@<SCITEGIC>MOL_PROPERTY
Delta U+W
SciTegic.value.DoubleValue
2.589

@<SCITEGIC>MOL_PROPERTY
U+W
SciTegic.value.DoubleValue
-5.793

@<SCITEGIC>MOL_PROPERTY
Grad RMS
SciTegic.value.DoubleValue
0.000000

@<SCITEGIC>MOL_PROPERTY
U
SciTegic.value.DoubleValue
50.122

@<SCITEGIC>MOL_PROPERTY
W
SciTegic.value.DoubleValue
-55.915

@<SCITEGIC>MOL_PROPERTY
W(PB)
SciTegic.value.DoubleValue
-58.031

@<SCITEGIC>MOL_PROPERTY
W(SA)
SciTegic.value.DoubleValue
2.115

@<SCITEGIC>MOL_PROPERTY
Valence
SciTegic.value.DoubleValue
4.132

@<SCITEGIC>MOL_PROPERTY
Coulomb
SciTegic.value.DoubleValue
45.536

@<SCITEGIC>MOL_PROPERTY
VdW
SciTegic.value.DoubleValue
0.454

@<SCITEGIC>MOL_PROPERTY
VdW6
SciTegic.value.DoubleValue
-6.262

@<SCITEGIC>MOL_PROPERTY
VdW12
SciTegic.value.DoubleValue
6.715

@<SCITEGIC>MOL_PROPERTY
Bond
SciTegic.value.DoubleValue
0.182

@<SCITEGIC>MOL_PROPERTY
Angle
SciTegic.value.DoubleValue
1.157

@<SCITEGIC>MOL_PROPERTY
Pdih
SciTegic.value.DoubleValue
2.794

@<SCITEGIC>MOL_PROPERTY
Idih
SciTegic.value.DoubleValue
0.000

@<SCITEGIC>MOL_PROPERTY
Tether
SciTegic.value.DoubleValue
0.000

@<TRIPOS>MOLECULE
guest-2_confgen4.mol2 : confsearch ligand conformer 298
          23          22           1
SMALL
USER_CHARGES
 
@<TRIPOS>ATOM
       1    N1      19.992795   16.374547   24.339593 N.4        1 MOL1        -0.5940
       2    H1      20.721620   16.035914   23.703278 H          1 MOL1         0.3649
       3    H2      19.251493   15.665748   24.348297 H          1 MOL1         0.3649
       4    H3      20.398777   16.391916   25.280712 H          1 MOL1         0.3649
       5    C1      19.467360   17.734058   23.925717 C.3        1 MOL1         0.0207
       6    H4      18.678478   18.017289   24.627745 H          1 MOL1         0.0950
       7    H5      19.020308   17.631248   22.935305 H          1 MOL1         0.0950
       8    C2      20.558628   18.822490   23.910318 C.3        1 MOL1        -0.1415
       9    H6      20.986436   18.889700   24.919517 H          1 MOL1         0.0976
      10    H7      21.380964   18.529894   23.243974 H          1 MOL1         0.0976
      11    C3      20.019266   20.218973   23.509836 C.3        1 MOL1        -0.1375
      12    H8      20.657994   20.979432   23.980183 H          1 MOL1         0.0976
      13    H9      19.016501   20.370709   23.932971 H          1 MOL1         0.0976
      14    C4      20.002760   20.501449   21.984906 C.3        1 MOL1        -0.1375
      15    H10     19.671161   21.538018   21.833226 H          1 MOL1         0.0976
      16    H11     21.027554   20.449448   21.591987 H          1 MOL1         0.0976
      17    C5      19.091088   19.559461   21.165141 C.3        1 MOL1        -0.1350
      18    H12     18.091752   19.516700   21.620306 H          1 MOL1         0.0976
      19    H13     19.498931   18.540427   21.177362 H          1 MOL1         0.0976
      20    C6      18.965936   20.023012   19.698124 C.3        1 MOL1        -0.2365
      21    H14     18.324895   19.337735   19.128483 H          1 MOL1         0.0987
      22    H15     19.947984   20.051357   19.208198 H          1 MOL1         0.0987
      23    H16     18.524015   21.026076   19.636622 H          1 MOL1         0.0987
@<TRIPOS>BOND
    1     1     2    1
    2     1     3    1
    3     1     4    1
    4     1     5    1
    5     5     6    1
    6     5     7    1
    7     5     8    1
    8     8     9    1
    9     8    10    1
   10     8    11    1
   11    11    12    1
   12    11    13    1
   13    11    14    1
   14    14    15    1
   15    14    16    1
   16    14    17    1
   17    17    18    1
   18    17    19    1
   19    17    20    1
   20    20    21    1
   21    20    22    1
   22    20    23    1
@<TRIPOS>SUBSTRUCTURE
       1 MOL1            1 RESIDUE      1      MOL     
@<SCITEGIC>MOL_PROPERTY
VConf Rank
SciTegic.value.IntegerValue
298

@<SCITEGIC>MOL_PROPERTY
Conf_Id
SciTegic.value.IntegerValue
70

@<SCITEGIC>MOL_PROPERTY
Delta U+W
SciTegic.value.DoubleValue
2.599

@<SCITEGIC>MOL_PROPERTY
U+W
SciTegic.value.DoubleValue
-5.783

@<SCITEGIC>MOL_PROPERTY
Grad RMS
SciTegic.value.DoubleValue
0.000000

@<SCITEGIC>MOL_PROPERTY
U
SciTegic.value.DoubleValue
50.122

@<SCITEGIC>MOL_PROPERTY
W
SciTegic.value.DoubleValue
-55.906

@<SCITEGIC>MOL_PROPERTY
W(PB)
SciTegic.value.DoubleValue
-58.010

@<SCITEGIC>MOL_PROPERTY
W(SA)
SciTegic.value.DoubleValue
2.105

@<SCITEGIC>MOL_PROPERTY
Valence
SciTegic.value.DoubleValue
4.132

@<SCITEGIC>MOL_PROPERTY
Coulomb
SciTegic.value.DoubleValue
45.536

@<SCITEGIC>MOL_PROPERTY
VdW
SciTegic.value.DoubleValue
0.454

@<SCITEGIC>MOL_PROPERTY
VdW6
SciTegic.value.DoubleValue
-6.262

@<SCITEGIC>MOL_PROPERTY
VdW12
SciTegic.value.DoubleValue
6.715

@<SCITEGIC>MOL_PROPERTY
Bond
SciTegic.value.DoubleValue
0.182

@<SCITEGIC>MOL_PROPERTY
Angle
SciTegic.value.DoubleValue
1.157

@<SCITEGIC>MOL_PROPERTY
Pdih
SciTegic.value.DoubleValue
2.794

@<SCITEGIC>MOL_PROPERTY
Idih
SciTegic.value.DoubleValue
0.000

@<SCITEGIC>MOL_PROPERTY
Tether
SciTegic.value.DoubleValue
0.000

@<TRIPOS>MOLECULE
guest-2_confgen4.mol2 : confsearch ligand conformer 299
          23          22           1
SMALL
USER_CHARGES
 
@<TRIPOS>ATOM
       1    N1      19.828327   21.425856   24.044675 N.4        1 MOL1        -0.5940
       2    H1      20.565520   22.135227   23.982662 H          1 MOL1         0.3649
       3    H2      19.246631   21.668645   24.853654 H          1 MOL1         0.3649
       4    H3      19.241527   21.525215   23.210853 H          1 MOL1         0.3649
       5    C1      20.401587   20.027326   24.161822 C.3        1 MOL1         0.0207
       6    H4      19.568792   19.325749   24.257677 H          1 MOL1         0.0950
       7    H5      20.989516   19.984382   25.082686 H          1 MOL1         0.0950
       8    C2      21.289030   19.621284   22.967939 C.3        1 MOL1        -0.1415
       9    H6      22.140386   20.311656   22.902397 H          1 MOL1         0.0976
      10    H7      21.721134   18.632500   23.167957 H          1 MOL1         0.0976
      11    C3      20.544049   19.600195   21.607217 C.3        1 MOL1        -0.1375
      12    H8      21.240810   19.262949   20.827478 H          1 MOL1         0.0976
      13    H9      20.264818   20.625972   21.331456 H          1 MOL1         0.0976
      14    C4      19.275152   18.709465   21.571180 C.3        1 MOL1        -0.1375
      15    H10     18.527370   19.089639   22.279828 H          1 MOL1         0.0976
      16    H11     18.819383   18.796460   20.575166 H          1 MOL1         0.0976
      17    C5      19.559011   17.217399   21.864535 C.3        1 MOL1        -0.1350
      18    H12     19.949796   17.099393   22.883996 H          1 MOL1         0.0976
      19    H13     20.334891   16.845933   21.180622 H          1 MOL1         0.0976
      20    C6      18.287532   16.355583   21.712893 C.3        1 MOL1        -0.2365
      21    H14     18.506069   15.301320   21.926872 H          1 MOL1         0.0987
      22    H15     17.888579   16.416045   20.691926 H          1 MOL1         0.0987
      23    H16     17.502903   16.684561   22.406675 H          1 MOL1         0.0987
@<TRIPOS>BOND
    1     1     2    1
    2     1     3    1
    3     1     4    1
    4     1     5    1
    5     5     6    1
    6     5     7    1
    7     5     8    1
    8     8     9    1
    9     8    10    1
   10     8    11    1
   11    11    12    1
   12    11    13    1
   13    11    14    1
   14    14    15    1
   15    14    16    1
   16    14    17    1
   17    17    18    1
   18    17    19    1
   19    17    20    1
   20    20    21    1
   21    20    22    1
   22    20    23    1
@<TRIPOS>SUBSTRUCTURE
       1 MOL1            1 RESIDUE      1      MOL     
@<SCITEGIC>MOL_PROPERTY
VConf Rank
SciTegic.value.IntegerValue
299

@<SCITEGIC>MOL_PROPERTY
Conf_Id
SciTegic.value.IntegerValue
72

@<SCITEGIC>MOL_PROPERTY
Delta U+W
SciTegic.value.DoubleValue
1.051

@<SCITEGIC>MOL_PROPERTY
U+W
SciTegic.value.DoubleValue
-7.331

@<SCITEGIC>MOL_PROPERTY
Grad RMS
SciTegic.value.DoubleValue
0.000000

@<SCITEGIC>MOL_PROPERTY
U
SciTegic.value.DoubleValue
48.590

@<SCITEGIC>MOL_PROPERTY
W
SciTegic.value.DoubleValue
-55.922

@<SCITEGIC>MOL_PROPERTY
W(PB)
SciTegic.value.DoubleValue
-58.012

@<SCITEGIC>MOL_PROPERTY
W(SA)
SciTegic.value.DoubleValue
2.090

@<SCITEGIC>MOL_PROPERTY
Valence
SciTegic.value.DoubleValue
2.601

@<SCITEGIC>MOL_PROPERTY
Coulomb
SciTegic.value.DoubleValue
45.520

@<SCITEGIC>MOL_PROPERTY
VdW
SciTegic.value.DoubleValue
0.469

@<SCITEGIC>MOL_PROPERTY
VdW6
SciTegic.value.DoubleValue
-6.867

@<SCITEGIC>MOL_PROPERTY
VdW12
SciTegic.value.DoubleValue
7.336

@<SCITEGIC>MOL_PROPERTY
Bond
SciTegic.value.DoubleValue
0.205

@<SCITEGIC>MOL_PROPERTY
Angle
SciTegic.value.DoubleValue
0.962

@<SCITEGIC>MOL_PROPERTY
Pdih
SciTegic.value.DoubleValue
1.434

@<SCITEGIC>MOL_PROPERTY
Idih
SciTegic.value.DoubleValue
0.000

@<SCITEGIC>MOL_PROPERTY
Tether
SciTegic.value.DoubleValue
0.000

@<TRIPOS>MOLECULE
guest-2_confgen4.mol2 : confsearch ligand conformer 300
          23          22           1
SMALL
USER_CHARGES
 
@<TRIPOS>ATOM
       1    N1      22.085088   21.051702   22.478727 N.4        1 MOL1        -0.5940
       2    H1      22.955394   21.032968   21.936350 H          1 MOL1         0.3649
       3    H2      22.295808   21.525076   23.363203 H          1 MOL1         0.3649
       4    H3      21.427412   21.648228   21.966594 H          1 MOL1         0.3649
       5    C1      21.530604   19.659356   22.701344 C.3        1 MOL1         0.0207
       6    H4      22.290624   19.072379   23.224008 H          1 MOL1         0.0950
       7    H5      21.358630   19.205662   21.721792 H          1 MOL1         0.0950
       8    C2      20.222120   19.652921   23.513530 C.3        1 MOL1        -0.1415
       9    H6      20.396749   20.144055   24.479977 H          1 MOL1         0.0976
      10    H7      19.462349   20.252582   22.996241 H          1 MOL1         0.0976
      11    C3      19.684536   18.223023   23.769376 C.3        1 MOL1        -0.1375
      12    H8      18.766970   18.286463   24.369374 H          1 MOL1         0.0976
      13    H9      20.407799   17.678332   24.391882 H          1 MOL1         0.0976
      14    C4      19.409812   17.391182   22.487453 C.3        1 MOL1        -0.1375
      15    H10     20.359168   17.188076   21.973863 H          1 MOL1         0.0976
      16    H11     19.019455   16.408080   22.784611 H          1 MOL1         0.0976
      17    C5      18.423635   18.036905   21.481115 C.3        1 MOL1        -0.1350
      18    H12     18.318685   17.367970   20.615550 H          1 MOL1         0.0976
      19    H13     18.841104   18.973518   21.087933 H          1 MOL1         0.0976
      20    C6      17.022913   18.300168   22.078764 C.3        1 MOL1        -0.2365
      21    H14     16.590195   17.379013   22.490065 H          1 MOL1         0.0987
      22    H15     16.339705   18.676523   21.306477 H          1 MOL1         0.0987
      23    H16     17.061408   19.049161   22.879442 H          1 MOL1         0.0987
@<TRIPOS>BOND
    1     1     2    1
    2     1     3    1
    3     1     4    1
    4     1     5    1
    5     5     6    1
    6     5     7    1
    7     5     8    1
    8     8     9    1
    9     8    10    1
   10     8    11    1
   11    11    12    1
   12    11    13    1
   13    11    14    1
   14    14    15    1
   15    14    16    1
   16    14    17    1
   17    17    18    1
   18    17    19    1
   19    17    20    1
   20    20    21    1
   21    20    22    1
   22    20    23    1
@<TRIPOS>SUBSTRUCTURE
       1 MOL1            1 RESIDUE      1      MOL     
@<SCITEGIC>MOL_PROPERTY
VConf Rank
SciTegic.value.IntegerValue
300

@<SCITEGIC>MOL_PROPERTY
Conf_Id
SciTegic.value.IntegerValue
26

@<SCITEGIC>MOL_PROPERTY
Delta U+W
SciTegic.value.DoubleValue
1.076

@<SCITEGIC>MOL_PROPERTY
U+W
SciTegic.value.DoubleValue
-7.306

@<SCITEGIC>MOL_PROPERTY
Grad RMS
SciTegic.value.DoubleValue
0.000000

@<SCITEGIC>MOL_PROPERTY
U
SciTegic.value.DoubleValue
48.641

@<SCITEGIC>MOL_PROPERTY
W
SciTegic.value.DoubleValue
-55.947

@<SCITEGIC>MOL_PROPERTY
W(PB)
SciTegic.value.DoubleValue
-58.031

@<SCITEGIC>MOL_PROPERTY
W(SA)
SciTegic.value.DoubleValue
2.084

@<SCITEGIC>MOL_PROPERTY
Valence
SciTegic.value.DoubleValue
2.922

@<SCITEGIC>MOL_PROPERTY
Coulomb
SciTegic.value.DoubleValue
45.269

@<SCITEGIC>MOL_PROPERTY
VdW
SciTegic.value.DoubleValue
0.449

@<SCITEGIC>MOL_PROPERTY
VdW6
SciTegic.value.DoubleValue
-7.045

@<SCITEGIC>MOL_PROPERTY
VdW12
SciTegic.value.DoubleValue
7.494

@<SCITEGIC>MOL_PROPERTY
Bond
SciTegic.value.DoubleValue
0.220

@<SCITEGIC>MOL_PROPERTY
Angle
SciTegic.value.DoubleValue
1.205

@<SCITEGIC>MOL_PROPERTY
Pdih
SciTegic.value.DoubleValue
1.497

@<SCITEGIC>MOL_PROPERTY
Idih
SciTegic.value.DoubleValue
0.000

@<SCITEGIC>MOL_PROPERTY
Tether
SciTegic.value.DoubleValue
0.000

@<TRIPOS>MOLECULE
guest-2_confgen4.mol2 : confsearch ligand conformer 301
          23          22           1
SMALL
USER_CHARGES
 
@<TRIPOS>ATOM
       1    N1      21.936640   21.224151   22.036474 N.4        1 MOL1        -0.5940
       2    H1      22.364375   21.643259   22.868444 H          1 MOL1         0.3649
       3    H2      21.958858   21.936818   21.299202 H          1 MOL1         0.3649
       4    H3      22.551067   20.461910   21.732944 H          1 MOL1         0.3649
       5    C1      20.527009   20.740125   22.309045 C.3        1 MOL1         0.0207
       6    H4      20.124555   20.335591   21.376674 H          1 MOL1         0.0950
       7    H5      19.922928   21.604192   22.598568 H          1 MOL1         0.0950
       8    C2      20.459237   19.667784   23.412362 C.3        1 MOL1        -0.1415
       9    H6      21.075750   18.805294   23.128717 H          1 MOL1         0.0976
      10    H7      20.899747   20.071737   24.333503 H          1 MOL1         0.0976
      11    C3      19.010552   19.208125   23.710840 C.3        1 MOL1        -0.1375
      12    H8      18.442756   20.060706   24.108363 H          1 MOL1         0.0976
      13    H9      19.029226   18.463488   24.517759 H          1 MOL1         0.0976
      14    C4      18.245563   18.630579   22.489369 C.3        1 MOL1        -0.1375
      15    H10     17.242704   18.323853   22.817029 H          1 MOL1         0.0976
      16    H11     18.083231   19.426990   21.750668 H          1 MOL1         0.0976
      17    C5      18.931443   17.429834   21.789369 C.3        1 MOL1        -0.1350
      18    H12     19.893413   17.739585   21.359500 H          1 MOL1         0.0976
      19    H13     18.308872   17.117964   20.939172 H          1 MOL1         0.0976
      20    C6      19.143325   16.215959   22.722178 C.3        1 MOL1        -0.2365
      21    H14     19.848512   16.447612   23.530019 H          1 MOL1         0.0987
      22    H15     19.551587   15.365842   22.160516 H          1 MOL1         0.0987
      23    H16     18.195625   15.895865   23.174223 H          1 MOL1         0.0987
@<TRIPOS>BOND
    1     1     2    1
    2     1     3    1
    3     1     4    1
    4     1     5    1
    5     5     6    1
    6     5     7    1
    7     5     8    1
    8     8     9    1
    9     8    10    1
   10     8    11    1
   11    11    12    1
   12    11    13    1
   13    11    14    1
   14    14    15    1
   15    14    16    1
   16    14    17    1
   17    17    18    1
   18    17    19    1
   19    17    20    1
   20    20    21    1
   21    20    22    1
   22    20    23    1
@<TRIPOS>SUBSTRUCTURE
       1 MOL1            1 RESIDUE      1      MOL     
@<SCITEGIC>MOL_PROPERTY
VConf Rank
SciTegic.value.IntegerValue
301

@<SCITEGIC>MOL_PROPERTY
Conf_Id
SciTegic.value.IntegerValue
90

@<SCITEGIC>MOL_PROPERTY
Delta U+W
SciTegic.value.DoubleValue
1.131

@<SCITEGIC>MOL_PROPERTY
U+W
SciTegic.value.DoubleValue
-7.251

@<SCITEGIC>MOL_PROPERTY
Grad RMS
SciTegic.value.DoubleValue
0.000000

@<SCITEGIC>MOL_PROPERTY
U
SciTegic.value.DoubleValue
48.641

@<SCITEGIC>MOL_PROPERTY
W
SciTegic.value.DoubleValue
-55.892

@<SCITEGIC>MOL_PROPERTY
W(PB)
SciTegic.value.DoubleValue
-57.962

@<SCITEGIC>MOL_PROPERTY
W(SA)
SciTegic.value.DoubleValue
2.070

@<SCITEGIC>MOL_PROPERTY
Valence
SciTegic.value.DoubleValue
2.922

@<SCITEGIC>MOL_PROPERTY
Coulomb
SciTegic.value.DoubleValue
45.269

@<SCITEGIC>MOL_PROPERTY
VdW
SciTegic.value.DoubleValue
0.450

@<SCITEGIC>MOL_PROPERTY
VdW6
SciTegic.value.DoubleValue
-7.045

@<SCITEGIC>MOL_PROPERTY
VdW12
SciTegic.value.DoubleValue
7.495

@<SCITEGIC>MOL_PROPERTY
Bond
SciTegic.value.DoubleValue
0.220

@<SCITEGIC>MOL_PROPERTY
Angle
SciTegic.value.DoubleValue
1.205

@<SCITEGIC>MOL_PROPERTY
Pdih
SciTegic.value.DoubleValue
1.497

@<SCITEGIC>MOL_PROPERTY
Idih
SciTegic.value.DoubleValue
0.000

@<SCITEGIC>MOL_PROPERTY
Tether
SciTegic.value.DoubleValue
0.000

@<TRIPOS>MOLECULE
guest-2_confgen4.mol2 : confsearch ligand conformer 302
          23          22           1
SMALL
USER_CHARGES
 
@<TRIPOS>ATOM
       1    N1      20.735676   16.527423   22.042489 N.4        1 MOL1        -0.5940
       2    H1      21.609577   16.131368   21.680151 H          1 MOL1         0.3649
       3    H2      20.418349   17.227325   21.364946 H          1 MOL1         0.3649
       4    H3      20.043327   15.771634   22.045402 H          1 MOL1         0.3649
       5    C1      20.918944   17.128180   23.422307 C.3        1 MOL1         0.0207
       6    H4      21.688120   17.901899   23.355642 H          1 MOL1         0.0950
       7    H5      21.288562   16.339007   24.082691 H          1 MOL1         0.0950
       8    C2      19.626665   17.727085   24.014099 C.3        1 MOL1        -0.1415
       9    H6      18.877332   16.931485   24.120453 H          1 MOL1         0.0976
      10    H7      19.838034   18.085674   25.030259 H          1 MOL1         0.0976
      11    C3      19.028788   18.885846   23.177202 C.3        1 MOL1        -0.1375
      12    H8      18.109150   19.233470   23.667645 H          1 MOL1         0.0976
      13    H9      18.726125   18.507876   22.192500 H          1 MOL1         0.0976
      14    C4      20.001083   20.081593   23.015018 C.3        1 MOL1        -0.1375
      15    H10     20.358339   20.389951   24.007263 H          1 MOL1         0.0976
      16    H11     20.889655   19.773453   22.448077 H          1 MOL1         0.0976
      17    C5      19.356968   21.306420   22.321977 C.3        1 MOL1        -0.1350
      18    H12     20.072738   22.140141   22.342438 H          1 MOL1         0.0976
      19    H13     18.480573   21.640086   22.895021 H          1 MOL1         0.0976
      20    C6      18.948020   21.036867   20.855948 C.3        1 MOL1        -0.2365
      21    H14     19.801700   20.676431   20.267515 H          1 MOL1         0.0987
      22    H15     18.580852   21.957630   20.384441 H          1 MOL1         0.0987
      23    H16     18.145668   20.291560   20.791463 H          1 MOL1         0.0987
@<TRIPOS>BOND
    1     1     2    1
    2     1     3    1
    3     1     4    1
    4     1     5    1
    5     5     6    1
    6     5     7    1
    7     5     8    1
    8     8     9    1
    9     8    10    1
   10     8    11    1
   11    11    12    1
   12    11    13    1
   13    11    14    1
   14    14    15    1
   15    14    16    1
   16    14    17    1
   17    17    18    1
   18    17    19    1
   19    17    20    1
   20    20    21    1
   21    20    22    1
   22    20    23    1
@<TRIPOS>SUBSTRUCTURE
       1 MOL1            1 RESIDUE      1      MOL     
@<SCITEGIC>MOL_PROPERTY
VConf Rank
SciTegic.value.IntegerValue
302

@<SCITEGIC>MOL_PROPERTY
Conf_Id
SciTegic.value.IntegerValue
85

@<SCITEGIC>MOL_PROPERTY
Delta U+W
SciTegic.value.DoubleValue
1.193

@<SCITEGIC>MOL_PROPERTY
U+W
SciTegic.value.DoubleValue
-7.189

@<SCITEGIC>MOL_PROPERTY
Grad RMS
SciTegic.value.DoubleValue
0.000000

@<SCITEGIC>MOL_PROPERTY
U
SciTegic.value.DoubleValue
48.775

@<SCITEGIC>MOL_PROPERTY
W
SciTegic.value.DoubleValue
-55.965

@<SCITEGIC>MOL_PROPERTY
W(PB)
SciTegic.value.DoubleValue
-58.038

@<SCITEGIC>MOL_PROPERTY
W(SA)
SciTegic.value.DoubleValue
2.073

@<SCITEGIC>MOL_PROPERTY
Valence
SciTegic.value.DoubleValue
2.602

@<SCITEGIC>MOL_PROPERTY
Coulomb
SciTegic.value.DoubleValue
45.581

@<SCITEGIC>MOL_PROPERTY
VdW
SciTegic.value.DoubleValue
0.592

@<SCITEGIC>MOL_PROPERTY
VdW6
SciTegic.value.DoubleValue
-6.616

@<SCITEGIC>MOL_PROPERTY
VdW12
SciTegic.value.DoubleValue
7.208

@<SCITEGIC>MOL_PROPERTY
Bond
SciTegic.value.DoubleValue
0.196

@<SCITEGIC>MOL_PROPERTY
Angle
SciTegic.value.DoubleValue
0.832

@<SCITEGIC>MOL_PROPERTY
Pdih
SciTegic.value.DoubleValue
1.574

@<SCITEGIC>MOL_PROPERTY
Idih
SciTegic.value.DoubleValue
0.000

@<SCITEGIC>MOL_PROPERTY
Tether
SciTegic.value.DoubleValue
0.000

@<TRIPOS>MOLECULE
guest-2_confgen4.mol2 : confsearch ligand conformer 303
          23          22           1
SMALL
USER_CHARGES
 
@<TRIPOS>ATOM
       1    N1      19.219796   19.142394   24.549932 N.4        1 MOL1        -0.5940
       2    H1      18.704804   19.037139   23.669946 H          1 MOL1         0.3649
       3    H2      18.781044   19.907810   25.073324 H          1 MOL1         0.3649
       4    H3      19.073589   18.286113   25.094377 H          1 MOL1         0.3649
       5    C1      20.692544   19.403248   24.299674 C.3        1 MOL1         0.0207
       6    H4      21.170180   19.501608   25.278295 H          1 MOL1         0.0950
       7    H5      20.795227   20.356735   23.774844 H          1 MOL1         0.0950
       8    C2      21.400695   18.287962   23.503823 C.3        1 MOL1        -0.1415
       9    H6      22.475772   18.357421   23.716483 H          1 MOL1         0.0976
      10    H7      21.085002   17.305833   23.880162 H          1 MOL1         0.0976
      11    C3      21.217247   18.354528   21.963684 C.3        1 MOL1        -0.1375
      12    H8      21.814907   17.542633   21.526496 H          1 MOL1         0.0976
      13    H9      21.655188   19.283809   21.573665 H          1 MOL1         0.0976
      14    C4      19.758481   18.200004   21.462302 C.3        1 MOL1        -0.1375
      15    H10     19.771612   17.635607   20.519422 H          1 MOL1         0.0976
      16    H11     19.178880   17.586982   22.165149 H          1 MOL1         0.0976
      17    C5      19.059134   19.555172   21.194843 C.3        1 MOL1        -0.1350
      18    H12     19.569261   20.068818   20.367756 H          1 MOL1         0.0976
      19    H13     19.143431   20.221484   22.061561 H          1 MOL1         0.0976
      20    C6      17.570464   19.367604   20.833589 C.3        1 MOL1        -0.2365
      21    H14     17.458653   18.746536   19.935178 H          1 MOL1         0.0987
      22    H15     17.095400   20.336740   20.632920 H          1 MOL1         0.0987
      23    H16     17.019495   18.885658   21.651468 H          1 MOL1         0.0987
@<TRIPOS>BOND
    1     1     2    1
    2     1     3    1
    3     1     4    1
    4     1     5    1
    5     5     6    1
    6     5     7    1
    7     5     8    1
    8     8     9    1
    9     8    10    1
   10     8    11    1
   11    11    12    1
   12    11    13    1
   13    11    14    1
   14    14    15    1
   15    14    16    1
   16    14    17    1
   17    17    18    1
   18    17    19    1
   19    17    20    1
   20    20    21    1
   21    20    22    1
   22    20    23    1
@<TRIPOS>SUBSTRUCTURE
       1 MOL1            1 RESIDUE      1      MOL     
@<SCITEGIC>MOL_PROPERTY
VConf Rank
SciTegic.value.IntegerValue
303

@<SCITEGIC>MOL_PROPERTY
Conf_Id
SciTegic.value.IntegerValue
82

@<SCITEGIC>MOL_PROPERTY
Delta U+W
SciTegic.value.DoubleValue
5.994

@<SCITEGIC>MOL_PROPERTY
U+W
SciTegic.value.DoubleValue
-2.388

@<SCITEGIC>MOL_PROPERTY
Grad RMS
SciTegic.value.DoubleValue
0.000000

@<SCITEGIC>MOL_PROPERTY
U
SciTegic.value.DoubleValue
52.836

@<SCITEGIC>MOL_PROPERTY
W
SciTegic.value.DoubleValue
-55.224

@<SCITEGIC>MOL_PROPERTY
W(PB)
SciTegic.value.DoubleValue
-57.261

@<SCITEGIC>MOL_PROPERTY
W(SA)
SciTegic.value.DoubleValue
2.037

@<SCITEGIC>MOL_PROPERTY
Valence
SciTegic.value.DoubleValue
5.785

@<SCITEGIC>MOL_PROPERTY
Coulomb
SciTegic.value.DoubleValue
46.744

@<SCITEGIC>MOL_PROPERTY
VdW
SciTegic.value.DoubleValue
0.307

@<SCITEGIC>MOL_PROPERTY
VdW6
SciTegic.value.DoubleValue
-7.672

@<SCITEGIC>MOL_PROPERTY
VdW12
SciTegic.value.DoubleValue
7.979

@<SCITEGIC>MOL_PROPERTY
Bond
SciTegic.value.DoubleValue
0.217

@<SCITEGIC>MOL_PROPERTY
Angle
SciTegic.value.DoubleValue
1.470

@<SCITEGIC>MOL_PROPERTY
Pdih
SciTegic.value.DoubleValue
4.098

@<SCITEGIC>MOL_PROPERTY
Idih
SciTegic.value.DoubleValue
0.000

@<SCITEGIC>MOL_PROPERTY
Tether
SciTegic.value.DoubleValue
0.000

@<TRIPOS>MOLECULE
guest-2_confgen4.mol2 : confsearch ligand conformer 304
          23          22           1
SMALL
USER_CHARGES
 
@<TRIPOS>ATOM
       1    N1      19.529079   20.749936   23.591186 N.4        1 MOL1        -0.5940
       2    H1      18.615092   20.869462   24.039913 H          1 MOL1         0.3649
       3    H2      20.165682   21.427466   24.024765 H          1 MOL1         0.3649
       4    H3      19.867703   19.812779   23.831490 H          1 MOL1         0.3649
       5    C1      19.445090   20.937941   22.088769 C.3        1 MOL1         0.0207
       6    H4      20.452175   20.865068   21.669727 H          1 MOL1         0.0950
       7    H5      19.077647   21.952812   21.914032 H          1 MOL1         0.0950
       8    C2      18.509707   19.935440   21.382534 C.3        1 MOL1        -0.1415
       9    H6      17.584385   19.819485   21.962367 H          1 MOL1         0.0976
      10    H7      18.207752   20.378845   20.424383 H          1 MOL1         0.0976
      11    C3      19.132351   18.544673   21.085555 C.3        1 MOL1        -0.1375
      12    H8      19.981076   18.653253   20.396102 H          1 MOL1         0.0976
      13    H9      18.381643   17.959350   20.536611 H          1 MOL1         0.0976
      14    C4      19.558543   17.728850   22.332975 C.3        1 MOL1        -0.1375
      15    H10     18.929929   17.994999   23.193053 H          1 MOL1         0.0976
      16    H11     19.359232   16.665610   22.139241 H          1 MOL1         0.0976
      17    C5      21.061826   17.875900   22.673004 C.3        1 MOL1        -0.1350
      18    H12     21.351866   18.931531   22.734672 H          1 MOL1         0.0976
      19    H13     21.661063   17.444703   21.858683 H          1 MOL1         0.0976
      20    C6      21.419703   17.166400   23.996016 C.3        1 MOL1        -0.2365
      21    H14     20.863391   17.593338   24.840414 H          1 MOL1         0.0987
      22    H15     22.491057   17.268294   24.212805 H          1 MOL1         0.0987
      23    H16     21.188448   16.094455   23.942888 H          1 MOL1         0.0987
@<TRIPOS>BOND
    1     1     2    1
    2     1     3    1
    3     1     4    1
    4     1     5    1
    5     5     6    1
    6     5     7    1
    7     5     8    1
    8     8     9    1
    9     8    10    1
   10     8    11    1
   11    11    12    1
   12    11    13    1
   13    11    14    1
   14    14    15    1
   15    14    16    1
   16    14    17    1
   17    17    18    1
   18    17    19    1
   19    17    20    1
   20    20    21    1
   21    20    22    1
   22    20    23    1
@<TRIPOS>SUBSTRUCTURE
       1 MOL1            1 RESIDUE      1      MOL     
@<SCITEGIC>MOL_PROPERTY
VConf Rank
SciTegic.value.IntegerValue
304

@<SCITEGIC>MOL_PROPERTY
Conf_Id
SciTegic.value.IntegerValue
5

@<SCITEGIC>MOL_PROPERTY
Delta U+W
SciTegic.value.DoubleValue
6.087

@<SCITEGIC>MOL_PROPERTY
U+W
SciTegic.value.DoubleValue
-2.295

@<SCITEGIC>MOL_PROPERTY
Grad RMS
SciTegic.value.DoubleValue
0.000000

@<SCITEGIC>MOL_PROPERTY
U
SciTegic.value.DoubleValue
52.836

@<SCITEGIC>MOL_PROPERTY
W
SciTegic.value.DoubleValue
-55.131

@<SCITEGIC>MOL_PROPERTY
W(PB)
SciTegic.value.DoubleValue
-57.202

@<SCITEGIC>MOL_PROPERTY
W(SA)
SciTegic.value.DoubleValue
2.071

@<SCITEGIC>MOL_PROPERTY
Valence
SciTegic.value.DoubleValue
5.785

@<SCITEGIC>MOL_PROPERTY
Coulomb
SciTegic.value.DoubleValue
46.744

@<SCITEGIC>MOL_PROPERTY
VdW
SciTegic.value.DoubleValue
0.307

@<SCITEGIC>MOL_PROPERTY
VdW6
SciTegic.value.DoubleValue
-7.672

@<SCITEGIC>MOL_PROPERTY
VdW12
SciTegic.value.DoubleValue
7.980

@<SCITEGIC>MOL_PROPERTY
Bond
SciTegic.value.DoubleValue
0.217

@<SCITEGIC>MOL_PROPERTY
Angle
SciTegic.value.DoubleValue
1.470

@<SCITEGIC>MOL_PROPERTY
Pdih
SciTegic.value.DoubleValue
4.098

@<SCITEGIC>MOL_PROPERTY
Idih
SciTegic.value.DoubleValue
0.000

@<SCITEGIC>MOL_PROPERTY
Tether
SciTegic.value.DoubleValue
0.000

@<TRIPOS>MOLECULE
guest-2_confgen4.mol2 : confsearch ligand conformer 305
          23          22           1
SMALL
USER_CHARGES
 
@<TRIPOS>ATOM
       1    N1      16.881997   21.181457   21.299539 N.4        1 MOL1        -0.5940
       2    H1      17.101803   21.079333   20.303477 H          1 MOL1         0.3649
       3    H2      16.489604   22.121052   21.423166 H          1 MOL1         0.3649
       4    H3      16.132474   20.515409   21.512796 H          1 MOL1         0.3649
       5    C1      18.100218   20.960885   22.173143 C.3        1 MOL1         0.0207
       6    H4      17.801423   21.113731   23.213746 H          1 MOL1         0.0950
       7    H5      18.843300   21.719914   21.913914 H          1 MOL1         0.0950
       8    C2      18.713617   19.558744   22.010913 C.3        1 MOL1        -0.1415
       9    H6      17.959017   18.799586   22.256592 H          1 MOL1         0.0976
      10    H7      18.997117   19.403599   20.961315 H          1 MOL1         0.0976
      11    C3      19.951162   19.374624   22.916873 C.3        1 MOL1        -0.1375
      12    H8      19.664521   19.535876   23.965509 H          1 MOL1         0.0976
      13    H9      20.701519   20.139211   22.671571 H          1 MOL1         0.0976
      14    C4      20.575526   17.969217   22.761944 C.3        1 MOL1        -0.1375
      15    H10     19.825416   17.204601   23.007325 H          1 MOL1         0.0976
      16    H11     20.862208   17.807830   21.713478 H          1 MOL1         0.0976
      17    C5      21.813235   17.785447   23.668069 C.3        1 MOL1        -0.1350
      18    H12     21.531046   17.943516   24.718477 H          1 MOL1         0.0976
      19    H13     22.567745   18.546680   23.424736 H          1 MOL1         0.0976
      20    C6      22.433916   16.380995   23.510653 C.3        1 MOL1        -0.2365
      21    H14     23.310890   16.269567   24.161457 H          1 MOL1         0.0987
      22    H15     22.757692   16.206117   22.476334 H          1 MOL1         0.0987
      23    H16     21.712884   15.598237   23.780157 H          1 MOL1         0.0987
@<TRIPOS>BOND
    1     1     2    1
    2     1     3    1
    3     1     4    1
    4     1     5    1
    5     5     6    1
    6     5     7    1
    7     5     8    1
    8     8     9    1
    9     8    10    1
   10     8    11    1
   11    11    12    1
   12    11    13    1
   13    11    14    1
   14    14    15    1
   15    14    16    1
   16    14    17    1
   17    17    18    1
   18    17    19    1
   19    17    20    1
   20    20    21    1
   21    20    22    1
   22    20    23    1
@<TRIPOS>SUBSTRUCTURE
       1 MOL1            1 RESIDUE      1      MOL     
@<SCITEGIC>MOL_PROPERTY
VConf Rank
SciTegic.value.IntegerValue
305

@<SCITEGIC>MOL_PROPERTY
Conf_Id
SciTegic.value.IntegerValue
40

@<SCITEGIC>MOL_PROPERTY
Delta U+W
SciTegic.value.DoubleValue
0.000

@<SCITEGIC>MOL_PROPERTY
U+W
SciTegic.value.DoubleValue
-8.382

@<SCITEGIC>MOL_PROPERTY
Grad RMS
SciTegic.value.DoubleValue
0.000000

@<SCITEGIC>MOL_PROPERTY
U
SciTegic.value.DoubleValue
46.604

@<SCITEGIC>MOL_PROPERTY
W
SciTegic.value.DoubleValue
-54.986

@<SCITEGIC>MOL_PROPERTY
W(PB)
SciTegic.value.DoubleValue
-57.162

@<SCITEGIC>MOL_PROPERTY
W(SA)
SciTegic.value.DoubleValue
2.176

@<SCITEGIC>MOL_PROPERTY
Valence
SciTegic.value.DoubleValue
1.727

@<SCITEGIC>MOL_PROPERTY
Coulomb
SciTegic.value.DoubleValue
44.434

@<SCITEGIC>MOL_PROPERTY
VdW
SciTegic.value.DoubleValue
0.443

@<SCITEGIC>MOL_PROPERTY
VdW6
SciTegic.value.DoubleValue
-4.623

@<SCITEGIC>MOL_PROPERTY
VdW12
SciTegic.value.DoubleValue
5.066

@<SCITEGIC>MOL_PROPERTY
Bond
SciTegic.value.DoubleValue
0.112

@<SCITEGIC>MOL_PROPERTY
Angle
SciTegic.value.DoubleValue
0.386

@<SCITEGIC>MOL_PROPERTY
Pdih
SciTegic.value.DoubleValue
1.228

@<SCITEGIC>MOL_PROPERTY
Idih
SciTegic.value.DoubleValue
0.000

@<SCITEGIC>MOL_PROPERTY
Tether
SciTegic.value.DoubleValue
0.000

@<TRIPOS>MOLECULE
guest-2_confgen4.mol2 : confsearch ligand conformer 306
          23          22           1
SMALL
USER_CHARGES
 
@<TRIPOS>ATOM
       1    N1      19.190655   21.511477   25.109303 N.4        1 MOL1        -0.5940
       2    H1      19.138145   22.440969   24.680202 H          1 MOL1         0.3649
       3    H2      20.105131   21.442090   25.567291 H          1 MOL1         0.3649
       4    H3      18.482960   21.485589   25.851277 H          1 MOL1         0.3649
       5    C1      18.981811   20.407036   24.093243 C.3        1 MOL1         0.0207
       6    H4      17.981671   20.524838   23.667503 H          1 MOL1         0.0950
       7    H5      19.019786   19.452387   24.624017 H          1 MOL1         0.0950
       8    C2      20.030074   20.419590   22.964475 C.3        1 MOL1        -0.1415
       9    H6      20.012897   21.400880   22.471806 H          1 MOL1         0.0976
      10    H7      21.034772   20.300083   23.391422 H          1 MOL1         0.0976
      11    C3      19.782272   19.321921   21.902713 C.3        1 MOL1        -0.1375
      12    H8      20.496454   19.470397   21.082433 H          1 MOL1         0.0976
      13    H9      18.780182   19.449909   21.470503 H          1 MOL1         0.0976
      14    C4      19.929731   17.885740   22.466819 C.3        1 MOL1        -0.1375
      15    H10     20.938911   17.751796   22.880141 H          1 MOL1         0.0976
      16    H11     19.232350   17.746151   23.303288 H          1 MOL1         0.0976
      17    C5      19.650813   16.780839   21.419000 C.3        1 MOL1        -0.1350
      18    H12     18.638337   16.903606   21.009586 H          1 MOL1         0.0976
      19    H13     19.660826   15.805409   21.925270 H          1 MOL1         0.0976
      20    C6      20.678772   16.751310   20.264955 C.3        1 MOL1        -0.2365
      21    H14     20.620257   17.656671   19.648389 H          1 MOL1         0.0987
      22    H15     20.492381   15.892702   19.606928 H          1 MOL1         0.0987
      23    H16     21.702806   16.662282   20.650233 H          1 MOL1         0.0987
@<TRIPOS>BOND
    1     1     2    1
    2     1     3    1
    3     1     4    1
    4     1     5    1
    5     5     6    1
    6     5     7    1
    7     5     8    1
    8     8     9    1
    9     8    10    1
   10     8    11    1
   11    11    12    1
   12    11    13    1
   13    11    14    1
   14    14    15    1
   15    14    16    1
   16    14    17    1
   17    17    18    1
   18    17    19    1
   19    17    20    1
   20    20    21    1
   21    20    22    1
   22    20    23    1
@<TRIPOS>SUBSTRUCTURE
       1 MOL1            1 RESIDUE      1      MOL     
@<SCITEGIC>MOL_PROPERTY
VConf Rank
SciTegic.value.IntegerValue
306

@<SCITEGIC>MOL_PROPERTY
Conf_Id
SciTegic.value.IntegerValue
65

@<SCITEGIC>MOL_PROPERTY
Delta U+W
SciTegic.value.DoubleValue
1.004

@<SCITEGIC>MOL_PROPERTY
U+W
SciTegic.value.DoubleValue
-7.378

@<SCITEGIC>MOL_PROPERTY
Grad RMS
SciTegic.value.DoubleValue
0.000000

@<SCITEGIC>MOL_PROPERTY
U
SciTegic.value.DoubleValue
48.047

@<SCITEGIC>MOL_PROPERTY
W
SciTegic.value.DoubleValue
-55.425

@<SCITEGIC>MOL_PROPERTY
W(PB)
SciTegic.value.DoubleValue
-57.542

@<SCITEGIC>MOL_PROPERTY
W(SA)
SciTegic.value.DoubleValue
2.116

@<SCITEGIC>MOL_PROPERTY
Valence
SciTegic.value.DoubleValue
2.583

@<SCITEGIC>MOL_PROPERTY
Coulomb
SciTegic.value.DoubleValue
44.791

@<SCITEGIC>MOL_PROPERTY
VdW
SciTegic.value.DoubleValue
0.673

@<SCITEGIC>MOL_PROPERTY
VdW6
SciTegic.value.DoubleValue
-5.788

@<SCITEGIC>MOL_PROPERTY
VdW12
SciTegic.value.DoubleValue
6.462

@<SCITEGIC>MOL_PROPERTY
Bond
SciTegic.value.DoubleValue
0.177

@<SCITEGIC>MOL_PROPERTY
Angle
SciTegic.value.DoubleValue
0.787

@<SCITEGIC>MOL_PROPERTY
Pdih
SciTegic.value.DoubleValue
1.619

@<SCITEGIC>MOL_PROPERTY
Idih
SciTegic.value.DoubleValue
0.000

@<SCITEGIC>MOL_PROPERTY
Tether
SciTegic.value.DoubleValue
0.000

@<TRIPOS>MOLECULE
guest-2_confgen4.mol2 : confsearch ligand conformer 307
          23          22           1
SMALL
USER_CHARGES
 
@<TRIPOS>ATOM
       1    N1      21.778612   19.199142   19.661587 N.4        1 MOL1        -0.5940
       2    H1      21.214711   18.986831   18.832263 H          1 MOL1         0.3649
       3    H2      22.696306   18.764446   19.517000 H          1 MOL1         0.3649
       4    H3      21.927837   20.213258   19.673139 H          1 MOL1         0.3649
       5    C1      21.118288   18.710192   20.934645 C.3        1 MOL1         0.0207
       6    H4      21.786124   18.941637   21.768280 H          1 MOL1         0.0950
       7    H5      21.016537   17.623739   20.866264 H          1 MOL1         0.0950
       8    C2      19.736483   19.345469   21.179944 C.3        1 MOL1        -0.1415
       9    H6      19.838248   20.436677   21.249902 H          1 MOL1         0.0976
      10    H7      19.092195   19.145052   20.313531 H          1 MOL1         0.0976
      11    C3      19.044762   18.804943   22.453903 C.3        1 MOL1        -0.1375
      12    H8      18.935477   17.714317   22.376684 H          1 MOL1         0.0976
      13    H9      18.028385   19.217660   22.493954 H          1 MOL1         0.0976
      14    C4      19.803475   19.164244   23.756911 C.3        1 MOL1        -0.1375
      15    H10     20.827812   18.772317   23.705602 H          1 MOL1         0.0976
      16    H11     19.894175   20.255770   23.843892 H          1 MOL1         0.0976
      17    C5      19.135956   18.598869   25.034130 C.3        1 MOL1        -0.1350
      18    H12     19.794059   18.796514   25.891864 H          1 MOL1         0.0976
      19    H13     19.052137   17.505772   24.957233 H          1 MOL1         0.0976
      20    C6      17.745470   19.208250   25.324979 C.3        1 MOL1        -0.2365
      21    H14     17.014080   18.931581   24.555707 H          1 MOL1         0.0987
      22    H15     17.796600   20.303698   25.373854 H          1 MOL1         0.0987
      23    H16     17.362163   18.847272   26.288159 H          1 MOL1         0.0987
@<TRIPOS>BOND
    1     1     2    1
    2     1     3    1
    3     1     4    1
    4     1     5    1
    5     5     6    1
    6     5     7    1
    7     5     8    1
    8     8     9    1
    9     8    10    1
   10     8    11    1
   11    11    12    1
   12    11    13    1
   13    11    14    1
   14    14    15    1
   15    14    16    1
   16    14    17    1
   17    17    18    1
   18    17    19    1
   19    17    20    1
   20    20    21    1
   21    20    22    1
   22    20    23    1
@<TRIPOS>SUBSTRUCTURE
       1 MOL1            1 RESIDUE      1      MOL     
@<SCITEGIC>MOL_PROPERTY
VConf Rank
SciTegic.value.IntegerValue
307

@<SCITEGIC>MOL_PROPERTY
Conf_Id
SciTegic.value.IntegerValue
92

@<SCITEGIC>MOL_PROPERTY
Delta U+W
SciTegic.value.DoubleValue
0.973

@<SCITEGIC>MOL_PROPERTY
U+W
SciTegic.value.DoubleValue
-7.409

@<SCITEGIC>MOL_PROPERTY
Grad RMS
SciTegic.value.DoubleValue
0.000000

@<SCITEGIC>MOL_PROPERTY
U
SciTegic.value.DoubleValue
48.047

@<SCITEGIC>MOL_PROPERTY
W
SciTegic.value.DoubleValue
-55.456

@<SCITEGIC>MOL_PROPERTY
W(PB)
SciTegic.value.DoubleValue
-57.595

@<SCITEGIC>MOL_PROPERTY
W(SA)
SciTegic.value.DoubleValue
2.138

@<SCITEGIC>MOL_PROPERTY
Valence
SciTegic.value.DoubleValue
2.583

@<SCITEGIC>MOL_PROPERTY
Coulomb
SciTegic.value.DoubleValue
44.791

@<SCITEGIC>MOL_PROPERTY
VdW
SciTegic.value.DoubleValue
0.674

@<SCITEGIC>MOL_PROPERTY
VdW6
SciTegic.value.DoubleValue
-5.789

@<SCITEGIC>MOL_PROPERTY
VdW12
SciTegic.value.DoubleValue
6.462

@<SCITEGIC>MOL_PROPERTY
Bond
SciTegic.value.DoubleValue
0.177

@<SCITEGIC>MOL_PROPERTY
Angle
SciTegic.value.DoubleValue
0.787

@<SCITEGIC>MOL_PROPERTY
Pdih
SciTegic.value.DoubleValue
1.619

@<SCITEGIC>MOL_PROPERTY
Idih
SciTegic.value.DoubleValue
0.000

@<SCITEGIC>MOL_PROPERTY
Tether
SciTegic.value.DoubleValue
0.000

@<TRIPOS>MOLECULE
guest-2_confgen4.mol2 : confsearch ligand conformer 308
          23          22           1
SMALL
USER_CHARGES
 
@<TRIPOS>ATOM
       1    N1      19.388313   18.356756   26.063052 N.4        1 MOL1        -0.5940
       2    H1      19.937275   17.629111   26.533378 H          1 MOL1         0.3649
       3    H2      18.428484   18.279386   26.414613 H          1 MOL1         0.3649
       4    H3      19.754486   19.259383   26.382461 H          1 MOL1         0.3649
       5    C1      19.450651   18.222790   24.555092 C.3        1 MOL1         0.0207
       6    H4      19.073833   17.231686   24.288369 H          1 MOL1         0.0950
       7    H5      20.500272   18.283894   24.256337 H          1 MOL1         0.0950
       8    C2      18.634921   19.302500   23.819112 C.3        1 MOL1        -0.1415
       9    H6      17.592251   19.259490   24.161071 H          1 MOL1         0.0976
      10    H7      19.012921   20.297973   24.087710 H          1 MOL1         0.0976
      11    C3      18.666371   19.131731   22.281945 C.3        1 MOL1        -0.1375
      12    H8      17.992990   19.874010   21.831355 H          1 MOL1         0.0976
      13    H9      18.263727   18.144767   22.014683 H          1 MOL1         0.0976
      14    C4      20.082651   19.298439   21.680431 C.3        1 MOL1        -0.1375
      15    H10     20.495353   20.272635   21.977139 H          1 MOL1         0.0976
      16    H11     20.755580   18.530954   22.085638 H          1 MOL1         0.0976
      17    C5      20.067098   19.195090   20.139052 C.3        1 MOL1        -0.1350
      18    H12     19.402665   19.964726   19.721739 H          1 MOL1         0.0976
      19    H13     19.654388   18.222376   19.836602 H          1 MOL1         0.0976
      20    C6      21.480204   19.360110   19.540336 C.3        1 MOL1        -0.2365
      21    H14     21.906309   20.338525   19.797952 H          1 MOL1         0.0987
      22    H15     21.448666   19.284215   18.445672 H          1 MOL1         0.0987
      23    H16     22.159992   18.582480   19.912358 H          1 MOL1         0.0987
@<TRIPOS>BOND
    1     1     2    1
    2     1     3    1
    3     1     4    1
    4     1     5    1
    5     5     6    1
    6     5     7    1
    7     5     8    1
    8     8     9    1
    9     8    10    1
   10     8    11    1
   11    11    12    1
   12    11    13    1
   13    11    14    1
   14    14    15    1
   15    14    16    1
   16    14    17    1
   17    17    18    1
   18    17    19    1
   19    17    20    1
   20    20    21    1
   21    20    22    1
   22    20    23    1
@<TRIPOS>SUBSTRUCTURE
       1 MOL1            1 RESIDUE      1      MOL     
@<SCITEGIC>MOL_PROPERTY
VConf Rank
SciTegic.value.IntegerValue
308

@<SCITEGIC>MOL_PROPERTY
Conf_Id
SciTegic.value.IntegerValue
42

@<SCITEGIC>MOL_PROPERTY
Delta U+W
SciTegic.value.DoubleValue
0.365

@<SCITEGIC>MOL_PROPERTY
U+W
SciTegic.value.DoubleValue
-8.017

@<SCITEGIC>MOL_PROPERTY
Grad RMS
SciTegic.value.DoubleValue
0.000000

@<SCITEGIC>MOL_PROPERTY
U
SciTegic.value.DoubleValue
47.375

@<SCITEGIC>MOL_PROPERTY
W
SciTegic.value.DoubleValue
-55.392

@<SCITEGIC>MOL_PROPERTY
W(PB)
SciTegic.value.DoubleValue
-57.543

@<SCITEGIC>MOL_PROPERTY
W(SA)
SciTegic.value.DoubleValue
2.152

@<SCITEGIC>MOL_PROPERTY
Valence
SciTegic.value.DoubleValue
2.032

@<SCITEGIC>MOL_PROPERTY
Coulomb
SciTegic.value.DoubleValue
44.843

@<SCITEGIC>MOL_PROPERTY
VdW
SciTegic.value.DoubleValue
0.499

@<SCITEGIC>MOL_PROPERTY
VdW6
SciTegic.value.DoubleValue
-5.218

@<SCITEGIC>MOL_PROPERTY
VdW12
SciTegic.value.DoubleValue
5.717

@<SCITEGIC>MOL_PROPERTY
Bond
SciTegic.value.DoubleValue
0.135

@<SCITEGIC>MOL_PROPERTY
Angle
SciTegic.value.DoubleValue
0.514

@<SCITEGIC>MOL_PROPERTY
Pdih
SciTegic.value.DoubleValue
1.383

@<SCITEGIC>MOL_PROPERTY
Idih
SciTegic.value.DoubleValue
0.000

@<SCITEGIC>MOL_PROPERTY
Tether
SciTegic.value.DoubleValue
0.000

@<TRIPOS>MOLECULE
guest-2_confgen4.mol2 : confsearch ligand conformer 309
          23          22           1
SMALL
USER_CHARGES
 
@<TRIPOS>ATOM
       1    N1      17.579582   19.094105   20.308467 N.4        1 MOL1        -0.5940
       2    H1      17.124614   18.228534   20.615754 H          1 MOL1         0.3649
       3    H2      17.258865   19.276765   19.351533 H          1 MOL1         0.3649
       4    H3      17.216868   19.851612   20.895002 H          1 MOL1         0.3649
       5    C1      19.090789   18.994987   20.386005 C.3        1 MOL1         0.0207
       6    H4      19.512569   19.936482   20.023915 H          1 MOL1         0.0950
       7    H5      19.404419   18.197970   19.706319 H          1 MOL1         0.0950
       8    C2      19.624525   18.697170   21.800806 C.3        1 MOL1        -0.1415
       9    H6      19.178314   17.765602   22.173268 H          1 MOL1         0.0976
      10    H7      20.705042   18.525731   21.721997 H          1 MOL1         0.0976
      11    C3      19.358092   19.852322   22.796518 C.3        1 MOL1        -0.1375
      12    H8      18.287158   20.094046   22.797496 H          1 MOL1         0.0976
      13    H9      19.875265   20.757794   22.450021 H          1 MOL1         0.0976
      14    C4      19.778717   19.546824   24.257615 C.3        1 MOL1        -0.1375
      15    H10     19.500828   20.416204   24.869531 H          1 MOL1         0.0976
      16    H11     19.189384   18.707843   24.652614 H          1 MOL1         0.0976
      17    C5      21.292967   19.280450   24.458941 C.3        1 MOL1        -0.1350
      18    H12     21.596931   19.702526   25.427150 H          1 MOL1         0.0976
      19    H13     21.879777   19.815492   23.699346 H          1 MOL1         0.0976
      20    C6      21.656823   17.777164   24.460038 C.3        1 MOL1        -0.2365
      21    H14     21.131642   17.247949   25.265752 H          1 MOL1         0.0987
      22    H15     22.734264   17.643092   24.621467 H          1 MOL1         0.0987
      23    H16     21.399821   17.289159   23.513507 H          1 MOL1         0.0987
@<TRIPOS>BOND
    1     1     2    1
    2     1     3    1
    3     1     4    1
    4     1     5    1
    5     5     6    1
    6     5     7    1
    7     5     8    1
    8     8     9    1
    9     8    10    1
   10     8    11    1
   11    11    12    1
   12    11    13    1
   13    11    14    1
   14    14    15    1
   15    14    16    1
   16    14    17    1
   17    17    18    1
   18    17    19    1
   19    17    20    1
   20    20    21    1
   21    20    22    1
   22    20    23    1
@<TRIPOS>SUBSTRUCTURE
       1 MOL1            1 RESIDUE      1      MOL     
@<SCITEGIC>MOL_PROPERTY
VConf Rank
SciTegic.value.IntegerValue
309

@<SCITEGIC>MOL_PROPERTY
Conf_Id
SciTegic.value.IntegerValue
3

@<SCITEGIC>MOL_PROPERTY
Delta U+W
SciTegic.value.DoubleValue
3.283

@<SCITEGIC>MOL_PROPERTY
U+W
SciTegic.value.DoubleValue
-5.099

@<SCITEGIC>MOL_PROPERTY
Grad RMS
SciTegic.value.DoubleValue
0.000000

@<SCITEGIC>MOL_PROPERTY
U
SciTegic.value.DoubleValue
50.701

@<SCITEGIC>MOL_PROPERTY
W
SciTegic.value.DoubleValue
-55.800

@<SCITEGIC>MOL_PROPERTY
W(PB)
SciTegic.value.DoubleValue
-57.867

@<SCITEGIC>MOL_PROPERTY
W(SA)
SciTegic.value.DoubleValue
2.067

@<SCITEGIC>MOL_PROPERTY
Valence
SciTegic.value.DoubleValue
4.880

@<SCITEGIC>MOL_PROPERTY
Coulomb
SciTegic.value.DoubleValue
45.095

@<SCITEGIC>MOL_PROPERTY
VdW
SciTegic.value.DoubleValue
0.726

@<SCITEGIC>MOL_PROPERTY
VdW6
SciTegic.value.DoubleValue
-6.620

@<SCITEGIC>MOL_PROPERTY
VdW12
SciTegic.value.DoubleValue
7.346

@<SCITEGIC>MOL_PROPERTY
Bond
SciTegic.value.DoubleValue
0.222

@<SCITEGIC>MOL_PROPERTY
Angle
SciTegic.value.DoubleValue
1.260

@<SCITEGIC>MOL_PROPERTY
Pdih
SciTegic.value.DoubleValue
3.398

@<SCITEGIC>MOL_PROPERTY
Idih
SciTegic.value.DoubleValue
0.000

@<SCITEGIC>MOL_PROPERTY
Tether
SciTegic.value.DoubleValue
0.000

@<TRIPOS>MOLECULE
guest-2_confgen4.mol2 : confsearch ligand conformer 310
          23          22           1
SMALL
USER_CHARGES
 
@<TRIPOS>ATOM
       1    N1      17.564290   17.874706   24.014952 N.4        1 MOL1        -0.5940
       2    H1      17.847725   17.166675   24.699723 H          1 MOL1         0.3649
       3    H2      16.545655   17.969786   24.086905 H          1 MOL1         0.3649
       4    H3      17.971542   18.765985   24.313896 H          1 MOL1         0.3649
       5    C1      17.997848   17.504721   22.610164 C.3        1 MOL1         0.0207
       6    H4      17.639690   18.280888   21.929152 H          1 MOL1         0.0950
       7    H5      17.501671   16.567144   22.345055 H          1 MOL1         0.0950
       8    C2      19.523398   17.336760   22.456008 C.3        1 MOL1        -0.1415
       9    H6      19.860920   16.519718   23.107410 H          1 MOL1         0.0976
      10    H7      19.740544   17.017267   21.428082 H          1 MOL1         0.0976
      11    C3      20.338634   18.615283   22.776031 C.3        1 MOL1        -0.1375
      12    H8      21.404404   18.372714   22.675186 H          1 MOL1         0.0976
      13    H9      20.188471   18.901779   23.825373 H          1 MOL1         0.0976
      14    C4      19.989293   19.808977   21.851107 C.3        1 MOL1        -0.1375
      15    H10     20.166490   19.529711   20.803357 H          1 MOL1         0.0976
      16    H11     18.918435   20.036800   21.933045 H          1 MOL1         0.0976
      17    C5      20.780917   21.097353   22.182570 C.3        1 MOL1        -0.1350
      18    H12     20.598855   21.387780   23.226712 H          1 MOL1         0.0976
      19    H13     20.391977   21.918019   21.563623 H          1 MOL1         0.0976
      20    C6      22.301389   20.967902   21.936087 C.3        1 MOL1        -0.2365
      21    H14     22.508789   20.645863   20.907358 H          1 MOL1         0.0987
      22    H15     22.762053   20.246644   22.622251 H          1 MOL1         0.0987
      23    H16     22.798969   21.933890   22.091701 H          1 MOL1         0.0987
@<TRIPOS>BOND
    1     1     2    1
    2     1     3    1
    3     1     4    1
    4     1     5    1
    5     5     6    1
    6     5     7    1
    7     5     8    1
    8     8     9    1
    9     8    10    1
   10     8    11    1
   11    11    12    1
   12    11    13    1
   13    11    14    1
   14    14    15    1
   15    14    16    1
   16    14    17    1
   17    17    18    1
   18    17    19    1
   19    17    20    1
   20    20    21    1
   21    20    22    1
   22    20    23    1
@<TRIPOS>SUBSTRUCTURE
       1 MOL1            1 RESIDUE      1      MOL     
@<SCITEGIC>MOL_PROPERTY
VConf Rank
SciTegic.value.IntegerValue
310

@<SCITEGIC>MOL_PROPERTY
Conf_Id
SciTegic.value.IntegerValue
83

@<SCITEGIC>MOL_PROPERTY
Delta U+W
SciTegic.value.DoubleValue
1.229

@<SCITEGIC>MOL_PROPERTY
U+W
SciTegic.value.DoubleValue
-7.154

@<SCITEGIC>MOL_PROPERTY
Grad RMS
SciTegic.value.DoubleValue
0.000000

@<SCITEGIC>MOL_PROPERTY
U
SciTegic.value.DoubleValue
48.727

@<SCITEGIC>MOL_PROPERTY
W
SciTegic.value.DoubleValue
-55.880

@<SCITEGIC>MOL_PROPERTY
W(PB)
SciTegic.value.DoubleValue
-57.960

@<SCITEGIC>MOL_PROPERTY
W(SA)
SciTegic.value.DoubleValue
2.080

@<SCITEGIC>MOL_PROPERTY
Valence
SciTegic.value.DoubleValue
2.671

@<SCITEGIC>MOL_PROPERTY
Coulomb
SciTegic.value.DoubleValue
45.371

@<SCITEGIC>MOL_PROPERTY
VdW
SciTegic.value.DoubleValue
0.684

@<SCITEGIC>MOL_PROPERTY
VdW6
SciTegic.value.DoubleValue
-6.511

@<SCITEGIC>MOL_PROPERTY
VdW12
SciTegic.value.DoubleValue
7.195

@<SCITEGIC>MOL_PROPERTY
Bond
SciTegic.value.DoubleValue
0.203

@<SCITEGIC>MOL_PROPERTY
Angle
SciTegic.value.DoubleValue
0.915

@<SCITEGIC>MOL_PROPERTY
Pdih
SciTegic.value.DoubleValue
1.554

@<SCITEGIC>MOL_PROPERTY
Idih
SciTegic.value.DoubleValue
0.000

@<SCITEGIC>MOL_PROPERTY
Tether
SciTegic.value.DoubleValue
0.000

@<TRIPOS>MOLECULE
guest-2_confgen4.mol2 : confsearch ligand conformer 311
          23          22           1
SMALL
USER_CHARGES
 
@<TRIPOS>ATOM
       1    N1      21.884575   20.955464   22.772049 N.4        1 MOL1        -0.5940
       2    H1      22.759681   20.630181   22.349044 H          1 MOL1         0.3649
       3    H2      21.668086   20.321205   23.546935 H          1 MOL1         0.3649
       4    H3      22.074093   21.876765   23.180855 H          1 MOL1         0.3649
       5    C1      20.756245   21.008958   21.760959 C.3        1 MOL1         0.0207
       6    H4      21.038378   21.726191   20.985392 H          1 MOL1         0.0950
       7    H5      19.865642   21.390778   22.266459 H          1 MOL1         0.0950
       8    C2      20.443651   19.646940   21.107912 C.3        1 MOL1        -0.1415
       9    H6      19.657023   19.789480   20.355079 H          1 MOL1         0.0976
      10    H7      21.330579   19.300573   20.560927 H          1 MOL1         0.0976
      11    C3      19.999760   18.549857   22.108422 C.3        1 MOL1        -0.1375
      12    H8      20.809061   18.344386   22.821556 H          1 MOL1         0.0976
      13    H9      19.844738   17.619954   21.546174 H          1 MOL1         0.0976
      14    C4      18.703358   18.913071   22.876437 C.3        1 MOL1        -0.1375
      15    H10     18.849475   19.855852   23.419730 H          1 MOL1         0.0976
      16    H11     17.887578   19.091204   22.162336 H          1 MOL1         0.0976
      17    C5      18.268982   17.833222   23.897068 C.3        1 MOL1        -0.1350
      18    H12     17.417462   18.218332   24.475399 H          1 MOL1         0.0976
      19    H13     19.077362   17.658500   24.620754 H          1 MOL1         0.0976
      20    C6      17.858753   16.494582   23.242013 C.3        1 MOL1        -0.2365
      21    H14     17.073978   16.647056   22.489758 H          1 MOL1         0.0987
      22    H15     17.468196   15.801197   23.998067 H          1 MOL1         0.0987
      23    H16     18.711280   16.004565   22.755881 H          1 MOL1         0.0987
@<TRIPOS>BOND
    1     1     2    1
    2     1     3    1
    3     1     4    1
    4     1     5    1
    5     5     6    1
    6     5     7    1
    7     5     8    1
    8     8     9    1
    9     8    10    1
   10     8    11    1
   11    11    12    1
   12    11    13    1
   13    11    14    1
   14    14    15    1
   15    14    16    1
   16    14    17    1
   17    17    18    1
   18    17    19    1
   19    17    20    1
   20    20    21    1
   21    20    22    1
   22    20    23    1
@<TRIPOS>SUBSTRUCTURE
       1 MOL1            1 RESIDUE      1      MOL     
@<SCITEGIC>MOL_PROPERTY
VConf Rank
SciTegic.value.IntegerValue
311

@<SCITEGIC>MOL_PROPERTY
Conf_Id
SciTegic.value.IntegerValue
50

@<SCITEGIC>MOL_PROPERTY
Delta U+W
SciTegic.value.DoubleValue
1.252

@<SCITEGIC>MOL_PROPERTY
U+W
SciTegic.value.DoubleValue
-7.130

@<SCITEGIC>MOL_PROPERTY
Grad RMS
SciTegic.value.DoubleValue
0.000000

@<SCITEGIC>MOL_PROPERTY
U
SciTegic.value.DoubleValue
48.727

@<SCITEGIC>MOL_PROPERTY
W
SciTegic.value.DoubleValue
-55.857

@<SCITEGIC>MOL_PROPERTY
W(PB)
SciTegic.value.DoubleValue
-57.937

@<SCITEGIC>MOL_PROPERTY
W(SA)
SciTegic.value.DoubleValue
2.080

@<SCITEGIC>MOL_PROPERTY
Valence
SciTegic.value.DoubleValue
2.671

@<SCITEGIC>MOL_PROPERTY
Coulomb
SciTegic.value.DoubleValue
45.371

@<SCITEGIC>MOL_PROPERTY
VdW
SciTegic.value.DoubleValue
0.684

@<SCITEGIC>MOL_PROPERTY
VdW6
SciTegic.value.DoubleValue
-6.511

@<SCITEGIC>MOL_PROPERTY
VdW12
SciTegic.value.DoubleValue
7.196

@<SCITEGIC>MOL_PROPERTY
Bond
SciTegic.value.DoubleValue
0.203

@<SCITEGIC>MOL_PROPERTY
Angle
SciTegic.value.DoubleValue
0.915

@<SCITEGIC>MOL_PROPERTY
Pdih
SciTegic.value.DoubleValue
1.554

@<SCITEGIC>MOL_PROPERTY
Idih
SciTegic.value.DoubleValue
0.000

@<SCITEGIC>MOL_PROPERTY
Tether
SciTegic.value.DoubleValue
0.000

@<TRIPOS>MOLECULE
guest-2_confgen4.mol2 : confsearch ligand conformer 312
          23          22           1
SMALL
USER_CHARGES
 
@<TRIPOS>ATOM
       1    N1      17.035992   20.541382   23.171400 N.4        1 MOL1        -0.5940
       2    H1      17.501914   20.599373   24.081942 H          1 MOL1         0.3649
       3    H2      16.031291   20.446690   23.354534 H          1 MOL1         0.3649
       4    H3      17.170663   21.443543   22.703859 H          1 MOL1         0.3649
       5    C1      17.567317   19.390316   22.339547 C.3        1 MOL1         0.0207
       6    H4      16.998624   19.366134   21.405964 H          1 MOL1         0.0950
       7    H5      17.371513   18.461172   22.881548 H          1 MOL1         0.0950
       8    C2      19.070869   19.496158   22.018781 C.3        1 MOL1        -0.1415
       9    H6      19.331921   18.685765   21.329015 H          1 MOL1         0.0976
      10    H7      19.263142   20.433004   21.479228 H          1 MOL1         0.0976
      11    C3      19.958427   19.427752   23.287732 C.3        1 MOL1        -0.1375
      12    H8      19.705546   18.540168   23.884054 H          1 MOL1         0.0976
      13    H9      19.729293   20.295403   23.920716 H          1 MOL1         0.0976
      14    C4      21.478101   19.443954   22.977195 C.3        1 MOL1        -0.1375
      15    H10     21.672012   19.997382   22.048050 H          1 MOL1         0.0976
      16    H11     21.983515   20.012177   23.770398 H          1 MOL1         0.0976
      17    C5      22.141432   18.044303   22.912566 C.3        1 MOL1        -0.1350
      18    H12     22.029947   17.538803   23.882006 H          1 MOL1         0.0976
      19    H13     23.221909   18.177360   22.761968 H          1 MOL1         0.0976
      20    C6      21.594674   17.131385   21.793339 C.3        1 MOL1        -0.2365
      21    H14     21.638088   17.631600   20.817258 H          1 MOL1         0.0987
      22    H15     20.556500   16.837072   21.990438 H          1 MOL1         0.0987
      23    H16     22.188546   16.210749   21.725258 H          1 MOL1         0.0987
@<TRIPOS>BOND
    1     1     2    1
    2     1     3    1
    3     1     4    1
    4     1     5    1
    5     5     6    1
    6     5     7    1
    7     5     8    1
    8     8     9    1
    9     8    10    1
   10     8    11    1
   11    11    12    1
   12    11    13    1
   13    11    14    1
   14    14    15    1
   15    14    16    1
   16    14    17    1
   17    17    18    1
   18    17    19    1
   19    17    20    1
   20    20    21    1
   21    20    22    1
   22    20    23    1
@<TRIPOS>SUBSTRUCTURE
       1 MOL1            1 RESIDUE      1      MOL     
@<SCITEGIC>MOL_PROPERTY
VConf Rank
SciTegic.value.IntegerValue
312

@<SCITEGIC>MOL_PROPERTY
Conf_Id
SciTegic.value.IntegerValue
55

@<SCITEGIC>MOL_PROPERTY
Delta U+W
SciTegic.value.DoubleValue
3.232

@<SCITEGIC>MOL_PROPERTY
U+W
SciTegic.value.DoubleValue
-5.150

@<SCITEGIC>MOL_PROPERTY
Grad RMS
SciTegic.value.DoubleValue
0.000000

@<SCITEGIC>MOL_PROPERTY
U
SciTegic.value.DoubleValue
50.625

@<SCITEGIC>MOL_PROPERTY
W
SciTegic.value.DoubleValue
-55.776

@<SCITEGIC>MOL_PROPERTY
W(PB)
SciTegic.value.DoubleValue
-57.839

@<SCITEGIC>MOL_PROPERTY
W(SA)
SciTegic.value.DoubleValue
2.064

@<SCITEGIC>MOL_PROPERTY
Valence
SciTegic.value.DoubleValue
4.837

@<SCITEGIC>MOL_PROPERTY
Coulomb
SciTegic.value.DoubleValue
45.097

@<SCITEGIC>MOL_PROPERTY
VdW
SciTegic.value.DoubleValue
0.692

@<SCITEGIC>MOL_PROPERTY
VdW6
SciTegic.value.DoubleValue
-6.655

@<SCITEGIC>MOL_PROPERTY
VdW12
SciTegic.value.DoubleValue
7.347

@<SCITEGIC>MOL_PROPERTY
Bond
SciTegic.value.DoubleValue
0.223

@<SCITEGIC>MOL_PROPERTY
Angle
SciTegic.value.DoubleValue
1.167

@<SCITEGIC>MOL_PROPERTY
Pdih
SciTegic.value.DoubleValue
3.447

@<SCITEGIC>MOL_PROPERTY
Idih
SciTegic.value.DoubleValue
0.000

@<SCITEGIC>MOL_PROPERTY
Tether
SciTegic.value.DoubleValue
0.000

@<TRIPOS>MOLECULE
guest-2_confgen4.mol2 : confsearch ligand conformer 313
          23          22           1
SMALL
USER_CHARGES
 
@<TRIPOS>ATOM
       1    N1      21.676733   20.606670   20.608450 N.4        1 MOL1        -0.5940
       2    H1      21.331556   20.951678   19.706979 H          1 MOL1         0.3649
       3    H2      22.655538   20.334328   20.467846 H          1 MOL1         0.3649
       4    H3      21.678528   21.402243   21.254838 H          1 MOL1         0.3649
       5    C1      20.841186   19.455528   21.130352 C.3        1 MOL1         0.0207
       6    H4      21.286535   19.118761   22.068218 H          1 MOL1         0.0950
       7    H5      20.908288   18.637276   20.408298 H          1 MOL1         0.0950
       8    C2      19.362360   19.833376   21.345033 C.3        1 MOL1        -0.1415
       9    H6      19.281523   20.685354   22.033119 H          1 MOL1         0.0976
      10    H7      18.954606   20.172017   20.383223 H          1 MOL1         0.0976
      11    C3      18.500652   18.651387   21.856723 C.3        1 MOL1        -0.1375
      12    H8      18.825142   17.715416   21.381047 H          1 MOL1         0.0976
      13    H9      17.466796   18.812060   21.520829 H          1 MOL1         0.0976
      14    C4      18.469870   18.483215   23.398229 C.3        1 MOL1        -0.1375
      15    H10     18.045364   19.387109   23.856556 H          1 MOL1         0.0976
      16    H11     17.776058   17.665767   23.638740 H          1 MOL1         0.0976
      17    C5      19.843013   18.179312   24.040587 C.3        1 MOL1        -0.1350
      18    H12     20.501589   19.052352   23.945755 H          1 MOL1         0.0976
      19    H13     20.327005   17.346236   23.511991 H          1 MOL1         0.0976
      20    C6      19.705668   17.825382   25.536765 C.3        1 MOL1        -0.2365
      21    H14     19.084481   16.931014   25.676218 H          1 MOL1         0.0987
      22    H15     19.247342   18.650829   26.096966 H          1 MOL1         0.0987
      23    H16     20.689805   17.623474   25.979187 H          1 MOL1         0.0987
@<TRIPOS>BOND
    1     1     2    1
    2     1     3    1
    3     1     4    1
    4     1     5    1
    5     5     6    1
    6     5     7    1
    7     5     8    1
    8     8     9    1
    9     8    10    1
   10     8    11    1
   11    11    12    1
   12    11    13    1
   13    11    14    1
   14    14    15    1
   15    14    16    1
   16    14    17    1
   17    17    18    1
   18    17    19    1
   19    17    20    1
   20    20    21    1
   21    20    22    1
   22    20    23    1
@<TRIPOS>SUBSTRUCTURE
       1 MOL1            1 RESIDUE      1      MOL     
@<SCITEGIC>MOL_PROPERTY
VConf Rank
SciTegic.value.IntegerValue
313

@<SCITEGIC>MOL_PROPERTY
Conf_Id
SciTegic.value.IntegerValue
93

@<SCITEGIC>MOL_PROPERTY
Delta U+W
SciTegic.value.DoubleValue
2.589

@<SCITEGIC>MOL_PROPERTY
U+W
SciTegic.value.DoubleValue
-5.793

@<SCITEGIC>MOL_PROPERTY
Grad RMS
SciTegic.value.DoubleValue
0.000000

@<SCITEGIC>MOL_PROPERTY
U
SciTegic.value.DoubleValue
50.122

@<SCITEGIC>MOL_PROPERTY
W
SciTegic.value.DoubleValue
-55.915

@<SCITEGIC>MOL_PROPERTY
W(PB)
SciTegic.value.DoubleValue
-58.031

@<SCITEGIC>MOL_PROPERTY
W(SA)
SciTegic.value.DoubleValue
2.115

@<SCITEGIC>MOL_PROPERTY
Valence
SciTegic.value.DoubleValue
4.132

@<SCITEGIC>MOL_PROPERTY
Coulomb
SciTegic.value.DoubleValue
45.536

@<SCITEGIC>MOL_PROPERTY
VdW
SciTegic.value.DoubleValue
0.454

@<SCITEGIC>MOL_PROPERTY
VdW6
SciTegic.value.DoubleValue
-6.262

@<SCITEGIC>MOL_PROPERTY
VdW12
SciTegic.value.DoubleValue
6.715

@<SCITEGIC>MOL_PROPERTY
Bond
SciTegic.value.DoubleValue
0.182

@<SCITEGIC>MOL_PROPERTY
Angle
SciTegic.value.DoubleValue
1.157

@<SCITEGIC>MOL_PROPERTY
Pdih
SciTegic.value.DoubleValue
2.794

@<SCITEGIC>MOL_PROPERTY
Idih
SciTegic.value.DoubleValue
0.000

@<SCITEGIC>MOL_PROPERTY
Tether
SciTegic.value.DoubleValue
0.000

@<TRIPOS>MOLECULE
guest-2_confgen4.mol2 : confsearch ligand conformer 314
          23          22           1
SMALL
USER_CHARGES
 
@<TRIPOS>ATOM
       1    N1      18.474489   20.815097   24.807205 N.4        1 MOL1        -0.5940
       2    H1      17.651661   20.205069   24.846904 H          1 MOL1         0.3649
       3    H2      18.137667   21.755562   24.574658 H          1 MOL1         0.3649
       4    H3      18.859859   20.863306   25.755885 H          1 MOL1         0.3649
       5    C1      19.498184   20.319870   23.805983 C.3        1 MOL1         0.0207
       6    H4      20.329438   21.030025   23.796247 H          1 MOL1         0.0950
       7    H5      19.031270   20.329408   22.819454 H          1 MOL1         0.0950
       8    C2      20.028508   18.910241   24.133843 C.3        1 MOL1        -0.1415
       9    H6      20.482717   18.941500   25.133210 H          1 MOL1         0.0976
      10    H7      19.198449   18.193743   24.192961 H          1 MOL1         0.0976
      11    C3      21.092865   18.410761   23.124324 C.3        1 MOL1        -0.1375
      12    H8      21.753008   17.703921   23.645943 H          1 MOL1         0.0976
      13    H9      21.737455   19.244730   22.813515 H          1 MOL1         0.0976
      14    C4      20.522807   17.684459   21.878133 C.3        1 MOL1        -0.1375
      15    H10     21.368532   17.318145   21.279800 H          1 MOL1         0.0976
      16    H11     19.966866   16.792013   22.197131 H          1 MOL1         0.0976
      17    C5      19.616931   18.559171   20.981042 C.3        1 MOL1        -0.1350
      18    H12     20.122398   19.507372   20.750623 H          1 MOL1         0.0976
      19    H13     18.689065   18.805164   21.513458 H          1 MOL1         0.0976
      20    C6      19.254156   17.839435   19.664586 C.3        1 MOL1        -0.2365
      21    H14     18.602492   18.469406   19.045313 H          1 MOL1         0.0987
      22    H15     18.724175   16.898573   19.862445 H          1 MOL1         0.0987
      23    H16     20.153707   17.608629   19.079137 H          1 MOL1         0.0987
@<TRIPOS>BOND
    1     1     2    1
    2     1     3    1
    3     1     4    1
    4     1     5    1
    5     5     6    1
    6     5     7    1
    7     5     8    1
    8     8     9    1
    9     8    10    1
   10     8    11    1
   11    11    12    1
   12    11    13    1
   13    11    14    1
   14    14    15    1
   15    14    16    1
   16    14    17    1
   17    17    18    1
   18    17    19    1
   19    17    20    1
   20    20    21    1
   21    20    22    1
   22    20    23    1
@<TRIPOS>SUBSTRUCTURE
       1 MOL1            1 RESIDUE      1      MOL     
@<SCITEGIC>MOL_PROPERTY
VConf Rank
SciTegic.value.IntegerValue
314

@<SCITEGIC>MOL_PROPERTY
Conf_Id
SciTegic.value.IntegerValue
70

@<SCITEGIC>MOL_PROPERTY
Delta U+W
SciTegic.value.DoubleValue
2.599

@<SCITEGIC>MOL_PROPERTY
U+W
SciTegic.value.DoubleValue
-5.783

@<SCITEGIC>MOL_PROPERTY
Grad RMS
SciTegic.value.DoubleValue
0.000000

@<SCITEGIC>MOL_PROPERTY
U
SciTegic.value.DoubleValue
50.122

@<SCITEGIC>MOL_PROPERTY
W
SciTegic.value.DoubleValue
-55.906

@<SCITEGIC>MOL_PROPERTY
W(PB)
SciTegic.value.DoubleValue
-58.010

@<SCITEGIC>MOL_PROPERTY
W(SA)
SciTegic.value.DoubleValue
2.105

@<SCITEGIC>MOL_PROPERTY
Valence
SciTegic.value.DoubleValue
4.132

@<SCITEGIC>MOL_PROPERTY
Coulomb
SciTegic.value.DoubleValue
45.536

@<SCITEGIC>MOL_PROPERTY
VdW
SciTegic.value.DoubleValue
0.454

@<SCITEGIC>MOL_PROPERTY
VdW6
SciTegic.value.DoubleValue
-6.262

@<SCITEGIC>MOL_PROPERTY
VdW12
SciTegic.value.DoubleValue
6.715

@<SCITEGIC>MOL_PROPERTY
Bond
SciTegic.value.DoubleValue
0.182

@<SCITEGIC>MOL_PROPERTY
Angle
SciTegic.value.DoubleValue
1.157

@<SCITEGIC>MOL_PROPERTY
Pdih
SciTegic.value.DoubleValue
2.794

@<SCITEGIC>MOL_PROPERTY
Idih
SciTegic.value.DoubleValue
0.000

@<SCITEGIC>MOL_PROPERTY
Tether
SciTegic.value.DoubleValue
0.000

@<TRIPOS>MOLECULE
guest-2_confgen4.mol2 : confsearch ligand conformer 315
          23          22           1
SMALL
USER_CHARGES
 
@<TRIPOS>ATOM
       1    N1      17.584019   18.318929   20.952280 N.4        1 MOL1        -0.5940
       2    H1      17.340025   17.366618   20.662320 H          1 MOL1         0.3649
       3    H2      17.017042   18.958794   20.385823 H          1 MOL1         0.3649
       4    H3      17.279634   18.426839   21.924479 H          1 MOL1         0.3649
       5    C1      19.067126   18.591863   20.796918 C.3        1 MOL1         0.0207
       6    H4      19.254222   19.628454   21.089184 H          1 MOL1         0.0950
       7    H5      19.315792   18.487616   19.737299 H          1 MOL1         0.0950
       8    C2      19.959484   17.647952   21.627888 C.3        1 MOL1        -0.1415
       9    H6      19.788652   16.613338   21.302148 H          1 MOL1         0.0976
      10    H7      21.011250   17.862961   21.399908 H          1 MOL1         0.0976
      11    C3      19.726354   17.745401   23.158626 C.3        1 MOL1        -0.1375
      12    H8      20.429402   17.071463   23.667286 H          1 MOL1         0.0976
      13    H9      18.724644   17.363490   23.397277 H          1 MOL1         0.0976
      14    C4      19.872870   19.170590   23.752065 C.3        1 MOL1        -0.1375
      15    H10     19.113572   19.837683   23.322709 H          1 MOL1         0.0976
      16    H11     19.657865   19.121085   24.828475 H          1 MOL1         0.0976
      17    C5      21.278734   19.783069   23.548821 C.3        1 MOL1        -0.1350
      18    H12     21.486435   19.907760   22.477723 H          1 MOL1         0.0976
      19    H13     22.042262   19.098629   23.944142 H          1 MOL1         0.0976
      20    C6      21.408886   21.153531   24.246874 C.3        1 MOL1        -0.2365
      21    H14     22.410545   21.574559   24.090578 H          1 MOL1         0.0987
      22    H15     21.247057   21.062849   25.328901 H          1 MOL1         0.0987
      23    H16     20.676942   21.869283   23.850440 H          1 MOL1         0.0987
@<TRIPOS>BOND
    1     1     2    1
    2     1     3    1
    3     1     4    1
    4     1     5    1
    5     5     6    1
    6     5     7    1
    7     5     8    1
    8     8     9    1
    9     8    10    1
   10     8    11    1
   11    11    12    1
   12    11    13    1
   13    11    14    1
   14    14    15    1
   15    14    16    1
   16    14    17    1
   17    17    18    1
   18    17    19    1
   19    17    20    1
   20    20    21    1
   21    20    22    1
   22    20    23    1
@<TRIPOS>SUBSTRUCTURE
       1 MOL1            1 RESIDUE      1      MOL     
@<SCITEGIC>MOL_PROPERTY
VConf Rank
SciTegic.value.IntegerValue
315

@<SCITEGIC>MOL_PROPERTY
Conf_Id
SciTegic.value.IntegerValue
72

@<SCITEGIC>MOL_PROPERTY
Delta U+W
SciTegic.value.DoubleValue
1.051

@<SCITEGIC>MOL_PROPERTY
U+W
SciTegic.value.DoubleValue
-7.331

@<SCITEGIC>MOL_PROPERTY
Grad RMS
SciTegic.value.DoubleValue
0.000000

@<SCITEGIC>MOL_PROPERTY
U
SciTegic.value.DoubleValue
48.590

@<SCITEGIC>MOL_PROPERTY
W
SciTegic.value.DoubleValue
-55.922

@<SCITEGIC>MOL_PROPERTY
W(PB)
SciTegic.value.DoubleValue
-58.012

@<SCITEGIC>MOL_PROPERTY
W(SA)
SciTegic.value.DoubleValue
2.090

@<SCITEGIC>MOL_PROPERTY
Valence
SciTegic.value.DoubleValue
2.601

@<SCITEGIC>MOL_PROPERTY
Coulomb
SciTegic.value.DoubleValue
45.520

@<SCITEGIC>MOL_PROPERTY
VdW
SciTegic.value.DoubleValue
0.469

@<SCITEGIC>MOL_PROPERTY
VdW6
SciTegic.value.DoubleValue
-6.867

@<SCITEGIC>MOL_PROPERTY
VdW12
SciTegic.value.DoubleValue
7.336

@<SCITEGIC>MOL_PROPERTY
Bond
SciTegic.value.DoubleValue
0.205

@<SCITEGIC>MOL_PROPERTY
Angle
SciTegic.value.DoubleValue
0.962

@<SCITEGIC>MOL_PROPERTY
Pdih
SciTegic.value.DoubleValue
1.434

@<SCITEGIC>MOL_PROPERTY
Idih
SciTegic.value.DoubleValue
0.000

@<SCITEGIC>MOL_PROPERTY
Tether
SciTegic.value.DoubleValue
0.000

@<TRIPOS>MOLECULE
guest-2_confgen4.mol2 : confsearch ligand conformer 316
          23          22           1
SMALL
USER_CHARGES
 
@<TRIPOS>ATOM
       1    N1      19.410193   17.169160   20.067955 N.4        1 MOL1        -0.5940
       2    H1      20.032900   16.453349   19.678330 H          1 MOL1         0.3649
       3    H2      18.945920   17.623322   19.274878 H          1 MOL1         0.3649
       4    H3      18.685604   16.676489   20.599846 H          1 MOL1         0.3649
       5    C1      20.164191   18.164175   20.926485 C.3        1 MOL1         0.0207
       6    H4      20.935566   18.629173   20.306721 H          1 MOL1         0.0950
       7    H5      20.656059   17.609722   21.729965 H          1 MOL1         0.0950
       8    C2      19.256375   19.253463   21.527433 C.3        1 MOL1        -0.1415
       9    H6      18.739058   19.779074   20.713894 H          1 MOL1         0.0976
      10    H7      18.473765   18.787070   22.139342 H          1 MOL1         0.0976
      11    C3      20.042152   20.287997   22.370853 C.3        1 MOL1        -0.1375
      12    H8      19.344246   21.046178   22.750376 H          1 MOL1         0.0976
      13    H9      20.736409   20.828331   21.712555 H          1 MOL1         0.0976
      14    C4      20.848600   19.686698   23.553579 C.3        1 MOL1        -0.1375
      15    H10     21.655981   19.054277   23.160538 H          1 MOL1         0.0976
      16    H11     21.349508   20.505432   24.088308 H          1 MOL1         0.0976
      17    C5      20.015625   18.863064   24.568468 C.3        1 MOL1        -0.1350
      18    H12     20.690622   18.480804   25.346894 H          1 MOL1         0.0976
      19    H13     19.588961   17.977114   24.079419 H          1 MOL1         0.0976
      20    C6      18.890213   19.679477   25.243326 C.3        1 MOL1        -0.2365
      21    H14     19.291896   20.578232   25.728950 H          1 MOL1         0.0987
      22    H15     18.387119   19.078760   26.012013 H          1 MOL1         0.0987
      23    H16     18.129202   19.991982   24.517544 H          1 MOL1         0.0987
@<TRIPOS>BOND
    1     1     2    1
    2     1     3    1
    3     1     4    1
    4     1     5    1
    5     5     6    1
    6     5     7    1
    7     5     8    1
    8     8     9    1
    9     8    10    1
   10     8    11    1
   11    11    12    1
   12    11    13    1
   13    11    14    1
   14    14    15    1
   15    14    16    1
   16    14    17    1
   17    17    18    1
   18    17    19    1
   19    17    20    1
   20    20    21    1
   21    20    22    1
   22    20    23    1
@<TRIPOS>SUBSTRUCTURE
       1 MOL1            1 RESIDUE      1      MOL     
@<SCITEGIC>MOL_PROPERTY
VConf Rank
SciTegic.value.IntegerValue
316

@<SCITEGIC>MOL_PROPERTY
Conf_Id
SciTegic.value.IntegerValue
26

@<SCITEGIC>MOL_PROPERTY
Delta U+W
SciTegic.value.DoubleValue
1.076

@<SCITEGIC>MOL_PROPERTY
U+W
SciTegic.value.DoubleValue
-7.306

@<SCITEGIC>MOL_PROPERTY
Grad RMS
SciTegic.value.DoubleValue
0.000000

@<SCITEGIC>MOL_PROPERTY
U
SciTegic.value.DoubleValue
48.641

@<SCITEGIC>MOL_PROPERTY
W
SciTegic.value.DoubleValue
-55.947

@<SCITEGIC>MOL_PROPERTY
W(PB)
SciTegic.value.DoubleValue
-58.031

@<SCITEGIC>MOL_PROPERTY
W(SA)
SciTegic.value.DoubleValue
2.084

@<SCITEGIC>MOL_PROPERTY
Valence
SciTegic.value.DoubleValue
2.922

@<SCITEGIC>MOL_PROPERTY
Coulomb
SciTegic.value.DoubleValue
45.269

@<SCITEGIC>MOL_PROPERTY
VdW
SciTegic.value.DoubleValue
0.449

@<SCITEGIC>MOL_PROPERTY
VdW6
SciTegic.value.DoubleValue
-7.045

@<SCITEGIC>MOL_PROPERTY
VdW12
SciTegic.value.DoubleValue
7.494

@<SCITEGIC>MOL_PROPERTY
Bond
SciTegic.value.DoubleValue
0.220

@<SCITEGIC>MOL_PROPERTY
Angle
SciTegic.value.DoubleValue
1.205

@<SCITEGIC>MOL_PROPERTY
Pdih
SciTegic.value.DoubleValue
1.497

@<SCITEGIC>MOL_PROPERTY
Idih
SciTegic.value.DoubleValue
0.000

@<SCITEGIC>MOL_PROPERTY
Tether
SciTegic.value.DoubleValue
0.000

@<TRIPOS>MOLECULE
guest-2_confgen4.mol2 : confsearch ligand conformer 317
          23          22           1
SMALL
USER_CHARGES
 
@<TRIPOS>ATOM
       1    N1      18.228106   16.850730   24.263641 N.4        1 MOL1        -0.5940
       2    H1      18.622859   16.630614   25.183696 H          1 MOL1         0.3649
       3    H2      17.727017   16.013824   23.946693 H          1 MOL1         0.3649
       4    H3      17.525377   17.583543   24.404427 H          1 MOL1         0.3649
       5    C1      19.297112   17.274077   23.276911 C.3        1 MOL1         0.0207
       6    H4      18.811515   17.462576   22.315872 H          1 MOL1         0.0950
       7    H5      19.992708   16.439666   23.153407 H          1 MOL1         0.0950
       8    C2      20.068714   18.529706   23.723951 C.3        1 MOL1        -0.1415
       9    H6      19.369687   19.364602   23.860856 H          1 MOL1         0.0976
      10    H7      20.521162   18.342399   24.706771 H          1 MOL1         0.0976
      11    C3      21.184991   18.931312   22.728108 C.3        1 MOL1        -0.1375
      12    H8      21.937697   18.131426   22.697658 H          1 MOL1         0.0976
      13    H9      21.709154   19.815799   23.113966 H          1 MOL1         0.0976
      14    C4      20.697737   19.207535   21.279991 C.3        1 MOL1        -0.1375
      15    H10     21.563198   19.497450   20.668359 H          1 MOL1         0.0976
      16    H11     20.323192   18.274956   20.836918 H          1 MOL1         0.0976
      17    C5      19.605168   20.299003   21.148802 C.3        1 MOL1        -0.1350
      18    H12     18.689110   19.983615   21.665994 H          1 MOL1         0.0976
      19    H13     19.333239   20.396489   20.088498 H          1 MOL1         0.0976
      20    C6      20.052923   21.680927   21.676362 C.3        1 MOL1        -0.2365
      21    H14     20.231416   21.659878   22.758608 H          1 MOL1         0.0987
      22    H15     19.279392   22.435423   21.483418 H          1 MOL1         0.0987
      23    H16     20.975504   22.011716   21.182030 H          1 MOL1         0.0987
@<TRIPOS>BOND
    1     1     2    1
    2     1     3    1
    3     1     4    1
    4     1     5    1
    5     5     6    1
    6     5     7    1
    7     5     8    1
    8     8     9    1
    9     8    10    1
   10     8    11    1
   11    11    12    1
   12    11    13    1
   13    11    14    1
   14    14    15    1
   15    14    16    1
   16    14    17    1
   17    17    18    1
   18    17    19    1
   19    17    20    1
   20    20    21    1
   21    20    22    1
   22    20    23    1
@<TRIPOS>SUBSTRUCTURE
       1 MOL1            1 RESIDUE      1      MOL     
@<SCITEGIC>MOL_PROPERTY
VConf Rank
SciTegic.value.IntegerValue
317

@<SCITEGIC>MOL_PROPERTY
Conf_Id
SciTegic.value.IntegerValue
90

@<SCITEGIC>MOL_PROPERTY
Delta U+W
SciTegic.value.DoubleValue
1.131

@<SCITEGIC>MOL_PROPERTY
U+W
SciTegic.value.DoubleValue
-7.251

@<SCITEGIC>MOL_PROPERTY
Grad RMS
SciTegic.value.DoubleValue
0.000000

@<SCITEGIC>MOL_PROPERTY
U
SciTegic.value.DoubleValue
48.641

@<SCITEGIC>MOL_PROPERTY
W
SciTegic.value.DoubleValue
-55.892

@<SCITEGIC>MOL_PROPERTY
W(PB)
SciTegic.value.DoubleValue
-57.962

@<SCITEGIC>MOL_PROPERTY
W(SA)
SciTegic.value.DoubleValue
2.070

@<SCITEGIC>MOL_PROPERTY
Valence
SciTegic.value.DoubleValue
2.922

@<SCITEGIC>MOL_PROPERTY
Coulomb
SciTegic.value.DoubleValue
45.269

@<SCITEGIC>MOL_PROPERTY
VdW
SciTegic.value.DoubleValue
0.450

@<SCITEGIC>MOL_PROPERTY
VdW6
SciTegic.value.DoubleValue
-7.045

@<SCITEGIC>MOL_PROPERTY
VdW12
SciTegic.value.DoubleValue
7.495

@<SCITEGIC>MOL_PROPERTY
Bond
SciTegic.value.DoubleValue
0.220

@<SCITEGIC>MOL_PROPERTY
Angle
SciTegic.value.DoubleValue
1.205

@<SCITEGIC>MOL_PROPERTY
Pdih
SciTegic.value.DoubleValue
1.497

@<SCITEGIC>MOL_PROPERTY
Idih
SciTegic.value.DoubleValue
0.000

@<SCITEGIC>MOL_PROPERTY
Tether
SciTegic.value.DoubleValue
0.000

@<TRIPOS>MOLECULE
guest-2_confgen4.mol2 : confsearch ligand conformer 318
          23          22           1
SMALL
USER_CHARGES
 
@<TRIPOS>ATOM
       1    N1      20.651639   21.431904   22.290392 N.4        1 MOL1        -0.5940
       2    H1      20.757927   22.257641   22.889317 H          1 MOL1         0.3649
       3    H2      19.678285   21.123060   22.372984 H          1 MOL1         0.3649
       4    H3      20.790511   21.743560   21.323873 H          1 MOL1         0.3649
       5    C1      21.621587   20.330877   22.671624 C.3        1 MOL1         0.0207
       6    H4      21.441771   20.067844   23.717184 H          1 MOL1         0.0950
       7    H5      22.633753   20.737035   22.593690 H          1 MOL1         0.0950
       8    C2      21.506549   19.070823   21.789628 C.3        1 MOL1        -0.1415
       9    H6      21.735398   19.337783   20.749363 H          1 MOL1         0.0976
      10    H7      22.278711   18.353542   22.098039 H          1 MOL1         0.0976
      11    C3      20.118583   18.384848   21.849368 C.3        1 MOL1        -0.1375
      12    H8      20.130272   17.512626   21.181384 H          1 MOL1         0.0976
      13    H9      19.356328   19.065707   21.449990 H          1 MOL1         0.0976
      14    C4      19.729711   17.925724   23.277464 C.3        1 MOL1        -0.1375
      15    H10     20.543989   17.315269   23.691669 H          1 MOL1         0.0976
      16    H11     19.626689   18.795194   23.940290 H          1 MOL1         0.0976
      17    C5      18.423150   17.097237   23.321053 C.3        1 MOL1        -0.1350
      18    H12     18.276840   16.722824   24.343914 H          1 MOL1         0.0976
      19    H13     18.523664   16.209741   22.680720 H          1 MOL1         0.0976
      20    C6      17.172126   17.902300   22.901592 C.3        1 MOL1        -0.2365
      21    H14     17.063778   18.809515   23.509999 H          1 MOL1         0.0987
      22    H15     16.264904   17.298926   23.035096 H          1 MOL1         0.0987
      23    H16     17.218080   18.198423   21.846314 H          1 MOL1         0.0987
@<TRIPOS>BOND
    1     1     2    1
    2     1     3    1
    3     1     4    1
    4     1     5    1
    5     5     6    1
    6     5     7    1
    7     5     8    1
    8     8     9    1
    9     8    10    1
   10     8    11    1
   11    11    12    1
   12    11    13    1
   13    11    14    1
   14    14    15    1
   15    14    16    1
   16    14    17    1
   17    17    18    1
   18    17    19    1
   19    17    20    1
   20    20    21    1
   21    20    22    1
   22    20    23    1
@<TRIPOS>SUBSTRUCTURE
       1 MOL1            1 RESIDUE      1      MOL     
@<SCITEGIC>MOL_PROPERTY
VConf Rank
SciTegic.value.IntegerValue
318

@<SCITEGIC>MOL_PROPERTY
Conf_Id
SciTegic.value.IntegerValue
85

@<SCITEGIC>MOL_PROPERTY
Delta U+W
SciTegic.value.DoubleValue
1.193

@<SCITEGIC>MOL_PROPERTY
U+W
SciTegic.value.DoubleValue
-7.189

@<SCITEGIC>MOL_PROPERTY
Grad RMS
SciTegic.value.DoubleValue
0.000000

@<SCITEGIC>MOL_PROPERTY
U
SciTegic.value.DoubleValue
48.775

@<SCITEGIC>MOL_PROPERTY
W
SciTegic.value.DoubleValue
-55.965

@<SCITEGIC>MOL_PROPERTY
W(PB)
SciTegic.value.DoubleValue
-58.038

@<SCITEGIC>MOL_PROPERTY
W(SA)
SciTegic.value.DoubleValue
2.073

@<SCITEGIC>MOL_PROPERTY
Valence
SciTegic.value.DoubleValue
2.602

@<SCITEGIC>MOL_PROPERTY
Coulomb
SciTegic.value.DoubleValue
45.581

@<SCITEGIC>MOL_PROPERTY
VdW
SciTegic.value.DoubleValue
0.592

@<SCITEGIC>MOL_PROPERTY
VdW6
SciTegic.value.DoubleValue
-6.616

@<SCITEGIC>MOL_PROPERTY
VdW12
SciTegic.value.DoubleValue
7.208

@<SCITEGIC>MOL_PROPERTY
Bond
SciTegic.value.DoubleValue
0.196

@<SCITEGIC>MOL_PROPERTY
Angle
SciTegic.value.DoubleValue
0.832

@<SCITEGIC>MOL_PROPERTY
Pdih
SciTegic.value.DoubleValue
1.574

@<SCITEGIC>MOL_PROPERTY
Idih
SciTegic.value.DoubleValue
0.000

@<SCITEGIC>MOL_PROPERTY
Tether
SciTegic.value.DoubleValue
0.000

@<TRIPOS>MOLECULE
guest-2_confgen4.mol2 : confsearch ligand conformer 319
          23          22           1
SMALL
USER_CHARGES
 
@<TRIPOS>ATOM
       1    N1      20.627082   18.715880   24.405947 N.4        1 MOL1        -0.5940
       2    H1      20.385011   19.502179   23.794550 H          1 MOL1         0.3649
       3    H2      21.590724   18.860857   24.726383 H          1 MOL1         0.3649
       4    H3      20.025068   18.775193   25.233639 H          1 MOL1         0.3649
       5    C1      20.465764   17.389349   23.689041 C.3        1 MOL1         0.0207
       6    H4      20.738896   16.606136   24.401421 H          1 MOL1         0.0950
       7    H5      21.173604   17.352569   22.856732 H          1 MOL1         0.0950
       8    C2      19.036427   17.124693   23.173608 C.3        1 MOL1        -0.1415
       9    H6      18.922949   16.039835   23.046935 H          1 MOL1         0.0976
      10    H7      18.305871   17.413470   23.940921 H          1 MOL1         0.0976
      11    C3      18.684951   17.798940   21.820107 C.3        1 MOL1        -0.1375
      12    H8      17.667984   17.482277   21.549907 H          1 MOL1         0.0976
      13    H9      19.335006   17.406661   21.025742 H          1 MOL1         0.0976
      14    C4      18.720149   19.348784   21.822388 C.3        1 MOL1        -0.1375
      15    H10     17.914776   19.716971   21.171580 H          1 MOL1         0.0976
      16    H11     18.487875   19.731870   22.824894 H          1 MOL1         0.0976
      17    C5      20.056629   19.928861   21.298523 C.3        1 MOL1        -0.1350
      18    H12     20.175498   19.663927   20.238422 H          1 MOL1         0.0976
      19    H13     20.912382   19.482496   21.818833 H          1 MOL1         0.0976
      20    C6      20.109171   21.464207   21.446100 C.3        1 MOL1        -0.2365
      21    H14     19.292255   21.941382   20.889036 H          1 MOL1         0.0987
      22    H15     21.056557   21.858702   21.056211 H          1 MOL1         0.0987
      23    H16     20.026177   21.766598   22.497973 H          1 MOL1         0.0987
@<TRIPOS>BOND
    1     1     2    1
    2     1     3    1
    3     1     4    1
    4     1     5    1
    5     5     6    1
    6     5     7    1
    7     5     8    1
    8     8     9    1
    9     8    10    1
   10     8    11    1
   11    11    12    1
   12    11    13    1
   13    11    14    1
   14    14    15    1
   15    14    16    1
   16    14    17    1
   17    17    18    1
   18    17    19    1
   19    17    20    1
   20    20    21    1
   21    20    22    1
   22    20    23    1
@<TRIPOS>SUBSTRUCTURE
       1 MOL1            1 RESIDUE      1      MOL     
@<SCITEGIC>MOL_PROPERTY
VConf Rank
SciTegic.value.IntegerValue
319

@<SCITEGIC>MOL_PROPERTY
Conf_Id
SciTegic.value.IntegerValue
82

@<SCITEGIC>MOL_PROPERTY
Delta U+W
SciTegic.value.DoubleValue
5.994

@<SCITEGIC>MOL_PROPERTY
U+W
SciTegic.value.DoubleValue
-2.388

@<SCITEGIC>MOL_PROPERTY
Grad RMS
SciTegic.value.DoubleValue
0.000000

@<SCITEGIC>MOL_PROPERTY
U
SciTegic.value.DoubleValue
52.836

@<SCITEGIC>MOL_PROPERTY
W
SciTegic.value.DoubleValue
-55.224

@<SCITEGIC>MOL_PROPERTY
W(PB)
SciTegic.value.DoubleValue
-57.261

@<SCITEGIC>MOL_PROPERTY
W(SA)
SciTegic.value.DoubleValue
2.037

@<SCITEGIC>MOL_PROPERTY
Valence
SciTegic.value.DoubleValue
5.785

@<SCITEGIC>MOL_PROPERTY
Coulomb
SciTegic.value.DoubleValue
46.744

@<SCITEGIC>MOL_PROPERTY
VdW
SciTegic.value.DoubleValue
0.307

@<SCITEGIC>MOL_PROPERTY
VdW6
SciTegic.value.DoubleValue
-7.672

@<SCITEGIC>MOL_PROPERTY
VdW12
SciTegic.value.DoubleValue
7.979

@<SCITEGIC>MOL_PROPERTY
Bond
SciTegic.value.DoubleValue
0.217

@<SCITEGIC>MOL_PROPERTY
Angle
SciTegic.value.DoubleValue
1.470

@<SCITEGIC>MOL_PROPERTY
Pdih
SciTegic.value.DoubleValue
4.098

@<SCITEGIC>MOL_PROPERTY
Idih
SciTegic.value.DoubleValue
0.000

@<SCITEGIC>MOL_PROPERTY
Tether
SciTegic.value.DoubleValue
0.000

@<TRIPOS>MOLECULE
guest-2_confgen4.mol2 : confsearch ligand conformer 320
          23          22           1
SMALL
USER_CHARGES
 
@<TRIPOS>ATOM
       1    N1      19.064686   18.234639   24.316736 N.4        1 MOL1        -0.5940
       2    H1      19.206618   17.238298   24.512120 H          1 MOL1         0.3649
       3    H2      18.808505   18.679718   25.204754 H          1 MOL1         0.3649
       4    H3      19.968997   18.621797   24.028632 H          1 MOL1         0.3649
       5    C1      18.006848   18.452233   23.252175 C.3        1 MOL1         0.0207
       6    H4      17.848953   19.527033   23.129690 H          1 MOL1         0.0950
       7    H5      17.079011   18.013979   23.629748 H          1 MOL1         0.0950
       8    C2      18.347177   17.813867   21.890051 C.3        1 MOL1        -0.1415
       9    H6      18.755451   16.806182   22.044180 H          1 MOL1         0.0976
      10    H7      17.405595   17.673730   21.342672 H          1 MOL1         0.0976
      11    C3      19.299891   18.644614   20.988769 C.3        1 MOL1        -0.1375
      12    H8      18.828710   19.602314   20.727485 H          1 MOL1         0.0976
      13    H9      19.408937   18.102700   20.039062 H          1 MOL1         0.0976
      14    C4      20.717171   18.887168   21.568205 C.3        1 MOL1        -0.1375
      15    H10     21.000232   18.062425   22.235589 H          1 MOL1         0.0976
      16    H11     21.441191   18.860231   20.741883 H          1 MOL1         0.0976
      17    C5      20.858989   20.255083   22.279400 C.3        1 MOL1        -0.1350
      18    H12     20.064773   20.399132   23.021529 H          1 MOL1         0.0976
      19    H13     20.734047   21.060951   21.542447 H          1 MOL1         0.0976
      20    C6      22.234541   20.402733   22.963420 C.3        1 MOL1        -0.2365
      21    H14     22.382544   19.632565   23.731342 H          1 MOL1         0.0987
      22    H15     22.322544   21.383414   23.448908 H          1 MOL1         0.0987
      23    H16     23.049032   20.315785   22.232385 H          1 MOL1         0.0987
@<TRIPOS>BOND
    1     1     2    1
    2     1     3    1
    3     1     4    1
    4     1     5    1
    5     5     6    1
    6     5     7    1
    7     5     8    1
    8     8     9    1
    9     8    10    1
   10     8    11    1
   11    11    12    1
   12    11    13    1
   13    11    14    1
   14    14    15    1
   15    14    16    1
   16    14    17    1
   17    17    18    1
   18    17    19    1
   19    17    20    1
   20    20    21    1
   21    20    22    1
   22    20    23    1
@<TRIPOS>SUBSTRUCTURE
       1 MOL1            1 RESIDUE      1      MOL     
@<SCITEGIC>MOL_PROPERTY
VConf Rank
SciTegic.value.IntegerValue
320

@<SCITEGIC>MOL_PROPERTY
Conf_Id
SciTegic.value.IntegerValue
5

@<SCITEGIC>MOL_PROPERTY
Delta U+W
SciTegic.value.DoubleValue
6.087

@<SCITEGIC>MOL_PROPERTY
U+W
SciTegic.value.DoubleValue
-2.295

@<SCITEGIC>MOL_PROPERTY
Grad RMS
SciTegic.value.DoubleValue
0.000000

@<SCITEGIC>MOL_PROPERTY
U
SciTegic.value.DoubleValue
52.836

@<SCITEGIC>MOL_PROPERTY
W
SciTegic.value.DoubleValue
-55.131

@<SCITEGIC>MOL_PROPERTY
W(PB)
SciTegic.value.DoubleValue
-57.202

@<SCITEGIC>MOL_PROPERTY
W(SA)
SciTegic.value.DoubleValue
2.071

@<SCITEGIC>MOL_PROPERTY
Valence
SciTegic.value.DoubleValue
5.785

@<SCITEGIC>MOL_PROPERTY
Coulomb
SciTegic.value.DoubleValue
46.744

@<SCITEGIC>MOL_PROPERTY
VdW
SciTegic.value.DoubleValue
0.307

@<SCITEGIC>MOL_PROPERTY
VdW6
SciTegic.value.DoubleValue
-7.672

@<SCITEGIC>MOL_PROPERTY
VdW12
SciTegic.value.DoubleValue
7.980

@<SCITEGIC>MOL_PROPERTY
Bond
SciTegic.value.DoubleValue
0.217

@<SCITEGIC>MOL_PROPERTY
Angle
SciTegic.value.DoubleValue
1.470

@<SCITEGIC>MOL_PROPERTY
Pdih
SciTegic.value.DoubleValue
4.098

@<SCITEGIC>MOL_PROPERTY
Idih
SciTegic.value.DoubleValue
0.000

@<SCITEGIC>MOL_PROPERTY
Tether
SciTegic.value.DoubleValue
0.000

@<TRIPOS>MOLECULE
guest-2_confgen4.mol2 : confsearch ligand conformer 321
          23          22           1
SMALL
USER_CHARGES
 
@<TRIPOS>ATOM
       1    N1      19.985241   16.157140   20.037167 N.4        1 MOL1        -0.5940
       2    H1      20.779773   16.535338   19.511267 H          1 MOL1         0.3649
       3    H2      19.391130   15.661506   19.363763 H          1 MOL1         0.3649
       4    H3      20.357991   15.451771   20.680903 H          1 MOL1         0.3649
       5    C1      19.222311   17.243179   20.768163 C.3        1 MOL1         0.0207
       6    H4      18.376749   16.775587   21.279903 H          1 MOL1         0.0950
       7    H5      18.830069   17.940248   20.022685 H          1 MOL1         0.0950
       8    C2      20.086629   18.006785   21.787200 C.3        1 MOL1        -0.1415
       9    H6      20.491527   17.300471   22.524274 H          1 MOL1         0.0976
      10    H7      20.943309   18.460930   21.271495 H          1 MOL1         0.0976
      11    C3      19.273067   19.103364   22.509567 C.3        1 MOL1        -0.1375
      12    H8      18.414001   18.645687   23.019802 H          1 MOL1         0.0976
      13    H9      18.865354   19.804923   21.768361 H          1 MOL1         0.0976
      14    C4      20.131730   19.876955   23.535851 C.3        1 MOL1        -0.1375
      15    H10     20.539356   19.175630   24.277132 H          1 MOL1         0.0976
      16    H11     20.990739   20.334660   23.025827 H          1 MOL1         0.0976
      17    C5      19.317799   20.973636   24.258046 C.3        1 MOL1        -0.1350
      18    H12     18.458485   20.520375   24.771959 H          1 MOL1         0.0976
      19    H13     18.909843   21.679304   23.520768 H          1 MOL1         0.0976
      20    C6      20.178474   21.743893   25.281985 C.3        1 MOL1        -0.2365
      21    H14     19.583595   22.517787   25.784233 H          1 MOL1         0.0987
      22    H15     21.028009   22.237224   24.791940 H          1 MOL1         0.0987
      23    H16     20.573149   21.069236   26.052893 H          1 MOL1         0.0987
@<TRIPOS>BOND
    1     1     2    1
    2     1     3    1
    3     1     4    1
    4     1     5    1
    5     5     6    1
    6     5     7    1
    7     5     8    1
    8     8     9    1
    9     8    10    1
   10     8    11    1
   11    11    12    1
   12    11    13    1
   13    11    14    1
   14    14    15    1
   15    14    16    1
   16    14    17    1
   17    17    18    1
   18    17    19    1
   19    17    20    1
   20    20    21    1
   21    20    22    1
   22    20    23    1
@<TRIPOS>SUBSTRUCTURE
       1 MOL1            1 RESIDUE      1      MOL     
@<SCITEGIC>MOL_PROPERTY
VConf Rank
SciTegic.value.IntegerValue
321

@<SCITEGIC>MOL_PROPERTY
Conf_Id
SciTegic.value.IntegerValue
40

@<SCITEGIC>MOL_PROPERTY
Delta U+W
SciTegic.value.DoubleValue
0.000

@<SCITEGIC>MOL_PROPERTY
U+W
SciTegic.value.DoubleValue
-8.382

@<SCITEGIC>MOL_PROPERTY
Grad RMS
SciTegic.value.DoubleValue
0.000000

@<SCITEGIC>MOL_PROPERTY
U
SciTegic.value.DoubleValue
46.604

@<SCITEGIC>MOL_PROPERTY
W
SciTegic.value.DoubleValue
-54.986

@<SCITEGIC>MOL_PROPERTY
W(PB)
SciTegic.value.DoubleValue
-57.162

@<SCITEGIC>MOL_PROPERTY
W(SA)
SciTegic.value.DoubleValue
2.176

@<SCITEGIC>MOL_PROPERTY
Valence
SciTegic.value.DoubleValue
1.727

@<SCITEGIC>MOL_PROPERTY
Coulomb
SciTegic.value.DoubleValue
44.434

@<SCITEGIC>MOL_PROPERTY
VdW
SciTegic.value.DoubleValue
0.443

@<SCITEGIC>MOL_PROPERTY
VdW6
SciTegic.value.DoubleValue
-4.623

@<SCITEGIC>MOL_PROPERTY
VdW12
SciTegic.value.DoubleValue
5.066

@<SCITEGIC>MOL_PROPERTY
Bond
SciTegic.value.DoubleValue
0.112

@<SCITEGIC>MOL_PROPERTY
Angle
SciTegic.value.DoubleValue
0.386

@<SCITEGIC>MOL_PROPERTY
Pdih
SciTegic.value.DoubleValue
1.228

@<SCITEGIC>MOL_PROPERTY
Idih
SciTegic.value.DoubleValue
0.000

@<SCITEGIC>MOL_PROPERTY
Tether
SciTegic.value.DoubleValue
0.000

@<TRIPOS>MOLECULE
guest-2_confgen4.mol2 : confsearch ligand conformer 322
          23          22           1
SMALL
USER_CHARGES
 
@<TRIPOS>ATOM
       1    N1      19.151821   18.059369   19.222768 N.4        1 MOL1        -0.5940
       2    H1      18.287565   17.511873   19.158354 H          1 MOL1         0.3649
       3    H2      19.932857   17.401072   19.136392 H          1 MOL1         0.3649
       4    H3      19.181564   18.667159   18.397095 H          1 MOL1         0.3649
       5    C1      19.222534   18.854916   20.510358 C.3        1 MOL1         0.0207
       6    H4      18.380808   19.552595   20.522653 H          1 MOL1         0.0950
       7    H5      20.149404   19.433892   20.495587 H          1 MOL1         0.0950
       8    C2      19.179571   17.969095   21.769965 C.3        1 MOL1        -0.1415
       9    H6      18.266702   17.359109   21.746832 H          1 MOL1         0.0976
      10    H7      20.025509   17.268918   21.758752 H          1 MOL1         0.0976
      11    C3      19.200609   18.789164   23.081706 C.3        1 MOL1        -0.1375
      12    H8      19.052578   18.097601   23.921224 H          1 MOL1         0.0976
      13    H9      18.347732   19.481849   23.094384 H          1 MOL1         0.0976
      14    C4      20.519200   19.578310   23.284543 C.3        1 MOL1        -0.1375
      15    H10     21.369764   18.882826   23.292586 H          1 MOL1         0.0976
      16    H11     20.679060   20.251902   22.432355 H          1 MOL1         0.0976
      17    C5      20.535615   20.427990   24.578491 C.3        1 MOL1        -0.1350
      18    H12     19.692664   21.133099   24.571121 H          1 MOL1         0.0976
      19    H13     21.448013   21.040653   24.585397 H          1 MOL1         0.0976
      20    C6      20.495831   19.582832   25.872136 C.3        1 MOL1        -0.2365
      21    H14     19.544601   19.046382   25.975279 H          1 MOL1         0.0987
      22    H15     20.607876   20.226226   26.754427 H          1 MOL1         0.0987
      23    H16     21.310117   18.846839   25.888393 H          1 MOL1         0.0987
@<TRIPOS>BOND
    1     1     2    1
    2     1     3    1
    3     1     4    1
    4     1     5    1
    5     5     6    1
    6     5     7    1
    7     5     8    1
    8     8     9    1
    9     8    10    1
   10     8    11    1
   11    11    12    1
   12    11    13    1
   13    11    14    1
   14    14    15    1
   15    14    16    1
   16    14    17    1
   17    17    18    1
   18    17    19    1
   19    17    20    1
   20    20    21    1
   21    20    22    1
   22    20    23    1
@<TRIPOS>SUBSTRUCTURE
       1 MOL1            1 RESIDUE      1      MOL     
@<SCITEGIC>MOL_PROPERTY
VConf Rank
SciTegic.value.IntegerValue
322

@<SCITEGIC>MOL_PROPERTY
Conf_Id
SciTegic.value.IntegerValue
65

@<SCITEGIC>MOL_PROPERTY
Delta U+W
SciTegic.value.DoubleValue
1.004

@<SCITEGIC>MOL_PROPERTY
U+W
SciTegic.value.DoubleValue
-7.378

@<SCITEGIC>MOL_PROPERTY
Grad RMS
SciTegic.value.DoubleValue
0.000000

@<SCITEGIC>MOL_PROPERTY
U
SciTegic.value.DoubleValue
48.047

@<SCITEGIC>MOL_PROPERTY
W
SciTegic.value.DoubleValue
-55.425

@<SCITEGIC>MOL_PROPERTY
W(PB)
SciTegic.value.DoubleValue
-57.542

@<SCITEGIC>MOL_PROPERTY
W(SA)
SciTegic.value.DoubleValue
2.116

@<SCITEGIC>MOL_PROPERTY
Valence
SciTegic.value.DoubleValue
2.583

@<SCITEGIC>MOL_PROPERTY
Coulomb
SciTegic.value.DoubleValue
44.791

@<SCITEGIC>MOL_PROPERTY
VdW
SciTegic.value.DoubleValue
0.673

@<SCITEGIC>MOL_PROPERTY
VdW6
SciTegic.value.DoubleValue
-5.788

@<SCITEGIC>MOL_PROPERTY
VdW12
SciTegic.value.DoubleValue
6.462

@<SCITEGIC>MOL_PROPERTY
Bond
SciTegic.value.DoubleValue
0.177

@<SCITEGIC>MOL_PROPERTY
Angle
SciTegic.value.DoubleValue
0.787

@<SCITEGIC>MOL_PROPERTY
Pdih
SciTegic.value.DoubleValue
1.619

@<SCITEGIC>MOL_PROPERTY
Idih
SciTegic.value.DoubleValue
0.000

@<SCITEGIC>MOL_PROPERTY
Tether
SciTegic.value.DoubleValue
0.000

@<TRIPOS>MOLECULE
guest-2_confgen4.mol2 : confsearch ligand conformer 323
          23          22           1
SMALL
USER_CHARGES
 
@<TRIPOS>ATOM
       1    N1      20.633404   15.555748   22.743201 N.4        1 MOL1        -0.5940
       2    H1      20.367372   15.088353   21.870500 H          1 MOL1         0.3649
       3    H2      20.430307   14.900608   23.505809 H          1 MOL1         0.3649
       4    H3      21.650651   15.680356   22.720483 H          1 MOL1         0.3649
       5    C1      19.906255   16.872737   22.923676 C.3        1 MOL1         0.0207
       6    H4      20.213975   17.296216   23.883100 H          1 MOL1         0.0950
       7    H5      18.834118   16.663010   22.967787 H          1 MOL1         0.0950
       8    C2      20.191127   17.879099   21.792651 C.3        1 MOL1        -0.1415
       9    H6      21.267755   18.091042   21.748649 H          1 MOL1         0.0976
      10    H7      19.921508   17.421910   20.831282 H          1 MOL1         0.0976
      11    C3      19.406747   19.202728   21.955037 C.3        1 MOL1        -0.1375
      12    H8      18.329576   18.988416   21.988856 H          1 MOL1         0.0976
      13    H9      19.574723   19.813422   21.058488 H          1 MOL1         0.0976
      14    C4      19.820972   20.004474   23.215273 C.3        1 MOL1        -0.1375
      15    H10     19.675890   19.384147   24.109504 H          1 MOL1         0.0976
      16    H11     20.894028   20.236400   23.170761 H          1 MOL1         0.0976
      17    C5      19.017667   21.314359   23.403479 C.3        1 MOL1        -0.1350
      18    H12     19.288419   21.756853   24.372377 H          1 MOL1         0.0976
      19    H13     17.943820   21.087334   23.459254 H          1 MOL1         0.0976
      20    C6      19.271739   22.358930   22.292756 C.3        1 MOL1        -0.2365
      21    H14     18.900541   22.013072   21.320207 H          1 MOL1         0.0987
      22    H15     20.342766   22.578639   22.194580 H          1 MOL1         0.0987
      23    H16     18.756531   23.299800   22.525716 H          1 MOL1         0.0987
@<TRIPOS>BOND
    1     1     2    1
    2     1     3    1
    3     1     4    1
    4     1     5    1
    5     5     6    1
    6     5     7    1
    7     5     8    1
    8     8     9    1
    9     8    10    1
   10     8    11    1
   11    11    12    1
   12    11    13    1
   13    11    14    1
   14    14    15    1
   15    14    16    1
   16    14    17    1
   17    17    18    1
   18    17    19    1
   19    17    20    1
   20    20    21    1
   21    20    22    1
   22    20    23    1
@<TRIPOS>SUBSTRUCTURE
       1 MOL1            1 RESIDUE      1      MOL     
@<SCITEGIC>MOL_PROPERTY
VConf Rank
SciTegic.value.IntegerValue
323

@<SCITEGIC>MOL_PROPERTY
Conf_Id
SciTegic.value.IntegerValue
92

@<SCITEGIC>MOL_PROPERTY
Delta U+W
SciTegic.value.DoubleValue
0.973

@<SCITEGIC>MOL_PROPERTY
U+W
SciTegic.value.DoubleValue
-7.409

@<SCITEGIC>MOL_PROPERTY
Grad RMS
SciTegic.value.DoubleValue
0.000000

@<SCITEGIC>MOL_PROPERTY
U
SciTegic.value.DoubleValue
48.047

@<SCITEGIC>MOL_PROPERTY
W
SciTegic.value.DoubleValue
-55.456

@<SCITEGIC>MOL_PROPERTY
W(PB)
SciTegic.value.DoubleValue
-57.595

@<SCITEGIC>MOL_PROPERTY
W(SA)
SciTegic.value.DoubleValue
2.138

@<SCITEGIC>MOL_PROPERTY
Valence
SciTegic.value.DoubleValue
2.583

@<SCITEGIC>MOL_PROPERTY
Coulomb
SciTegic.value.DoubleValue
44.791

@<SCITEGIC>MOL_PROPERTY
VdW
SciTegic.value.DoubleValue
0.674

@<SCITEGIC>MOL_PROPERTY
VdW6
SciTegic.value.DoubleValue
-5.789

@<SCITEGIC>MOL_PROPERTY
VdW12
SciTegic.value.DoubleValue
6.462

@<SCITEGIC>MOL_PROPERTY
Bond
SciTegic.value.DoubleValue
0.177

@<SCITEGIC>MOL_PROPERTY
Angle
SciTegic.value.DoubleValue
0.787

@<SCITEGIC>MOL_PROPERTY
Pdih
SciTegic.value.DoubleValue
1.619

@<SCITEGIC>MOL_PROPERTY
Idih
SciTegic.value.DoubleValue
0.000

@<SCITEGIC>MOL_PROPERTY
Tether
SciTegic.value.DoubleValue
0.000

@<TRIPOS>MOLECULE
guest-2_confgen4.mol2 : confsearch ligand conformer 324
          23          22           1
SMALL
USER_CHARGES
 
@<TRIPOS>ATOM
       1    N1      18.966245   17.917647   19.318874 N.4        1 MOL1        -0.5940
       2    H1      18.904015   16.921944   19.080680 H          1 MOL1         0.3649
       3    H2      19.483358   18.373421   18.560114 H          1 MOL1         0.3649
       4    H3      18.011044   18.289140   19.298286 H          1 MOL1         0.3649
       5    C1      19.628495   18.134420   20.664315 C.3        1 MOL1         0.0207
       6    H4      20.627102   17.691015   20.624390 H          1 MOL1         0.0950
       7    H5      19.043554   17.598239   21.416011 H          1 MOL1         0.0950
       8    C2      19.737075   19.621587   21.050840 C.3        1 MOL1        -0.1415
       9    H6      20.288134   20.156779   20.266079 H          1 MOL1         0.0976
      10    H7      18.734085   20.067080   21.090104 H          1 MOL1         0.0976
      11    C3      20.454991   19.836948   22.404077 C.3        1 MOL1        -0.1375
      12    H8      20.578576   20.916250   22.569261 H          1 MOL1         0.0976
      13    H9      21.467498   19.412812   22.353201 H          1 MOL1         0.0976
      14    C4      19.691155   19.223201   23.602129 C.3        1 MOL1        -0.1375
      15    H10     18.668659   19.624604   23.630318 H          1 MOL1         0.0976
      16    H11     19.602883   18.136051   23.474182 H          1 MOL1         0.0976
      17    C5      20.396360   19.519137   24.944470 C.3        1 MOL1        -0.1350
      18    H12     20.482754   20.605469   25.087221 H          1 MOL1         0.0976
      19    H13     21.420226   19.120201   24.921497 H          1 MOL1         0.0976
      20    C6      19.634507   18.905442   26.138422 C.3        1 MOL1        -0.2365
      21    H14     18.616645   19.310886   26.207695 H          1 MOL1         0.0987
      22    H15     20.149986   19.126479   27.082070 H          1 MOL1         0.0987
      23    H16     19.562051   17.814275   26.041859 H          1 MOL1         0.0987
@<TRIPOS>BOND
    1     1     2    1
    2     1     3    1
    3     1     4    1
    4     1     5    1
    5     5     6    1
    6     5     7    1
    7     5     8    1
    8     8     9    1
    9     8    10    1
   10     8    11    1
   11    11    12    1
   12    11    13    1
   13    11    14    1
   14    14    15    1
   15    14    16    1
   16    14    17    1
   17    17    18    1
   18    17    19    1
   19    17    20    1
   20    20    21    1
   21    20    22    1
   22    20    23    1
@<TRIPOS>SUBSTRUCTURE
       1 MOL1            1 RESIDUE      1      MOL     
@<SCITEGIC>MOL_PROPERTY
VConf Rank
SciTegic.value.IntegerValue
324

@<SCITEGIC>MOL_PROPERTY
Conf_Id
SciTegic.value.IntegerValue
42

@<SCITEGIC>MOL_PROPERTY
Delta U+W
SciTegic.value.DoubleValue
0.365

@<SCITEGIC>MOL_PROPERTY
U+W
SciTegic.value.DoubleValue
-8.017

@<SCITEGIC>MOL_PROPERTY
Grad RMS
SciTegic.value.DoubleValue
0.000000

@<SCITEGIC>MOL_PROPERTY
U
SciTegic.value.DoubleValue
47.375

@<SCITEGIC>MOL_PROPERTY
W
SciTegic.value.DoubleValue
-55.392

@<SCITEGIC>MOL_PROPERTY
W(PB)
SciTegic.value.DoubleValue
-57.543

@<SCITEGIC>MOL_PROPERTY
W(SA)
SciTegic.value.DoubleValue
2.152

@<SCITEGIC>MOL_PROPERTY
Valence
SciTegic.value.DoubleValue
2.032

@<SCITEGIC>MOL_PROPERTY
Coulomb
SciTegic.value.DoubleValue
44.843

@<SCITEGIC>MOL_PROPERTY
VdW
SciTegic.value.DoubleValue
0.499

@<SCITEGIC>MOL_PROPERTY
VdW6
SciTegic.value.DoubleValue
-5.218

@<SCITEGIC>MOL_PROPERTY
VdW12
SciTegic.value.DoubleValue
5.717

@<SCITEGIC>MOL_PROPERTY
Bond
SciTegic.value.DoubleValue
0.135

@<SCITEGIC>MOL_PROPERTY
Angle
SciTegic.value.DoubleValue
0.514

@<SCITEGIC>MOL_PROPERTY
Pdih
SciTegic.value.DoubleValue
1.383

@<SCITEGIC>MOL_PROPERTY
Idih
SciTegic.value.DoubleValue
0.000

@<SCITEGIC>MOL_PROPERTY
Tether
SciTegic.value.DoubleValue
0.000

@<TRIPOS>MOLECULE
guest-2_confgen4.mol2 : confsearch ligand conformer 325
          23          22           1
SMALL
USER_CHARGES
 
@<TRIPOS>ATOM
       1    N1      22.248201   19.794424   20.824532 N.4        1 MOL1        -0.5940
       2    H1      22.529002   20.554586   21.452177 H          1 MOL1         0.3649
       3    H2      22.731096   19.949272   19.933026 H          1 MOL1         0.3649
       4    H3      22.618826   18.924254   21.218033 H          1 MOL1         0.3649
       5    C1      20.743335   19.736949   20.646608 C.3        1 MOL1         0.0207
       6    H4      20.513659   18.924994   19.951339 H          1 MOL1         0.0950
       7    H5      20.429368   20.677867   20.186534 H          1 MOL1         0.0950
       8    C2      19.967268   19.529261   21.961834 C.3        1 MOL1        -0.1415
       9    H6      20.220663   20.330619   22.668421 H          1 MOL1         0.0976
      10    H7      18.897705   19.625448   21.738445 H          1 MOL1         0.0976
      11    C3      20.236523   18.146420   22.603751 C.3        1 MOL1        -0.1375
      12    H8      21.318025   18.007418   22.731673 H          1 MOL1         0.0976
      13    H9      19.906173   17.355624   21.916061 H          1 MOL1         0.0976
      14    C4      19.563193   17.940944   23.985585 C.3        1 MOL1        -0.1375
      15    H10     19.862259   16.949887   24.354167 H          1 MOL1         0.0976
      16    H11     19.966003   18.659680   24.712487 H          1 MOL1         0.0976
      17    C5      18.013844   18.002484   23.972476 C.3        1 MOL1        -0.1350
      18    H12     17.628422   17.273636   24.699251 H          1 MOL1         0.0976
      19    H13     17.626725   17.685929   22.993942 H          1 MOL1         0.0976
      20    C6      17.451682   19.393169   24.349608 C.3        1 MOL1        -0.2365
      21    H14     17.772323   19.684551   25.358243 H          1 MOL1         0.0987
      22    H15     16.354124   19.378799   24.340960 H          1 MOL1         0.0987
      23    H16     17.778840   20.173610   23.653907 H          1 MOL1         0.0987
@<TRIPOS>BOND
    1     1     2    1
    2     1     3    1
    3     1     4    1
    4     1     5    1
    5     5     6    1
    6     5     7    1
    7     5     8    1
    8     8     9    1
    9     8    10    1
   10     8    11    1
   11    11    12    1
   12    11    13    1
   13    11    14    1
   14    14    15    1
   15    14    16    1
   16    14    17    1
   17    17    18    1
   18    17    19    1
   19    17    20    1
   20    20    21    1
   21    20    22    1
   22    20    23    1
@<TRIPOS>SUBSTRUCTURE
       1 MOL1            1 RESIDUE      1      MOL     
@<SCITEGIC>MOL_PROPERTY
VConf Rank
SciTegic.value.IntegerValue
325

@<SCITEGIC>MOL_PROPERTY
Conf_Id
SciTegic.value.IntegerValue
3

@<SCITEGIC>MOL_PROPERTY
Delta U+W
SciTegic.value.DoubleValue
3.283

@<SCITEGIC>MOL_PROPERTY
U+W
SciTegic.value.DoubleValue
-5.099

@<SCITEGIC>MOL_PROPERTY
Grad RMS
SciTegic.value.DoubleValue
0.000000

@<SCITEGIC>MOL_PROPERTY
U
SciTegic.value.DoubleValue
50.701

@<SCITEGIC>MOL_PROPERTY
W
SciTegic.value.DoubleValue
-55.800

@<SCITEGIC>MOL_PROPERTY
W(PB)
SciTegic.value.DoubleValue
-57.867

@<SCITEGIC>MOL_PROPERTY
W(SA)
SciTegic.value.DoubleValue
2.067

@<SCITEGIC>MOL_PROPERTY
Valence
SciTegic.value.DoubleValue
4.880

@<SCITEGIC>MOL_PROPERTY
Coulomb
SciTegic.value.DoubleValue
45.095

@<SCITEGIC>MOL_PROPERTY
VdW
SciTegic.value.DoubleValue
0.726

@<SCITEGIC>MOL_PROPERTY
VdW6
SciTegic.value.DoubleValue
-6.620

@<SCITEGIC>MOL_PROPERTY
VdW12
SciTegic.value.DoubleValue
7.346

@<SCITEGIC>MOL_PROPERTY
Bond
SciTegic.value.DoubleValue
0.222

@<SCITEGIC>MOL_PROPERTY
Angle
SciTegic.value.DoubleValue
1.260

@<SCITEGIC>MOL_PROPERTY
Pdih
SciTegic.value.DoubleValue
3.398

@<SCITEGIC>MOL_PROPERTY
Idih
SciTegic.value.DoubleValue
0.000

@<SCITEGIC>MOL_PROPERTY
Tether
SciTegic.value.DoubleValue
0.000

@<TRIPOS>MOLECULE
guest-2_confgen4.mol2 : confsearch ligand conformer 326
          23          22           1
SMALL
USER_CHARGES
 
@<TRIPOS>ATOM
       1    N1      18.637520   16.826409   21.131774 N.4        1 MOL1        -0.5940
       2    H1      17.968124   17.109864   20.409198 H          1 MOL1         0.3649
       3    H2      18.717381   15.805159   21.081713 H          1 MOL1         0.3649
       4    H3      19.549262   17.212756   20.868981 H          1 MOL1         0.3649
       5    C1      18.209090   17.291230   22.509701 C.3        1 MOL1         0.0207
       6    H4      18.945354   16.931825   23.233050 H          1 MOL1         0.0950
       7    H5      17.251101   16.816187   22.737993 H          1 MOL1         0.0950
       8    C2      18.061748   18.821964   22.629787 C.3        1 MOL1        -0.1415
       9    H6      17.282879   19.161975   21.934402 H          1 MOL1         0.0976
      10    H7      17.697732   19.062864   23.637418 H          1 MOL1         0.0976
      11    C3      19.368651   19.609076   22.357569 C.3        1 MOL1        -0.1375
      12    H8      19.140975   20.680519   22.428626 H          1 MOL1         0.0976
      13    H9      19.701948   19.435330   21.325835 H          1 MOL1         0.0976
      14    C4      20.510461   19.255579   23.344350 C.3        1 MOL1        -0.1375
      15    H10     20.184951   19.456196   24.374381 H          1 MOL1         0.0976
      16    H11     20.722419   18.179641   23.291555 H          1 MOL1         0.0976
      17    C5      21.827319   20.018712   23.061577 C.3        1 MOL1        -0.1350
      18    H12     22.163716   19.813102   22.035767 H          1 MOL1         0.0976
      19    H13     22.610417   19.626658   23.725593 H          1 MOL1         0.0976
      20    C6      21.713955   21.545343   23.275801 C.3        1 MOL1        -0.2365
      21    H14     21.347182   21.776558   24.284278 H          1 MOL1         0.0987
      22    H15     21.034637   22.006178   22.548199 H          1 MOL1         0.0987
      23    H16     22.695135   22.023243   23.158198 H          1 MOL1         0.0987
@<TRIPOS>BOND
    1     1     2    1
    2     1     3    1
    3     1     4    1
    4     1     5    1
    5     5     6    1
    6     5     7    1
    7     5     8    1
    8     8     9    1
    9     8    10    1
   10     8    11    1
   11    11    12    1
   12    11    13    1
   13    11    14    1
   14    14    15    1
   15    14    16    1
   16    14    17    1
   17    17    18    1
   18    17    19    1
   19    17    20    1
   20    20    21    1
   21    20    22    1
   22    20    23    1
@<TRIPOS>SUBSTRUCTURE
       1 MOL1            1 RESIDUE      1      MOL     
@<SCITEGIC>MOL_PROPERTY
VConf Rank
SciTegic.value.IntegerValue
326

@<SCITEGIC>MOL_PROPERTY
Conf_Id
SciTegic.value.IntegerValue
83

@<SCITEGIC>MOL_PROPERTY
Delta U+W
SciTegic.value.DoubleValue
1.229

@<SCITEGIC>MOL_PROPERTY
U+W
SciTegic.value.DoubleValue
-7.154

@<SCITEGIC>MOL_PROPERTY
Grad RMS
SciTegic.value.DoubleValue
0.000000

@<SCITEGIC>MOL_PROPERTY
U
SciTegic.value.DoubleValue
48.727

@<SCITEGIC>MOL_PROPERTY
W
SciTegic.value.DoubleValue
-55.880

@<SCITEGIC>MOL_PROPERTY
W(PB)
SciTegic.value.DoubleValue
-57.960

@<SCITEGIC>MOL_PROPERTY
W(SA)
SciTegic.value.DoubleValue
2.080

@<SCITEGIC>MOL_PROPERTY
Valence
SciTegic.value.DoubleValue
2.671

@<SCITEGIC>MOL_PROPERTY
Coulomb
SciTegic.value.DoubleValue
45.371

@<SCITEGIC>MOL_PROPERTY
VdW
SciTegic.value.DoubleValue
0.684

@<SCITEGIC>MOL_PROPERTY
VdW6
SciTegic.value.DoubleValue
-6.511

@<SCITEGIC>MOL_PROPERTY
VdW12
SciTegic.value.DoubleValue
7.195

@<SCITEGIC>MOL_PROPERTY
Bond
SciTegic.value.DoubleValue
0.203

@<SCITEGIC>MOL_PROPERTY
Angle
SciTegic.value.DoubleValue
0.915

@<SCITEGIC>MOL_PROPERTY
Pdih
SciTegic.value.DoubleValue
1.554

@<SCITEGIC>MOL_PROPERTY
Idih
SciTegic.value.DoubleValue
0.000

@<SCITEGIC>MOL_PROPERTY
Tether
SciTegic.value.DoubleValue
0.000

@<TRIPOS>MOLECULE
guest-2_confgen4.mol2 : confsearch ligand conformer 327
          23          22           1
SMALL
USER_CHARGES
 
@<TRIPOS>ATOM
       1    N1      20.443319   20.014225   19.941282 N.4        1 MOL1        -0.5940
       2    H1      20.509928   21.035730   19.889856 H          1 MOL1         0.3649
       3    H2      19.471792   19.784805   20.171723 H          1 MOL1         0.3649
       4    H3      20.621986   19.654758   18.997515 H          1 MOL1         0.3649
       5    C1      21.410271   19.437314   20.956404 C.3        1 MOL1         0.0207
       6    H4      22.423348   19.689357   20.631325 H          1 MOL1         0.0950
       7    H5      21.310810   18.349057   20.939222 H          1 MOL1         0.0950
       8    C2      21.188967   19.960293   22.390557 C.3        1 MOL1        -0.1415
       9    H6      21.962529   19.535206   23.043828 H          1 MOL1         0.0976
      10    H7      21.342865   21.047480   22.402550 H          1 MOL1         0.0976
      11    C3      19.791424   19.635678   22.976345 C.3        1 MOL1        -0.1375
      12    H8      19.011567   20.119618   22.373542 H          1 MOL1         0.0976
      13    H9      19.728812   20.086190   23.975341 H          1 MOL1         0.0976
      14    C4      19.509761   18.114730   23.075416 C.3        1 MOL1        -0.1375
      15    H10     19.596075   17.658990   22.080326 H          1 MOL1         0.0976
      16    H11     20.275344   17.636462   23.701764 H          1 MOL1         0.0976
      17    C5      18.104824   17.783602   23.634836 C.3        1 MOL1        -0.1350
      18    H12     17.944142   16.698817   23.562134 H          1 MOL1         0.0976
      19    H13     17.334183   18.250671   23.005800 H          1 MOL1         0.0976
      20    C6      17.908596   18.216538   25.105687 C.3        1 MOL1        -0.2365
      21    H14     18.687212   17.788885   25.750573 H          1 MOL1         0.0987
      22    H15     16.936177   17.871957   25.480654 H          1 MOL1         0.0987
      23    H16     17.934009   19.307951   25.212525 H          1 MOL1         0.0987
@<TRIPOS>BOND
    1     1     2    1
    2     1     3    1
    3     1     4    1
    4     1     5    1
    5     5     6    1
    6     5     7    1
    7     5     8    1
    8     8     9    1
    9     8    10    1
   10     8    11    1
   11    11    12    1
   12    11    13    1
   13    11    14    1
   14    14    15    1
   15    14    16    1
   16    14    17    1
   17    17    18    1
   18    17    19    1
   19    17    20    1
   20    20    21    1
   21    20    22    1
   22    20    23    1
@<TRIPOS>SUBSTRUCTURE
       1 MOL1            1 RESIDUE      1      MOL     
@<SCITEGIC>MOL_PROPERTY
VConf Rank
SciTegic.value.IntegerValue
327

@<SCITEGIC>MOL_PROPERTY
Conf_Id
SciTegic.value.IntegerValue
50

@<SCITEGIC>MOL_PROPERTY
Delta U+W
SciTegic.value.DoubleValue
1.252

@<SCITEGIC>MOL_PROPERTY
U+W
SciTegic.value.DoubleValue
-7.130

@<SCITEGIC>MOL_PROPERTY
Grad RMS
SciTegic.value.DoubleValue
0.000000

@<SCITEGIC>MOL_PROPERTY
U
SciTegic.value.DoubleValue
48.727

@<SCITEGIC>MOL_PROPERTY
W
SciTegic.value.DoubleValue
-55.857

@<SCITEGIC>MOL_PROPERTY
W(PB)
SciTegic.value.DoubleValue
-57.937

@<SCITEGIC>MOL_PROPERTY
W(SA)
SciTegic.value.DoubleValue
2.080

@<SCITEGIC>MOL_PROPERTY
Valence
SciTegic.value.DoubleValue
2.671

@<SCITEGIC>MOL_PROPERTY
Coulomb
SciTegic.value.DoubleValue
45.371

@<SCITEGIC>MOL_PROPERTY
VdW
SciTegic.value.DoubleValue
0.684

@<SCITEGIC>MOL_PROPERTY
VdW6
SciTegic.value.DoubleValue
-6.511

@<SCITEGIC>MOL_PROPERTY
VdW12
SciTegic.value.DoubleValue
7.196

@<SCITEGIC>MOL_PROPERTY
Bond
SciTegic.value.DoubleValue
0.203

@<SCITEGIC>MOL_PROPERTY
Angle
SciTegic.value.DoubleValue
0.915

@<SCITEGIC>MOL_PROPERTY
Pdih
SciTegic.value.DoubleValue
1.554

@<SCITEGIC>MOL_PROPERTY
Idih
SciTegic.value.DoubleValue
0.000

@<SCITEGIC>MOL_PROPERTY
Tether
SciTegic.value.DoubleValue
0.000

@<TRIPOS>MOLECULE
guest-2_confgen4.mol2 : confsearch ligand conformer 328
          23          22           1
SMALL
USER_CHARGES
 
@<TRIPOS>ATOM
       1    N1      21.666576   16.640884   23.527826 N.4        1 MOL1        -0.5940
       2    H1      20.880506   16.565743   24.180499 H          1 MOL1         0.3649
       3    H2      22.508302   16.353074   24.038307 H          1 MOL1         0.3649
       4    H3      21.514054   15.947670   22.788356 H          1 MOL1         0.3649
       5    C1      21.800493   18.043335   22.967079 C.3        1 MOL1         0.0207
       6    H4      22.678648   18.057201   22.315753 H          1 MOL1         0.0950
       7    H5      21.984389   18.726128   23.800978 H          1 MOL1         0.0950
       8    C2      20.567882   18.516243   22.172228 C.3        1 MOL1        -0.1415
       9    H6      20.803437   19.485949   21.719627 H          1 MOL1         0.0976
      10    H7      20.384297   17.824686   21.339273 H          1 MOL1         0.0976
      11    C3      19.297050   18.629287   23.052502 C.3        1 MOL1        -0.1375
      12    H8      19.500148   19.243886   23.940407 H          1 MOL1         0.0976
      13    H9      19.041771   17.628798   23.426459 H          1 MOL1         0.0976
      14    C4      18.067704   19.188149   22.289293 C.3        1 MOL1        -0.1375
      15    H10     18.128585   18.926694   21.223869 H          1 MOL1         0.0976
      16    H11     17.169931   18.679668   22.667371 H          1 MOL1         0.0976
      17    C5      17.842054   20.713200   22.452102 C.3        1 MOL1        -0.1350
      18    H12     17.680641   20.950423   23.512971 H          1 MOL1         0.0976
      19    H13     16.911054   20.984863   21.935137 H          1 MOL1         0.0976
      20    C6      18.988031   21.589138   21.900287 C.3        1 MOL1        -0.2365
      21    H14     19.213709   21.335119   20.856553 H          1 MOL1         0.0987
      22    H15     19.902035   21.471065   22.495207 H          1 MOL1         0.0987
      23    H16     18.709943   22.650445   21.934711 H          1 MOL1         0.0987
@<TRIPOS>BOND
    1     1     2    1
    2     1     3    1
    3     1     4    1
    4     1     5    1
    5     5     6    1
    6     5     7    1
    7     5     8    1
    8     8     9    1
    9     8    10    1
   10     8    11    1
   11    11    12    1
   12    11    13    1
   13    11    14    1
   14    14    15    1
   15    14    16    1
   16    14    17    1
   17    17    18    1
   18    17    19    1
   19    17    20    1
   20    20    21    1
   21    20    22    1
   22    20    23    1
@<TRIPOS>SUBSTRUCTURE
       1 MOL1            1 RESIDUE      1      MOL     
@<SCITEGIC>MOL_PROPERTY
VConf Rank
SciTegic.value.IntegerValue
328

@<SCITEGIC>MOL_PROPERTY
Conf_Id
SciTegic.value.IntegerValue
55

@<SCITEGIC>MOL_PROPERTY
Delta U+W
SciTegic.value.DoubleValue
3.232

@<SCITEGIC>MOL_PROPERTY
U+W
SciTegic.value.DoubleValue
-5.150

@<SCITEGIC>MOL_PROPERTY
Grad RMS
SciTegic.value.DoubleValue
0.000000

@<SCITEGIC>MOL_PROPERTY
U
SciTegic.value.DoubleValue
50.625

@<SCITEGIC>MOL_PROPERTY
W
SciTegic.value.DoubleValue
-55.776

@<SCITEGIC>MOL_PROPERTY
W(PB)
SciTegic.value.DoubleValue
-57.839

@<SCITEGIC>MOL_PROPERTY
W(SA)
SciTegic.value.DoubleValue
2.064

@<SCITEGIC>MOL_PROPERTY
Valence
SciTegic.value.DoubleValue
4.837

@<SCITEGIC>MOL_PROPERTY
Coulomb
SciTegic.value.DoubleValue
45.097

@<SCITEGIC>MOL_PROPERTY
VdW
SciTegic.value.DoubleValue
0.692

@<SCITEGIC>MOL_PROPERTY
VdW6
SciTegic.value.DoubleValue
-6.655

@<SCITEGIC>MOL_PROPERTY
VdW12
SciTegic.value.DoubleValue
7.347

@<SCITEGIC>MOL_PROPERTY
Bond
SciTegic.value.DoubleValue
0.223

@<SCITEGIC>MOL_PROPERTY
Angle
SciTegic.value.DoubleValue
1.167

@<SCITEGIC>MOL_PROPERTY
Pdih
SciTegic.value.DoubleValue
3.447

@<SCITEGIC>MOL_PROPERTY
Idih
SciTegic.value.DoubleValue
0.000

@<SCITEGIC>MOL_PROPERTY
Tether
SciTegic.value.DoubleValue
0.000

@<TRIPOS>MOLECULE
guest-2_confgen4.mol2 : confsearch ligand conformer 329
          23          22           1
SMALL
USER_CHARGES
 
@<TRIPOS>ATOM
       1    N1      17.887633   20.408357   20.582342 N.4        1 MOL1        -0.5940
       2    H1      17.990343   21.391128   20.309504 H          1 MOL1         0.3649
       3    H2      16.881558   20.210747   20.609940 H          1 MOL1         0.3649
       4    H3      18.281950   19.842386   19.824089 H          1 MOL1         0.3649
       5    C1      18.555323   20.118091   21.911094 C.3        1 MOL1         0.0207
       6    H4      18.374614   19.069165   22.152839 H          1 MOL1         0.0950
       7    H5      18.067932   20.732111   22.673217 H          1 MOL1         0.0950
       8    C2      20.068256   20.412602   21.902087 C.3        1 MOL1        -0.1415
       9    H6      20.565009   19.837033   21.109737 H          1 MOL1         0.0976
      10    H7      20.207148   21.472167   21.649010 H          1 MOL1         0.0976
      11    C3      20.749404   20.138638   23.266802 C.3        1 MOL1        -0.1375
      12    H8      20.079094   20.430261   24.087317 H          1 MOL1         0.0976
      13    H9      21.624578   20.797911   23.350034 H          1 MOL1         0.0976
      14    C4      21.240993   18.682045   23.472102 C.3        1 MOL1        -0.1375
      15    H10     21.989818   18.437162   22.706213 H          1 MOL1         0.0976
      16    H11     21.764777   18.631206   24.436730 H          1 MOL1         0.0976
      17    C5      20.121509   17.615779   23.453832 C.3        1 MOL1        -0.1350
      18    H12     19.690446   17.543453   22.446922 H          1 MOL1         0.0976
      19    H13     19.311761   17.911985   24.135189 H          1 MOL1         0.0976
      20    C6      20.652710   16.225685   23.863889 C.3        1 MOL1        -0.2365
      21    H14     21.059097   16.242590   24.883584 H          1 MOL1         0.0987
      22    H15     21.447469   15.890916   23.184523 H          1 MOL1         0.0987
      23    H16     19.848218   15.479370   23.834954 H          1 MOL1         0.0987
@<TRIPOS>BOND
    1     1     2    1
    2     1     3    1
    3     1     4    1
    4     1     5    1
    5     5     6    1
    6     5     7    1
    7     5     8    1
    8     8     9    1
    9     8    10    1
   10     8    11    1
   11    11    12    1
   12    11    13    1
   13    11    14    1
   14    14    15    1
   15    14    16    1
   16    14    17    1
   17    17    18    1
   18    17    19    1
   19    17    20    1
   20    20    21    1
   21    20    22    1
   22    20    23    1
@<TRIPOS>SUBSTRUCTURE
       1 MOL1            1 RESIDUE      1      MOL     
@<SCITEGIC>MOL_PROPERTY
VConf Rank
SciTegic.value.IntegerValue
329

@<SCITEGIC>MOL_PROPERTY
Conf_Id
SciTegic.value.IntegerValue
93

@<SCITEGIC>MOL_PROPERTY
Delta U+W
SciTegic.value.DoubleValue
2.589

@<SCITEGIC>MOL_PROPERTY
U+W
SciTegic.value.DoubleValue
-5.793

@<SCITEGIC>MOL_PROPERTY
Grad RMS
SciTegic.value.DoubleValue
0.000000

@<SCITEGIC>MOL_PROPERTY
U
SciTegic.value.DoubleValue
50.122

@<SCITEGIC>MOL_PROPERTY
W
SciTegic.value.DoubleValue
-55.915

@<SCITEGIC>MOL_PROPERTY
W(PB)
SciTegic.value.DoubleValue
-58.031

@<SCITEGIC>MOL_PROPERTY
W(SA)
SciTegic.value.DoubleValue
2.115

@<SCITEGIC>MOL_PROPERTY
Valence
SciTegic.value.DoubleValue
4.132

@<SCITEGIC>MOL_PROPERTY
Coulomb
SciTegic.value.DoubleValue
45.536

@<SCITEGIC>MOL_PROPERTY
VdW
SciTegic.value.DoubleValue
0.454

@<SCITEGIC>MOL_PROPERTY
VdW6
SciTegic.value.DoubleValue
-6.262

@<SCITEGIC>MOL_PROPERTY
VdW12
SciTegic.value.DoubleValue
6.715

@<SCITEGIC>MOL_PROPERTY
Bond
SciTegic.value.DoubleValue
0.182

@<SCITEGIC>MOL_PROPERTY
Angle
SciTegic.value.DoubleValue
1.157

@<SCITEGIC>MOL_PROPERTY
Pdih
SciTegic.value.DoubleValue
2.794

@<SCITEGIC>MOL_PROPERTY
Idih
SciTegic.value.DoubleValue
0.000

@<SCITEGIC>MOL_PROPERTY
Tether
SciTegic.value.DoubleValue
0.000

@<TRIPOS>MOLECULE
guest-2_confgen4.mol2 : confsearch ligand conformer 330
          23          22           1
SMALL
USER_CHARGES
 
@<TRIPOS>ATOM
       1    N1      22.399576   17.858609   23.765327 N.4        1 MOL1        -0.5940
       2    H1      22.272217   16.998304   23.222730 H          1 MOL1         0.3649
       3    H2      22.467457   17.582475   24.750792 H          1 MOL1         0.3649
       4    H3      23.310354   18.248653   23.502309 H          1 MOL1         0.3649
       5    C1      21.273842   18.845780   23.533245 C.3        1 MOL1         0.0207
       6    H4      21.459649   19.721017   24.161604 H          1 MOL1         0.0950
       7    H5      20.346079   18.377987   23.867560 H          1 MOL1         0.0950
       8    C2      21.151806   19.285038   22.060850 C.3        1 MOL1        -0.1415
       9    H6      22.104335   19.742812   21.762270 H          1 MOL1         0.0976
      10    H7      21.011162   18.410708   21.411519 H          1 MOL1         0.0976
      11    C3      20.015999   20.312492   21.824752 C.3        1 MOL1        -0.1375
      12    H8      20.286882   20.927044   20.955012 H          1 MOL1         0.0976
      13    H9      19.955921   21.008675   22.672881 H          1 MOL1         0.0976
      14    C4      18.621969   19.693731   21.543170 C.3        1 MOL1        -0.1375
      15    H10     17.923013   20.512611   21.323317 H          1 MOL1         0.0976
      16    H11     18.670373   19.082267   20.631545 H          1 MOL1         0.0976
      17    C5      18.048764   18.843831   22.700585 C.3        1 MOL1        -0.1350
      18    H12     18.102668   19.408738   23.641675 H          1 MOL1         0.0976
      19    H13     18.650528   17.935066   22.830749 H          1 MOL1         0.0976
      20    C6      16.585188   18.432168   22.433825 C.3        1 MOL1        -0.2365
      21    H14     16.197920   17.820884   23.259284 H          1 MOL1         0.0987
      22    H15     16.502970   17.843189   21.511006 H          1 MOL1         0.0987
      23    H16     15.938025   19.313522   22.335793 H          1 MOL1         0.0987
@<TRIPOS>BOND
    1     1     2    1
    2     1     3    1
    3     1     4    1
    4     1     5    1
    5     5     6    1
    6     5     7    1
    7     5     8    1
    8     8     9    1
    9     8    10    1
   10     8    11    1
   11    11    12    1
   12    11    13    1
   13    11    14    1
   14    14    15    1
   15    14    16    1
   16    14    17    1
   17    17    18    1
   18    17    19    1
   19    17    20    1
   20    20    21    1
   21    20    22    1
   22    20    23    1
@<TRIPOS>SUBSTRUCTURE
       1 MOL1            1 RESIDUE      1      MOL     
@<SCITEGIC>MOL_PROPERTY
VConf Rank
SciTegic.value.IntegerValue
330

@<SCITEGIC>MOL_PROPERTY
Conf_Id
SciTegic.value.IntegerValue
70

@<SCITEGIC>MOL_PROPERTY
Delta U+W
SciTegic.value.DoubleValue
2.599

@<SCITEGIC>MOL_PROPERTY
U+W
SciTegic.value.DoubleValue
-5.783

@<SCITEGIC>MOL_PROPERTY
Grad RMS
SciTegic.value.DoubleValue
0.000000

@<SCITEGIC>MOL_PROPERTY
U
SciTegic.value.DoubleValue
50.122

@<SCITEGIC>MOL_PROPERTY
W
SciTegic.value.DoubleValue
-55.906

@<SCITEGIC>MOL_PROPERTY
W(PB)
SciTegic.value.DoubleValue
-58.010

@<SCITEGIC>MOL_PROPERTY
W(SA)
SciTegic.value.DoubleValue
2.105

@<SCITEGIC>MOL_PROPERTY
Valence
SciTegic.value.DoubleValue
4.132

@<SCITEGIC>MOL_PROPERTY
Coulomb
SciTegic.value.DoubleValue
45.536

@<SCITEGIC>MOL_PROPERTY
VdW
SciTegic.value.DoubleValue
0.454

@<SCITEGIC>MOL_PROPERTY
VdW6
SciTegic.value.DoubleValue
-6.262

@<SCITEGIC>MOL_PROPERTY
VdW12
SciTegic.value.DoubleValue
6.715

@<SCITEGIC>MOL_PROPERTY
Bond
SciTegic.value.DoubleValue
0.182

@<SCITEGIC>MOL_PROPERTY
Angle
SciTegic.value.DoubleValue
1.157

@<SCITEGIC>MOL_PROPERTY
Pdih
SciTegic.value.DoubleValue
2.794

@<SCITEGIC>MOL_PROPERTY
Idih
SciTegic.value.DoubleValue
0.000

@<SCITEGIC>MOL_PROPERTY
Tether
SciTegic.value.DoubleValue
0.000

@<TRIPOS>MOLECULE
guest-2_confgen4.mol2 : confsearch ligand conformer 331
          23          22           1
SMALL
USER_CHARGES
 
@<TRIPOS>ATOM
       1    N1      21.716217   21.092196   22.728728 N.4        1 MOL1        -0.5940
       2    H1      21.562688   21.982511   23.212748 H          1 MOL1         0.3649
       3    H2      22.562571   21.202679   22.160184 H          1 MOL1         0.3649
       4    H3      21.923910   20.389933   23.445077 H          1 MOL1         0.3649
       5    C1      20.519353   20.695607   21.887022 C.3        1 MOL1         0.0207
       6    H4      20.759585   19.760649   21.374101 H          1 MOL1         0.0950
       7    H5      20.373243   21.470591   21.129694 H          1 MOL1         0.0950
       8    C2      19.221140   20.523581   22.701169 C.3        1 MOL1        -0.1415
       9    H6      18.970992   21.477684   23.183692 H          1 MOL1         0.0976
      10    H7      18.395011   20.312820   22.010151 H          1 MOL1         0.0976
      11    C3      19.296410   19.411172   23.780004 C.3        1 MOL1        -0.1375
      12    H8      18.320053   19.334568   24.278062 H          1 MOL1         0.0976
      13    H9      20.005287   19.713251   24.562611 H          1 MOL1         0.0976
      14    C4      19.704097   18.012561   23.248516 C.3        1 MOL1        -0.1375
      15    H10     20.718927   18.049152   22.830575 H          1 MOL1         0.0976
      16    H11     19.752569   17.319455   24.099746 H          1 MOL1         0.0976
      17    C5      18.726702   17.443554   22.193139 C.3        1 MOL1        -0.1350
      18    H12     18.716208   18.084879   21.301774 H          1 MOL1         0.0976
      19    H13     17.704586   17.441919   22.596859 H          1 MOL1         0.0976
      20    C6      19.113767   16.009496   21.773567 C.3        1 MOL1        -0.2365
      21    H14     18.412160   15.622465   21.023254 H          1 MOL1         0.0987
      22    H15     19.096331   15.327741   22.633857 H          1 MOL1         0.0987
      23    H16     20.121007   15.984293   21.337635 H          1 MOL1         0.0987
@<TRIPOS>BOND
    1     1     2    1
    2     1     3    1
    3     1     4    1
    4     1     5    1
    5     5     6    1
    6     5     7    1
    7     5     8    1
    8     8     9    1
    9     8    10    1
   10     8    11    1
   11    11    12    1
   12    11    13    1
   13    11    14    1
   14    14    15    1
   15    14    16    1
   16    14    17    1
   17    17    18    1
   18    17    19    1
   19    17    20    1
   20    20    21    1
   21    20    22    1
   22    20    23    1
@<TRIPOS>SUBSTRUCTURE
       1 MOL1            1 RESIDUE      1      MOL     
@<SCITEGIC>MOL_PROPERTY
VConf Rank
SciTegic.value.IntegerValue
331

@<SCITEGIC>MOL_PROPERTY
Conf_Id
SciTegic.value.IntegerValue
72

@<SCITEGIC>MOL_PROPERTY
Delta U+W
SciTegic.value.DoubleValue
1.051

@<SCITEGIC>MOL_PROPERTY
U+W
SciTegic.value.DoubleValue
-7.331

@<SCITEGIC>MOL_PROPERTY
Grad RMS
SciTegic.value.DoubleValue
0.000000

@<SCITEGIC>MOL_PROPERTY
U
SciTegic.value.DoubleValue
48.590

@<SCITEGIC>MOL_PROPERTY
W
SciTegic.value.DoubleValue
-55.922

@<SCITEGIC>MOL_PROPERTY
W(PB)
SciTegic.value.DoubleValue
-58.012

@<SCITEGIC>MOL_PROPERTY
W(SA)
SciTegic.value.DoubleValue
2.090

@<SCITEGIC>MOL_PROPERTY
Valence
SciTegic.value.DoubleValue
2.601

@<SCITEGIC>MOL_PROPERTY
Coulomb
SciTegic.value.DoubleValue
45.520

@<SCITEGIC>MOL_PROPERTY
VdW
SciTegic.value.DoubleValue
0.469

@<SCITEGIC>MOL_PROPERTY
VdW6
SciTegic.value.DoubleValue
-6.867

@<SCITEGIC>MOL_PROPERTY
VdW12
SciTegic.value.DoubleValue
7.336

@<SCITEGIC>MOL_PROPERTY
Bond
SciTegic.value.DoubleValue
0.205

@<SCITEGIC>MOL_PROPERTY
Angle
SciTegic.value.DoubleValue
0.962

@<SCITEGIC>MOL_PROPERTY
Pdih
SciTegic.value.DoubleValue
1.434

@<SCITEGIC>MOL_PROPERTY
Idih
SciTegic.value.DoubleValue
0.000

@<SCITEGIC>MOL_PROPERTY
Tether
SciTegic.value.DoubleValue
0.000

@<TRIPOS>MOLECULE
guest-2_confgen4.mol2 : confsearch ligand conformer 332
          23          22           1
SMALL
USER_CHARGES
 
@<TRIPOS>ATOM
       1    N1      19.557026   18.577181   25.716344 N.4        1 MOL1        -0.5940
       2    H1      19.390500   17.726788   26.265032 H          1 MOL1         0.3649
       3    H2      19.114659   19.350165   26.223878 H          1 MOL1         0.3649
       4    H3      20.567769   18.747163   25.729251 H          1 MOL1         0.3649
       5    C1      19.022787   18.449488   24.304282 C.3        1 MOL1         0.0207
       6    H4      17.951172   18.241616   24.365775 H          1 MOL1         0.0950
       7    H5      19.513387   17.592345   23.835720 H          1 MOL1         0.0950
       8    C2      19.257527   19.711355   23.453160 C.3        1 MOL1        -0.1415
       9    H6      18.792894   20.572420   23.951569 H          1 MOL1         0.0976
      10    H7      20.332066   19.928441   23.401484 H          1 MOL1         0.0976
      11    C3      18.673167   19.585677   22.024247 C.3        1 MOL1        -0.1375
      12    H8      18.853162   20.521848   21.479147 H          1 MOL1         0.0976
      13    H9      17.580846   19.490028   22.094948 H          1 MOL1         0.0976
      14    C4      19.222026   18.390731   21.198646 C.3        1 MOL1        -0.1375
      15    H10     18.897216   17.448528   21.660226 H          1 MOL1         0.0976
      16    H11     18.755049   18.407946   20.204259 H          1 MOL1         0.0976
      17    C5      20.762081   18.359979   21.026873 C.3        1 MOL1        -0.1350
      18    H12     21.031307   17.469958   20.441152 H          1 MOL1         0.0976
      19    H13     21.250749   18.236469   22.002612 H          1 MOL1         0.0976
      20    C6      21.324616   19.611771   20.316180 C.3        1 MOL1        -0.2365
      21    H14     20.841124   19.763017   19.342373 H          1 MOL1         0.0987
      22    H15     22.403026   19.503495   20.142540 H          1 MOL1         0.0987
      23    H16     21.176006   20.516933   20.917973 H          1 MOL1         0.0987
@<TRIPOS>BOND
    1     1     2    1
    2     1     3    1
    3     1     4    1
    4     1     5    1
    5     5     6    1
    6     5     7    1
    7     5     8    1
    8     8     9    1
    9     8    10    1
   10     8    11    1
   11    11    12    1
   12    11    13    1
   13    11    14    1
   14    14    15    1
   15    14    16    1
   16    14    17    1
   17    17    18    1
   18    17    19    1
   19    17    20    1
   20    20    21    1
   21    20    22    1
   22    20    23    1
@<TRIPOS>SUBSTRUCTURE
       1 MOL1            1 RESIDUE      1      MOL     
@<SCITEGIC>MOL_PROPERTY
VConf Rank
SciTegic.value.IntegerValue
332

@<SCITEGIC>MOL_PROPERTY
Conf_Id
SciTegic.value.IntegerValue
26

@<SCITEGIC>MOL_PROPERTY
Delta U+W
SciTegic.value.DoubleValue
1.076

@<SCITEGIC>MOL_PROPERTY
U+W
SciTegic.value.DoubleValue
-7.306

@<SCITEGIC>MOL_PROPERTY
Grad RMS
SciTegic.value.DoubleValue
0.000000

@<SCITEGIC>MOL_PROPERTY
U
SciTegic.value.DoubleValue
48.641

@<SCITEGIC>MOL_PROPERTY
W
SciTegic.value.DoubleValue
-55.947

@<SCITEGIC>MOL_PROPERTY
W(PB)
SciTegic.value.DoubleValue
-58.031

@<SCITEGIC>MOL_PROPERTY
W(SA)
SciTegic.value.DoubleValue
2.084

@<SCITEGIC>MOL_PROPERTY
Valence
SciTegic.value.DoubleValue
2.922

@<SCITEGIC>MOL_PROPERTY
Coulomb
SciTegic.value.DoubleValue
45.269

@<SCITEGIC>MOL_PROPERTY
VdW
SciTegic.value.DoubleValue
0.449

@<SCITEGIC>MOL_PROPERTY
VdW6
SciTegic.value.DoubleValue
-7.045

@<SCITEGIC>MOL_PROPERTY
VdW12
SciTegic.value.DoubleValue
7.494

@<SCITEGIC>MOL_PROPERTY
Bond
SciTegic.value.DoubleValue
0.220

@<SCITEGIC>MOL_PROPERTY
Angle
SciTegic.value.DoubleValue
1.205

@<SCITEGIC>MOL_PROPERTY
Pdih
SciTegic.value.DoubleValue
1.497

@<SCITEGIC>MOL_PROPERTY
Idih
SciTegic.value.DoubleValue
0.000

@<SCITEGIC>MOL_PROPERTY
Tether
SciTegic.value.DoubleValue
0.000

@<TRIPOS>MOLECULE
guest-2_confgen4.mol2 : confsearch ligand conformer 333
          23          22           1
SMALL
USER_CHARGES
 
@<TRIPOS>ATOM
       1    N1      16.743081   18.740692   22.051470 N.4        1 MOL1        -0.5940
       2    H1      16.292441   19.596487   21.711880 H          1 MOL1         0.3649
       3    H2      16.024116   18.201702   22.545977 H          1 MOL1         0.3649
       4    H3      17.011535   18.193703   21.227214 H          1 MOL1         0.3649
       5    C1      17.931438   19.042995   22.941445 C.3        1 MOL1         0.0207
       6    H4      18.341454   18.091203   23.289168 H          1 MOL1         0.0950
       7    H5      17.570233   19.600158   23.810036 H          1 MOL1         0.0950
       8    C2      19.030431   19.852024   22.227648 C.3        1 MOL1        -0.1415
       9    H6      19.384654   19.299517   21.348048 H          1 MOL1         0.0976
      10    H7      18.599169   20.788598   21.850062 H          1 MOL1         0.0976
      11    C3      20.222869   20.189596   23.156733 C.3        1 MOL1        -0.1375
      12    H8      19.868427   20.843940   23.965136 H          1 MOL1         0.0976
      13    H9      20.957533   20.783311   22.596623 H          1 MOL1         0.0976
      14    C4      20.925029   18.957684   23.789287 C.3        1 MOL1        -0.1375
      15    H10     21.759123   19.310769   24.411208 H          1 MOL1         0.0976
      16    H11     20.232974   18.458384   24.480706 H          1 MOL1         0.0976
      17    C5      21.463034   17.913855   22.777757 C.3        1 MOL1        -0.1350
      18    H12     20.632552   17.467620   22.214469 H          1 MOL1         0.0976
      19    H13     21.923815   17.088446   23.338181 H          1 MOL1         0.0976
      20    C6      22.507494   18.492828   21.796731 C.3        1 MOL1        -0.2365
      21    H14     22.063942   19.248632   21.136746 H          1 MOL1         0.0987
      22    H15     22.919176   17.698812   21.160415 H          1 MOL1         0.0987
      23    H16     23.342453   18.956307   22.337999 H          1 MOL1         0.0987
@<TRIPOS>BOND
    1     1     2    1
    2     1     3    1
    3     1     4    1
    4     1     5    1
    5     5     6    1
    6     5     7    1
    7     5     8    1
    8     8     9    1
    9     8    10    1
   10     8    11    1
   11    11    12    1
   12    11    13    1
   13    11    14    1
   14    14    15    1
   15    14    16    1
   16    14    17    1
   17    17    18    1
   18    17    19    1
   19    17    20    1
   20    20    21    1
   21    20    22    1
   22    20    23    1
@<TRIPOS>SUBSTRUCTURE
       1 MOL1            1 RESIDUE      1      MOL     
@<SCITEGIC>MOL_PROPERTY
VConf Rank
SciTegic.value.IntegerValue
333

@<SCITEGIC>MOL_PROPERTY
Conf_Id
SciTegic.value.IntegerValue
90

@<SCITEGIC>MOL_PROPERTY
Delta U+W
SciTegic.value.DoubleValue
1.131

@<SCITEGIC>MOL_PROPERTY
U+W
SciTegic.value.DoubleValue
-7.251

@<SCITEGIC>MOL_PROPERTY
Grad RMS
SciTegic.value.DoubleValue
0.000000

@<SCITEGIC>MOL_PROPERTY
U
SciTegic.value.DoubleValue
48.641

@<SCITEGIC>MOL_PROPERTY
W
SciTegic.value.DoubleValue
-55.892

@<SCITEGIC>MOL_PROPERTY
W(PB)
SciTegic.value.DoubleValue
-57.962

@<SCITEGIC>MOL_PROPERTY
W(SA)
SciTegic.value.DoubleValue
2.070

@<SCITEGIC>MOL_PROPERTY
Valence
SciTegic.value.DoubleValue
2.922

@<SCITEGIC>MOL_PROPERTY
Coulomb
SciTegic.value.DoubleValue
45.269

@<SCITEGIC>MOL_PROPERTY
VdW
SciTegic.value.DoubleValue
0.450

@<SCITEGIC>MOL_PROPERTY
VdW6
SciTegic.value.DoubleValue
-7.045

@<SCITEGIC>MOL_PROPERTY
VdW12
SciTegic.value.DoubleValue
7.495

@<SCITEGIC>MOL_PROPERTY
Bond
SciTegic.value.DoubleValue
0.220

@<SCITEGIC>MOL_PROPERTY
Angle
SciTegic.value.DoubleValue
1.205

@<SCITEGIC>MOL_PROPERTY
Pdih
SciTegic.value.DoubleValue
1.497

@<SCITEGIC>MOL_PROPERTY
Idih
SciTegic.value.DoubleValue
0.000

@<SCITEGIC>MOL_PROPERTY
Tether
SciTegic.value.DoubleValue
0.000

@<TRIPOS>MOLECULE
guest-2_confgen4.mol2 : confsearch ligand conformer 334
          23          22           1
SMALL
USER_CHARGES
 
@<TRIPOS>ATOM
       1    N1      17.460435   19.548564   21.526124 N.4        1 MOL1        -0.5940
       2    H1      16.483503   19.274815   21.676182 H          1 MOL1         0.3649
       3    H2      17.994991   18.687521   21.376197 H          1 MOL1         0.3649
       4    H3      17.490754   20.081252   20.650969 H          1 MOL1         0.3649
       5    C1      18.006417   20.349529   22.691780 C.3        1 MOL1         0.0207
       6    H4      17.916964   19.738994   23.593979 H          1 MOL1         0.0950
       7    H5      17.372555   21.231814   22.815526 H          1 MOL1         0.0950
       8    C2      19.471598   20.794088   22.506039 C.3        1 MOL1        -0.1415
       9    H6      19.541004   21.444936   21.624353 H          1 MOL1         0.0976
      10    H7      19.763732   21.411792   23.365657 H          1 MOL1         0.0976
      11    C3      20.471780   19.620241   22.356702 C.3        1 MOL1        -0.1375
      12    H8      21.479318   20.034851   22.215009 H          1 MOL1         0.0976
      13    H9      20.241567   19.057185   21.443426 H          1 MOL1         0.0976
      14    C4      20.480733   18.671229   23.581761 C.3        1 MOL1        -0.1375
      15    H10     20.627819   19.265467   24.494184 H          1 MOL1         0.0976
      16    H11     19.504809   18.178857   23.686993 H          1 MOL1         0.0976
      17    C5      21.588330   17.592331   23.513935 C.3        1 MOL1        -0.1350
      18    H12     21.595461   17.034118   24.460604 H          1 MOL1         0.0976
      19    H13     22.572854   18.074140   23.434229 H          1 MOL1         0.0976
      20    C6      21.401798   16.594248   22.348529 C.3        1 MOL1        -0.2365
      21    H14     20.413663   16.118049   22.390488 H          1 MOL1         0.0987
      22    H15     22.158611   15.800698   22.398003 H          1 MOL1         0.0987
      23    H16     21.505548   17.087684   21.374277 H          1 MOL1         0.0987
@<TRIPOS>BOND
    1     1     2    1
    2     1     3    1
    3     1     4    1
    4     1     5    1
    5     5     6    1
    6     5     7    1
    7     5     8    1
    8     8     9    1
    9     8    10    1
   10     8    11    1
   11    11    12    1
   12    11    13    1
   13    11    14    1
   14    14    15    1
   15    14    16    1
   16    14    17    1
   17    17    18    1
   18    17    19    1
   19    17    20    1
   20    20    21    1
   21    20    22    1
   22    20    23    1
@<TRIPOS>SUBSTRUCTURE
       1 MOL1            1 RESIDUE      1      MOL     
@<SCITEGIC>MOL_PROPERTY
VConf Rank
SciTegic.value.IntegerValue
334

@<SCITEGIC>MOL_PROPERTY
Conf_Id
SciTegic.value.IntegerValue
85

@<SCITEGIC>MOL_PROPERTY
Delta U+W
SciTegic.value.DoubleValue
1.193

@<SCITEGIC>MOL_PROPERTY
U+W
SciTegic.value.DoubleValue
-7.189

@<SCITEGIC>MOL_PROPERTY
Grad RMS
SciTegic.value.DoubleValue
0.000000

@<SCITEGIC>MOL_PROPERTY
U
SciTegic.value.DoubleValue
48.775

@<SCITEGIC>MOL_PROPERTY
W
SciTegic.value.DoubleValue
-55.965

@<SCITEGIC>MOL_PROPERTY
W(PB)
SciTegic.value.DoubleValue
-58.038

@<SCITEGIC>MOL_PROPERTY
W(SA)
SciTegic.value.DoubleValue
2.073

@<SCITEGIC>MOL_PROPERTY
Valence
SciTegic.value.DoubleValue
2.602

@<SCITEGIC>MOL_PROPERTY
Coulomb
SciTegic.value.DoubleValue
45.581

@<SCITEGIC>MOL_PROPERTY
VdW
SciTegic.value.DoubleValue
0.592

@<SCITEGIC>MOL_PROPERTY
VdW6
SciTegic.value.DoubleValue
-6.616

@<SCITEGIC>MOL_PROPERTY
VdW12
SciTegic.value.DoubleValue
7.208

@<SCITEGIC>MOL_PROPERTY
Bond
SciTegic.value.DoubleValue
0.196

@<SCITEGIC>MOL_PROPERTY
Angle
SciTegic.value.DoubleValue
0.832

@<SCITEGIC>MOL_PROPERTY
Pdih
SciTegic.value.DoubleValue
1.574

@<SCITEGIC>MOL_PROPERTY
Idih
SciTegic.value.DoubleValue
0.000

@<SCITEGIC>MOL_PROPERTY
Tether
SciTegic.value.DoubleValue
0.000

@<TRIPOS>MOLECULE
guest-2_confgen4.mol2 : confsearch ligand conformer 335
          23          22           1
SMALL
USER_CHARGES
 
@<TRIPOS>ATOM
       1    N1      19.519683   19.119884   24.605044 N.4        1 MOL1        -0.5940
       2    H1      18.908490   19.244860   23.791721 H          1 MOL1         0.3649
       3    H2      19.392379   19.935810   25.213618 H          1 MOL1         0.3649
       4    H3      19.176669   18.304486   25.123195 H          1 MOL1         0.3649
       5    C1      20.967347   18.950090   24.186591 C.3        1 MOL1         0.0207
       6    H4      21.551340   18.821625   25.101992 H          1 MOL1         0.0950
       7    H5      21.300863   19.869303   23.697773 H          1 MOL1         0.0950
       8    C2      21.214555   17.743426   23.258384 C.3        1 MOL1        -0.1415
       9    H6      22.275556   17.472161   23.339196 H          1 MOL1         0.0976
      10    H7      20.655209   16.872486   23.625081 H          1 MOL1         0.0976
      11    C3      20.900926   17.987032   21.757583 C.3        1 MOL1        -0.1375
      12    H8      21.173444   17.072563   21.212617 H          1 MOL1         0.0976
      13    H9      21.558444   18.772434   21.359735 H          1 MOL1         0.0976
      14    C4      19.420717   18.315143   21.434187 C.3        1 MOL1        -0.1375
      15    H10     19.162806   17.851336   20.471844 H          1 MOL1         0.0976
      16    H11     18.758160   17.847195   22.174300 H          1 MOL1         0.0976
      17    C5      19.144376   19.834136   21.318434 C.3        1 MOL1        -0.1350
      18    H12     19.697917   20.238376   20.459180 H          1 MOL1         0.0976
      19    H13     19.517685   20.372101   22.197929 H          1 MOL1         0.0976
      20    C6      17.640361   20.128281   21.136110 C.3        1 MOL1        -0.2365
      21    H14     17.251514   19.644127   20.230703 H          1 MOL1         0.0987
      22    H15     17.465489   21.207881   21.040909 H          1 MOL1         0.0987
      23    H16     17.056873   19.767101   21.992765 H          1 MOL1         0.0987
@<TRIPOS>BOND
    1     1     2    1
    2     1     3    1
    3     1     4    1
    4     1     5    1
    5     5     6    1
    6     5     7    1
    7     5     8    1
    8     8     9    1
    9     8    10    1
   10     8    11    1
   11    11    12    1
   12    11    13    1
   13    11    14    1
   14    14    15    1
   15    14    16    1
   16    14    17    1
   17    17    18    1
   18    17    19    1
   19    17    20    1
   20    20    21    1
   21    20    22    1
   22    20    23    1
@<TRIPOS>SUBSTRUCTURE
       1 MOL1            1 RESIDUE      1      MOL     
@<SCITEGIC>MOL_PROPERTY
VConf Rank
SciTegic.value.IntegerValue
335

@<SCITEGIC>MOL_PROPERTY
Conf_Id
SciTegic.value.IntegerValue
82

@<SCITEGIC>MOL_PROPERTY
Delta U+W
SciTegic.value.DoubleValue
5.994

@<SCITEGIC>MOL_PROPERTY
U+W
SciTegic.value.DoubleValue
-2.388

@<SCITEGIC>MOL_PROPERTY
Grad RMS
SciTegic.value.DoubleValue
0.000000

@<SCITEGIC>MOL_PROPERTY
U
SciTegic.value.DoubleValue
52.836

@<SCITEGIC>MOL_PROPERTY
W
SciTegic.value.DoubleValue
-55.224

@<SCITEGIC>MOL_PROPERTY
W(PB)
SciTegic.value.DoubleValue
-57.261

@<SCITEGIC>MOL_PROPERTY
W(SA)
SciTegic.value.DoubleValue
2.037

@<SCITEGIC>MOL_PROPERTY
Valence
SciTegic.value.DoubleValue
5.785

@<SCITEGIC>MOL_PROPERTY
Coulomb
SciTegic.value.DoubleValue
46.744

@<SCITEGIC>MOL_PROPERTY
VdW
SciTegic.value.DoubleValue
0.307

@<SCITEGIC>MOL_PROPERTY
VdW6
SciTegic.value.DoubleValue
-7.672

@<SCITEGIC>MOL_PROPERTY
VdW12
SciTegic.value.DoubleValue
7.979

@<SCITEGIC>MOL_PROPERTY
Bond
SciTegic.value.DoubleValue
0.217

@<SCITEGIC>MOL_PROPERTY
Angle
SciTegic.value.DoubleValue
1.470

@<SCITEGIC>MOL_PROPERTY
Pdih
SciTegic.value.DoubleValue
4.098

@<SCITEGIC>MOL_PROPERTY
Idih
SciTegic.value.DoubleValue
0.000

@<SCITEGIC>MOL_PROPERTY
Tether
SciTegic.value.DoubleValue
0.000

@<TRIPOS>MOLECULE
guest-2_confgen4.mol2 : confsearch ligand conformer 336
          23          22           1
SMALL
USER_CHARGES
 
@<TRIPOS>ATOM
       1    N1      20.667410   19.210653   24.454112 N.4        1 MOL1        -0.5940
       2    H1      20.436780   18.497214   25.153276 H          1 MOL1         0.3649
       3    H2      21.494936   19.709727   24.798246 H          1 MOL1         0.3649
       4    H3      20.938863   18.721088   23.595442 H          1 MOL1         0.3649
       5    C1      19.504046   20.151876   24.208476 C.3        1 MOL1         0.0207
       6    H4      19.823106   20.927782   23.507549 H          1 MOL1         0.0950
       7    H5      19.274197   20.631521   25.163788 H          1 MOL1         0.0950
       8    C2      18.234937   19.455065   23.676938 C.3        1 MOL1        -0.1415
       9    H6      18.064141   18.522362   24.230802 H          1 MOL1         0.0976
      10    H7      17.377688   20.100964   23.908836 H          1 MOL1         0.0976
      11    C3      18.220998   19.179807   22.149144 C.3        1 MOL1        -0.1375
      12    H8      18.258881   20.128948   21.596725 H          1 MOL1         0.0976
      13    H9      17.245688   18.736728   21.904285 H          1 MOL1         0.0976
      14    C4      19.325890   18.219941   21.638134 C.3        1 MOL1        -0.1375
      15    H10     19.608835   17.512346   22.428689 H          1 MOL1         0.0976
      16    H11     18.907529   17.606128   20.828229 H          1 MOL1         0.0976
      17    C5      20.566297   18.960101   21.080768 C.3        1 MOL1        -0.1350
      18    H12     20.942009   19.698480   21.799044 H          1 MOL1         0.0976
      19    H13     20.276699   19.528866   20.185908 H          1 MOL1         0.0976
      20    C6      21.698933   17.978512   20.712740 C.3        1 MOL1        -0.2365
      21    H14     22.038189   17.414062   21.590846 H          1 MOL1         0.0987
      22    H15     22.563251   18.519296   20.305695 H          1 MOL1         0.0987
      23    H16     21.365138   17.259122   19.953512 H          1 MOL1         0.0987
@<TRIPOS>BOND
    1     1     2    1
    2     1     3    1
    3     1     4    1
    4     1     5    1
    5     5     6    1
    6     5     7    1
    7     5     8    1
    8     8     9    1
    9     8    10    1
   10     8    11    1
   11    11    12    1
   12    11    13    1
   13    11    14    1
   14    14    15    1
   15    14    16    1
   16    14    17    1
   17    17    18    1
   18    17    19    1
   19    17    20    1
   20    20    21    1
   21    20    22    1
   22    20    23    1
@<TRIPOS>SUBSTRUCTURE
       1 MOL1            1 RESIDUE      1      MOL     
@<SCITEGIC>MOL_PROPERTY
VConf Rank
SciTegic.value.IntegerValue
336

@<SCITEGIC>MOL_PROPERTY
Conf_Id
SciTegic.value.IntegerValue
5

@<SCITEGIC>MOL_PROPERTY
Delta U+W
SciTegic.value.DoubleValue
6.087

@<SCITEGIC>MOL_PROPERTY
U+W
SciTegic.value.DoubleValue
-2.295

@<SCITEGIC>MOL_PROPERTY
Grad RMS
SciTegic.value.DoubleValue
0.000000

@<SCITEGIC>MOL_PROPERTY
U
SciTegic.value.DoubleValue
52.836

@<SCITEGIC>MOL_PROPERTY
W
SciTegic.value.DoubleValue
-55.131

@<SCITEGIC>MOL_PROPERTY
W(PB)
SciTegic.value.DoubleValue
-57.202

@<SCITEGIC>MOL_PROPERTY
W(SA)
SciTegic.value.DoubleValue
2.071

@<SCITEGIC>MOL_PROPERTY
Valence
SciTegic.value.DoubleValue
5.785

@<SCITEGIC>MOL_PROPERTY
Coulomb
SciTegic.value.DoubleValue
46.744

@<SCITEGIC>MOL_PROPERTY
VdW
SciTegic.value.DoubleValue
0.307

@<SCITEGIC>MOL_PROPERTY
VdW6
SciTegic.value.DoubleValue
-7.672

@<SCITEGIC>MOL_PROPERTY
VdW12
SciTegic.value.DoubleValue
7.980

@<SCITEGIC>MOL_PROPERTY
Bond
SciTegic.value.DoubleValue
0.217

@<SCITEGIC>MOL_PROPERTY
Angle
SciTegic.value.DoubleValue
1.470

@<SCITEGIC>MOL_PROPERTY
Pdih
SciTegic.value.DoubleValue
4.098

@<SCITEGIC>MOL_PROPERTY
Idih
SciTegic.value.DoubleValue
0.000

@<SCITEGIC>MOL_PROPERTY
Tether
SciTegic.value.DoubleValue
0.000

@<TRIPOS>MOLECULE
guest-2_confgen4.mol2 : confsearch ligand conformer 337
          23          22           1
SMALL
USER_CHARGES
 
@<TRIPOS>ATOM
       1    N1      19.489480   15.197652   22.990614 N.4        1 MOL1        -0.5940
       2    H1      19.527507   14.977276   21.990178 H          1 MOL1         0.3649
       3    H2      18.881298   14.496487   23.427162 H          1 MOL1         0.3649
       4    H3      20.431361   15.050959   23.367742 H          1 MOL1         0.3649
       5    C1      18.993169   16.607245   23.240855 C.3        1 MOL1         0.0207
       6    H4      18.949692   16.762732   24.322257 H          1 MOL1         0.0950
       7    H5      17.978145   16.683507   22.841597 H          1 MOL1         0.0950
       8    C2      19.884954   17.684335   22.598069 C.3        1 MOL1        -0.1415
       9    H6      20.906903   17.593512   22.989824 H          1 MOL1         0.0976
      10    H7      19.938866   17.514492   21.514397 H          1 MOL1         0.0976
      11    C3      19.345451   19.104864   22.875951 C.3        1 MOL1        -0.1375
      12    H8      19.288005   19.268931   23.961117 H          1 MOL1         0.0976
      13    H9      18.321029   19.189996   22.487217 H          1 MOL1         0.0976
      14    C4      20.233900   20.195020   22.234686 C.3        1 MOL1        -0.1375
      15    H10     21.258213   20.110122   22.623385 H          1 MOL1         0.0976
      16    H11     20.291428   20.031124   21.149632 H          1 MOL1         0.0976
      17    C5      19.694002   21.615574   22.512711 C.3        1 MOL1        -0.1350
      18    H12     19.636864   21.785332   23.597096 H          1 MOL1         0.0976
      19    H13     18.670176   21.706342   22.123464 H          1 MOL1         0.0976
      20    C6      20.583694   22.701395   21.870879 C.3        1 MOL1        -0.2365
      21    H14     20.184543   23.702585   22.079068 H          1 MOL1         0.0987
      22    H15     20.632701   22.578279   20.781077 H          1 MOL1         0.0987
      23    H16     21.606951   22.657868   22.266202 H          1 MOL1         0.0987
@<TRIPOS>BOND
    1     1     2    1
    2     1     3    1
    3     1     4    1
    4     1     5    1
    5     5     6    1
    6     5     7    1
    7     5     8    1
    8     8     9    1
    9     8    10    1
   10     8    11    1
   11    11    12    1
   12    11    13    1
   13    11    14    1
   14    14    15    1
   15    14    16    1
   16    14    17    1
   17    17    18    1
   18    17    19    1
   19    17    20    1
   20    20    21    1
   21    20    22    1
   22    20    23    1
@<TRIPOS>SUBSTRUCTURE
       1 MOL1            1 RESIDUE      1      MOL     
@<SCITEGIC>MOL_PROPERTY
VConf Rank
SciTegic.value.IntegerValue
337

@<SCITEGIC>MOL_PROPERTY
Conf_Id
SciTegic.value.IntegerValue
40

@<SCITEGIC>MOL_PROPERTY
Delta U+W
SciTegic.value.DoubleValue
0.000

@<SCITEGIC>MOL_PROPERTY
U+W
SciTegic.value.DoubleValue
-8.382

@<SCITEGIC>MOL_PROPERTY
Grad RMS
SciTegic.value.DoubleValue
0.000000

@<SCITEGIC>MOL_PROPERTY
U
SciTegic.value.DoubleValue
46.604

@<SCITEGIC>MOL_PROPERTY
W
SciTegic.value.DoubleValue
-54.986

@<SCITEGIC>MOL_PROPERTY
W(PB)
SciTegic.value.DoubleValue
-57.162

@<SCITEGIC>MOL_PROPERTY
W(SA)
SciTegic.value.DoubleValue
2.176

@<SCITEGIC>MOL_PROPERTY
Valence
SciTegic.value.DoubleValue
1.727

@<SCITEGIC>MOL_PROPERTY
Coulomb
SciTegic.value.DoubleValue
44.434

@<SCITEGIC>MOL_PROPERTY
VdW
SciTegic.value.DoubleValue
0.443

@<SCITEGIC>MOL_PROPERTY
VdW6
SciTegic.value.DoubleValue
-4.623

@<SCITEGIC>MOL_PROPERTY
VdW12
SciTegic.value.DoubleValue
5.066

@<SCITEGIC>MOL_PROPERTY
Bond
SciTegic.value.DoubleValue
0.112

@<SCITEGIC>MOL_PROPERTY
Angle
SciTegic.value.DoubleValue
0.386

@<SCITEGIC>MOL_PROPERTY
Pdih
SciTegic.value.DoubleValue
1.228

@<SCITEGIC>MOL_PROPERTY
Idih
SciTegic.value.DoubleValue
0.000

@<SCITEGIC>MOL_PROPERTY
Tether
SciTegic.value.DoubleValue
0.000

@<TRIPOS>MOLECULE
guest-2_confgen4.mol2 : confsearch ligand conformer 338
          23          22           1
SMALL
USER_CHARGES
 
@<TRIPOS>ATOM
       1    N1      17.315566   20.784299   24.526298 N.4        1 MOL1        -0.5940
       2    H1      17.751641   21.561329   25.033154 H          1 MOL1         0.3649
       3    H2      17.133705   20.042585   25.210126 H          1 MOL1         0.3649
       4    H3      16.402713   21.117674   24.198290 H          1 MOL1         0.3649
       5    C1      18.181931   20.298523   23.382089 C.3        1 MOL1         0.0207
       6    H4      18.310649   21.127369   22.680764 H          1 MOL1         0.0950
       7    H5      17.643258   19.496142   22.871662 H          1 MOL1         0.0950
       8    C2      19.561448   19.791093   23.843154 C.3        1 MOL1        -0.1415
       9    H6      20.070677   20.592317   24.395126 H          1 MOL1         0.0976
      10    H7      19.432795   18.957750   24.546696 H          1 MOL1         0.0976
      11    C3      20.460811   19.344043   22.666330 C.3        1 MOL1        -0.1375
      12    H8      21.455784   19.107756   23.065276 H          1 MOL1         0.0976
      13    H9      20.595610   20.182625   21.969207 H          1 MOL1         0.0976
      14    C4      19.900599   18.115352   21.905374 C.3        1 MOL1        -0.1375
      15    H10     19.785650   17.270864   22.598806 H          1 MOL1         0.0976
      16    H11     18.895275   18.344038   21.527840 H          1 MOL1         0.0976
      17    C5      20.777457   17.681689   20.705548 C.3        1 MOL1        -0.1350
      18    H12     20.887246   18.519684   20.003044 H          1 MOL1         0.0976
      19    H13     20.253416   16.887235   20.155914 H          1 MOL1         0.0976
      20    C6      22.173606   17.161810   21.117719 C.3        1 MOL1        -0.2365
      21    H14     22.786497   17.956819   21.559964 H          1 MOL1         0.0987
      22    H15     22.713991   16.778284   20.242597 H          1 MOL1         0.0987
      23    H16     22.091670   16.344393   21.845819 H          1 MOL1         0.0987
@<TRIPOS>BOND
    1     1     2    1
    2     1     3    1
    3     1     4    1
    4     1     5    1
    5     5     6    1
    6     5     7    1
    7     5     8    1
    8     8     9    1
    9     8    10    1
   10     8    11    1
   11    11    12    1
   12    11    13    1
   13    11    14    1
   14    14    15    1
   15    14    16    1
   16    14    17    1
   17    17    18    1
   18    17    19    1
   19    17    20    1
   20    20    21    1
   21    20    22    1
   22    20    23    1
@<TRIPOS>SUBSTRUCTURE
       1 MOL1            1 RESIDUE      1      MOL     
@<SCITEGIC>MOL_PROPERTY
VConf Rank
SciTegic.value.IntegerValue
338

@<SCITEGIC>MOL_PROPERTY
Conf_Id
SciTegic.value.IntegerValue
65

@<SCITEGIC>MOL_PROPERTY
Delta U+W
SciTegic.value.DoubleValue
1.004

@<SCITEGIC>MOL_PROPERTY
U+W
SciTegic.value.DoubleValue
-7.378

@<SCITEGIC>MOL_PROPERTY
Grad RMS
SciTegic.value.DoubleValue
0.000000

@<SCITEGIC>MOL_PROPERTY
U
SciTegic.value.DoubleValue
48.047

@<SCITEGIC>MOL_PROPERTY
W
SciTegic.value.DoubleValue
-55.425

@<SCITEGIC>MOL_PROPERTY
W(PB)
SciTegic.value.DoubleValue
-57.542

@<SCITEGIC>MOL_PROPERTY
W(SA)
SciTegic.value.DoubleValue
2.116

@<SCITEGIC>MOL_PROPERTY
Valence
SciTegic.value.DoubleValue
2.583

@<SCITEGIC>MOL_PROPERTY
Coulomb
SciTegic.value.DoubleValue
44.791

@<SCITEGIC>MOL_PROPERTY
VdW
SciTegic.value.DoubleValue
0.673

@<SCITEGIC>MOL_PROPERTY
VdW6
SciTegic.value.DoubleValue
-5.788

@<SCITEGIC>MOL_PROPERTY
VdW12
SciTegic.value.DoubleValue
6.462

@<SCITEGIC>MOL_PROPERTY
Bond
SciTegic.value.DoubleValue
0.177

@<SCITEGIC>MOL_PROPERTY
Angle
SciTegic.value.DoubleValue
0.787

@<SCITEGIC>MOL_PROPERTY
Pdih
SciTegic.value.DoubleValue
1.619

@<SCITEGIC>MOL_PROPERTY
Idih
SciTegic.value.DoubleValue
0.000

@<SCITEGIC>MOL_PROPERTY
Tether
SciTegic.value.DoubleValue
0.000

@<TRIPOS>MOLECULE
guest-2_confgen4.mol2 : confsearch ligand conformer 339
          23          22           1
SMALL
USER_CHARGES
 
@<TRIPOS>ATOM
       1    N1      20.110945   19.623406   19.104367 N.4        1 MOL1        -0.5940
       2    H1      19.208857   19.892971   18.698893 H          1 MOL1         0.3649
       3    H2      20.575923   19.017338   18.419892 H          1 MOL1         0.3649
       4    H3      20.674903   20.476193   19.178791 H          1 MOL1         0.3649
       5    C1      19.945686   18.935988   20.444487 C.3        1 MOL1         0.0207
       6    H4      20.939413   18.651236   20.799373 H          1 MOL1         0.0950
       7    H5      19.362158   18.024928   20.286774 H          1 MOL1         0.0950
       8    C2      19.249401   19.821749   21.495081 C.3        1 MOL1        -0.1415
       9    H6      19.835713   20.736474   21.654774 H          1 MOL1         0.0976
      10    H7      18.273092   20.138649   21.104771 H          1 MOL1         0.0976
      11    C3      19.037479   19.097461   22.845677 C.3        1 MOL1        -0.1375
      12    H8      18.442311   18.188026   22.684202 H          1 MOL1         0.0976
      13    H9      18.439263   19.749901   23.494849 H          1 MOL1         0.0976
      14    C4      20.366366   18.734335   23.556150 C.3        1 MOL1        -0.1375
      15    H10     20.974880   18.101976   22.896348 H          1 MOL1         0.0976
      16    H11     20.951705   19.646618   23.735978 H          1 MOL1         0.0976
      17    C5      20.164011   17.979684   24.892591 C.3        1 MOL1        -0.1350
      18    H12     21.146079   17.659300   25.267783 H          1 MOL1         0.0976
      19    H13     19.587850   17.060427   24.717080 H          1 MOL1         0.0976
      20    C6      19.469854   18.828976   25.981736 C.3        1 MOL1        -0.2365
      21    H14     18.435213   19.069661   25.708157 H          1 MOL1         0.0987
      22    H15     20.009009   19.769827   26.152390 H          1 MOL1         0.0987
      23    H16     19.439781   18.282529   26.933280 H          1 MOL1         0.0987
@<TRIPOS>BOND
    1     1     2    1
    2     1     3    1
    3     1     4    1
    4     1     5    1
    5     5     6    1
    6     5     7    1
    7     5     8    1
    8     8     9    1
    9     8    10    1
   10     8    11    1
   11    11    12    1
   12    11    13    1
   13    11    14    1
   14    14    15    1
   15    14    16    1
   16    14    17    1
   17    17    18    1
   18    17    19    1
   19    17    20    1
   20    20    21    1
   21    20    22    1
   22    20    23    1
@<TRIPOS>SUBSTRUCTURE
       1 MOL1            1 RESIDUE      1      MOL     
@<SCITEGIC>MOL_PROPERTY
VConf Rank
SciTegic.value.IntegerValue
339

@<SCITEGIC>MOL_PROPERTY
Conf_Id
SciTegic.value.IntegerValue
92

@<SCITEGIC>MOL_PROPERTY
Delta U+W
SciTegic.value.DoubleValue
0.973

@<SCITEGIC>MOL_PROPERTY
U+W
SciTegic.value.DoubleValue
-7.409

@<SCITEGIC>MOL_PROPERTY
Grad RMS
SciTegic.value.DoubleValue
0.000000

@<SCITEGIC>MOL_PROPERTY
U
SciTegic.value.DoubleValue
48.047

@<SCITEGIC>MOL_PROPERTY
W
SciTegic.value.DoubleValue
-55.456

@<SCITEGIC>MOL_PROPERTY
W(PB)
SciTegic.value.DoubleValue
-57.595

@<SCITEGIC>MOL_PROPERTY
W(SA)
SciTegic.value.DoubleValue
2.138

@<SCITEGIC>MOL_PROPERTY
Valence
SciTegic.value.DoubleValue
2.583

@<SCITEGIC>MOL_PROPERTY
Coulomb
SciTegic.value.DoubleValue
44.791

@<SCITEGIC>MOL_PROPERTY
VdW
SciTegic.value.DoubleValue
0.674

@<SCITEGIC>MOL_PROPERTY
VdW6
SciTegic.value.DoubleValue
-5.789

@<SCITEGIC>MOL_PROPERTY
VdW12
SciTegic.value.DoubleValue
6.462

@<SCITEGIC>MOL_PROPERTY
Bond
SciTegic.value.DoubleValue
0.177

@<SCITEGIC>MOL_PROPERTY
Angle
SciTegic.value.DoubleValue
0.787

@<SCITEGIC>MOL_PROPERTY
Pdih
SciTegic.value.DoubleValue
1.619

@<SCITEGIC>MOL_PROPERTY
Idih
SciTegic.value.DoubleValue
0.000

@<SCITEGIC>MOL_PROPERTY
Tether
SciTegic.value.DoubleValue
0.000

@<TRIPOS>MOLECULE
guest-2_confgen4.mol2 : confsearch ligand conformer 340
          23          22           1
SMALL
USER_CHARGES
 
@<TRIPOS>ATOM
       1    N1      18.028786   22.052227   22.388683 N.4        1 MOL1        -0.5940
       2    H1      18.423374   22.909412   22.790639 H          1 MOL1         0.3649
       3    H2      17.034474   22.037085   22.637614 H          1 MOL1         0.3649
       4    H3      18.082953   22.148724   21.369569 H          1 MOL1         0.3649
       5    C1      18.753286   20.815078   22.878927 C.3        1 MOL1         0.0207
       6    H4      18.680134   20.790979   23.969562 H          1 MOL1         0.0950
       7    H5      19.807230   20.913986   22.606690 H          1 MOL1         0.0950
       8    C2      18.183146   19.509745   22.292494 C.3        1 MOL1        -0.1415
       9    H6      17.114102   19.444503   22.535051 H          1 MOL1         0.0976
      10    H7      18.255893   19.534382   21.197005 H          1 MOL1         0.0976
      11    C3      18.898196   18.248885   22.832838 C.3        1 MOL1        -0.1375
      12    H8      18.382169   17.358830   22.446874 H          1 MOL1         0.0976
      13    H9      18.801668   18.213568   23.926952 H          1 MOL1         0.0976
      14    C4      20.393163   18.181370   22.437900 C.3        1 MOL1        -0.1375
      15    H10     20.487870   18.250236   21.345332 H          1 MOL1         0.0976
      16    H11     20.932072   19.040677   22.858881 H          1 MOL1         0.0976
      17    C5      21.058145   16.876575   22.929917 C.3        1 MOL1        -0.1350
      18    H12     20.531689   16.009104   22.507662 H          1 MOL1         0.0976
      19    H13     20.965681   16.802219   24.022575 H          1 MOL1         0.0976
      20    C6      22.549332   16.810920   22.536711 C.3        1 MOL1        -0.2365
      21    H14     22.672171   16.849308   21.446453 H          1 MOL1         0.0987
      22    H15     23.003721   15.877743   22.894143 H          1 MOL1         0.0987
      23    H16     23.110142   17.647473   22.973624 H          1 MOL1         0.0987
@<TRIPOS>BOND
    1     1     2    1
    2     1     3    1
    3     1     4    1
    4     1     5    1
    5     5     6    1
    6     5     7    1
    7     5     8    1
    8     8     9    1
    9     8    10    1
   10     8    11    1
   11    11    12    1
   12    11    13    1
   13    11    14    1
   14    14    15    1
   15    14    16    1
   16    14    17    1
   17    17    18    1
   18    17    19    1
   19    17    20    1
   20    20    21    1
   21    20    22    1
   22    20    23    1
@<TRIPOS>SUBSTRUCTURE
       1 MOL1            1 RESIDUE      1      MOL     
@<SCITEGIC>MOL_PROPERTY
VConf Rank
SciTegic.value.IntegerValue
340

@<SCITEGIC>MOL_PROPERTY
Conf_Id
SciTegic.value.IntegerValue
42

@<SCITEGIC>MOL_PROPERTY
Delta U+W
SciTegic.value.DoubleValue
0.365

@<SCITEGIC>MOL_PROPERTY
U+W
SciTegic.value.DoubleValue
-8.017

@<SCITEGIC>MOL_PROPERTY
Grad RMS
SciTegic.value.DoubleValue
0.000000

@<SCITEGIC>MOL_PROPERTY
U
SciTegic.value.DoubleValue
47.375

@<SCITEGIC>MOL_PROPERTY
W
SciTegic.value.DoubleValue
-55.392

@<SCITEGIC>MOL_PROPERTY
W(PB)
SciTegic.value.DoubleValue
-57.543

@<SCITEGIC>MOL_PROPERTY
W(SA)
SciTegic.value.DoubleValue
2.152

@<SCITEGIC>MOL_PROPERTY
Valence
SciTegic.value.DoubleValue
2.032

@<SCITEGIC>MOL_PROPERTY
Coulomb
SciTegic.value.DoubleValue
44.843

@<SCITEGIC>MOL_PROPERTY
VdW
SciTegic.value.DoubleValue
0.499

@<SCITEGIC>MOL_PROPERTY
VdW6
SciTegic.value.DoubleValue
-5.218

@<SCITEGIC>MOL_PROPERTY
VdW12
SciTegic.value.DoubleValue
5.717

@<SCITEGIC>MOL_PROPERTY
Bond
SciTegic.value.DoubleValue
0.135

@<SCITEGIC>MOL_PROPERTY
Angle
SciTegic.value.DoubleValue
0.514

@<SCITEGIC>MOL_PROPERTY
Pdih
SciTegic.value.DoubleValue
1.383

@<SCITEGIC>MOL_PROPERTY
Idih
SciTegic.value.DoubleValue
0.000

@<SCITEGIC>MOL_PROPERTY
Tether
SciTegic.value.DoubleValue
0.000

@<TRIPOS>MOLECULE
guest-2_confgen4.mol2 : confsearch ligand conformer 341
          23          22           1
SMALL
USER_CHARGES
 
@<TRIPOS>ATOM
       1    N1      19.742555   18.348855   25.731081 N.4        1 MOL1        -0.5940
       2    H1      19.442561   17.378796   25.590997 H          1 MOL1         0.3649
       3    H2      19.576141   18.573512   26.717886 H          1 MOL1         0.3649
       4    H3      20.756117   18.376497   25.585035 H          1 MOL1         0.3649
       5    C1      19.013206   19.303767   24.805999 C.3        1 MOL1         0.0207
       6    H4      19.359822   20.318004   25.021873 H          1 MOL1         0.0950
       7    H5      17.948405   19.249276   25.048488 H          1 MOL1         0.0950
       8    C2      19.211067   18.995170   23.309052 C.3        1 MOL1        -0.1415
       9    H6      18.887998   17.966766   23.100095 H          1 MOL1         0.0976
      10    H7      18.550477   19.660443   22.739710 H          1 MOL1         0.0976
      11    C3      20.673297   19.200521   22.843733 C.3        1 MOL1        -0.1375
      12    H8      21.345846   18.613361   23.482680 H          1 MOL1         0.0976
      13    H9      20.956464   20.252445   22.987535 H          1 MOL1         0.0976
      14    C4      20.938906   18.792877   21.371206 C.3        1 MOL1        -0.1375
      15    H10     22.010012   18.941408   21.175868 H          1 MOL1         0.0976
      16    H11     20.761742   17.716536   21.239567 H          1 MOL1         0.0976
      17    C5      20.140337   19.600977   20.315885 C.3        1 MOL1        -0.1350
      18    H12     20.775838   19.744739   19.430762 H          1 MOL1         0.0976
      19    H13     19.917637   20.608512   20.693876 H          1 MOL1         0.0976
      20    C6      18.840623   18.897809   19.859204 C.3        1 MOL1        -0.2365
      21    H14     19.061263   17.920649   19.410276 H          1 MOL1         0.0987
      22    H15     18.322810   19.501731   19.102857 H          1 MOL1         0.0987
      23    H16     18.144133   18.737171   20.689395 H          1 MOL1         0.0987
@<TRIPOS>BOND
    1     1     2    1
    2     1     3    1
    3     1     4    1
    4     1     5    1
    5     5     6    1
    6     5     7    1
    7     5     8    1
    8     8     9    1
    9     8    10    1
   10     8    11    1
   11    11    12    1
   12    11    13    1
   13    11    14    1
   14    14    15    1
   15    14    16    1
   16    14    17    1
   17    17    18    1
   18    17    19    1
   19    17    20    1
   20    20    21    1
   21    20    22    1
   22    20    23    1
@<TRIPOS>SUBSTRUCTURE
       1 MOL1            1 RESIDUE      1      MOL     
@<SCITEGIC>MOL_PROPERTY
VConf Rank
SciTegic.value.IntegerValue
341

@<SCITEGIC>MOL_PROPERTY
Conf_Id
SciTegic.value.IntegerValue
3

@<SCITEGIC>MOL_PROPERTY
Delta U+W
SciTegic.value.DoubleValue
3.283

@<SCITEGIC>MOL_PROPERTY
U+W
SciTegic.value.DoubleValue
-5.099

@<SCITEGIC>MOL_PROPERTY
Grad RMS
SciTegic.value.DoubleValue
0.000000

@<SCITEGIC>MOL_PROPERTY
U
SciTegic.value.DoubleValue
50.701

@<SCITEGIC>MOL_PROPERTY
W
SciTegic.value.DoubleValue
-55.800

@<SCITEGIC>MOL_PROPERTY
W(PB)
SciTegic.value.DoubleValue
-57.867

@<SCITEGIC>MOL_PROPERTY
W(SA)
SciTegic.value.DoubleValue
2.067

@<SCITEGIC>MOL_PROPERTY
Valence
SciTegic.value.DoubleValue
4.880

@<SCITEGIC>MOL_PROPERTY
Coulomb
SciTegic.value.DoubleValue
45.095

@<SCITEGIC>MOL_PROPERTY
VdW
SciTegic.value.DoubleValue
0.726

@<SCITEGIC>MOL_PROPERTY
VdW6
SciTegic.value.DoubleValue
-6.620

@<SCITEGIC>MOL_PROPERTY
VdW12
SciTegic.value.DoubleValue
7.346

@<SCITEGIC>MOL_PROPERTY
Bond
SciTegic.value.DoubleValue
0.222

@<SCITEGIC>MOL_PROPERTY
Angle
SciTegic.value.DoubleValue
1.260

@<SCITEGIC>MOL_PROPERTY
Pdih
SciTegic.value.DoubleValue
3.398

@<SCITEGIC>MOL_PROPERTY
Idih
SciTegic.value.DoubleValue
0.000

@<SCITEGIC>MOL_PROPERTY
Tether
SciTegic.value.DoubleValue
0.000

@<TRIPOS>MOLECULE
guest-2_confgen4.mol2 : confsearch ligand conformer 342
          23          22           1
SMALL
USER_CHARGES
 
@<TRIPOS>ATOM
       1    N1      17.716253   20.377515   24.130177 N.4        1 MOL1        -0.5940
       2    H1      17.533649   21.341941   23.835063 H          1 MOL1         0.3649
       3    H2      17.050788   20.163035   24.880503 H          1 MOL1         0.3649
       4    H3      17.484199   19.769155   23.339197 H          1 MOL1         0.3649
       5    C1      19.151848   20.188309   24.579132 C.3        1 MOL1         0.0207
       6    H4      19.270759   19.152802   24.907878 H          1 MOL1         0.0950
       7    H5      19.318767   20.838322   25.442352 H          1 MOL1         0.0950
       8    C2      20.191173   20.512970   23.486578 C.3        1 MOL1        -0.1415
       9    H6      20.094111   21.569415   23.203193 H          1 MOL1         0.0976
      10    H7      21.196982   20.402466   23.913189 H          1 MOL1         0.0976
      11    C3      20.075310   19.630927   22.217633 C.3        1 MOL1        -0.1375
      12    H8      20.828953   19.972631   21.496428 H          1 MOL1         0.0976
      13    H9      19.099998   19.790406   21.739007 H          1 MOL1         0.0976
      14    C4      20.278879   18.121194   22.503452 C.3        1 MOL1        -0.1375
      15    H10     21.266575   17.960149   22.956983 H          1 MOL1         0.0976
      16    H11     19.540851   17.783969   23.243012 H          1 MOL1         0.0976
      17    C5      20.138002   17.231429   21.244517 C.3        1 MOL1        -0.1350
      18    H12     19.147383   17.380217   20.792563 H          1 MOL1         0.0976
      19    H13     20.179425   16.177275   21.552587 H          1 MOL1         0.0976
      20    C6      21.235918   17.482193   20.185724 C.3        1 MOL1        -0.2365
      21    H14     22.237424   17.372103   20.621468 H          1 MOL1         0.0987
      22    H15     21.157436   18.486795   19.752292 H          1 MOL1         0.0987
      23    H16     21.147276   16.761149   19.362819 H          1 MOL1         0.0987
@<TRIPOS>BOND
    1     1     2    1
    2     1     3    1
    3     1     4    1
    4     1     5    1
    5     5     6    1
    6     5     7    1
    7     5     8    1
    8     8     9    1
    9     8    10    1
   10     8    11    1
   11    11    12    1
   12    11    13    1
   13    11    14    1
   14    14    15    1
   15    14    16    1
   16    14    17    1
   17    17    18    1
   18    17    19    1
   19    17    20    1
   20    20    21    1
   21    20    22    1
   22    20    23    1
@<TRIPOS>SUBSTRUCTURE
       1 MOL1            1 RESIDUE      1      MOL     
@<SCITEGIC>MOL_PROPERTY
VConf Rank
SciTegic.value.IntegerValue
342

@<SCITEGIC>MOL_PROPERTY
Conf_Id
SciTegic.value.IntegerValue
83

@<SCITEGIC>MOL_PROPERTY
Delta U+W
SciTegic.value.DoubleValue
1.229

@<SCITEGIC>MOL_PROPERTY
U+W
SciTegic.value.DoubleValue
-7.154

@<SCITEGIC>MOL_PROPERTY
Grad RMS
SciTegic.value.DoubleValue
0.000000

@<SCITEGIC>MOL_PROPERTY
U
SciTegic.value.DoubleValue
48.727

@<SCITEGIC>MOL_PROPERTY
W
SciTegic.value.DoubleValue
-55.880

@<SCITEGIC>MOL_PROPERTY
W(PB)
SciTegic.value.DoubleValue
-57.960

@<SCITEGIC>MOL_PROPERTY
W(SA)
SciTegic.value.DoubleValue
2.080

@<SCITEGIC>MOL_PROPERTY
Valence
SciTegic.value.DoubleValue
2.671

@<SCITEGIC>MOL_PROPERTY
Coulomb
SciTegic.value.DoubleValue
45.371

@<SCITEGIC>MOL_PROPERTY
VdW
SciTegic.value.DoubleValue
0.684

@<SCITEGIC>MOL_PROPERTY
VdW6
SciTegic.value.DoubleValue
-6.511

@<SCITEGIC>MOL_PROPERTY
VdW12
SciTegic.value.DoubleValue
7.195

@<SCITEGIC>MOL_PROPERTY
Bond
SciTegic.value.DoubleValue
0.203

@<SCITEGIC>MOL_PROPERTY
Angle
SciTegic.value.DoubleValue
0.915

@<SCITEGIC>MOL_PROPERTY
Pdih
SciTegic.value.DoubleValue
1.554

@<SCITEGIC>MOL_PROPERTY
Idih
SciTegic.value.DoubleValue
0.000

@<SCITEGIC>MOL_PROPERTY
Tether
SciTegic.value.DoubleValue
0.000

@<TRIPOS>MOLECULE
guest-2_confgen4.mol2 : confsearch ligand conformer 343
          23          22           1
SMALL
USER_CHARGES
 
@<TRIPOS>ATOM
       1    N1      17.546341   17.177559   22.012409 N.4        1 MOL1        -0.5940
       2    H1      17.295570   17.131971   21.019641 H          1 MOL1         0.3649
       3    H2      17.357991   18.133448   22.329273 H          1 MOL1         0.3649
       4    H3      16.897949   16.560857   22.513508 H          1 MOL1         0.3649
       5    C1      18.991839   16.785160   22.246615 C.3        1 MOL1         0.0207
       6    H4      19.112281   15.748770   21.919634 H          1 MOL1         0.0950
       7    H5      19.184130   16.824788   23.321764 H          1 MOL1         0.0950
       8    C2      20.005261   17.677258   21.500683 C.3        1 MOL1        -0.1415
       9    H6      21.016469   17.289571   21.682386 H          1 MOL1         0.0976
      10    H7      19.833400   17.587213   20.419869 H          1 MOL1         0.0976
      11    C3      19.952013   19.172747   21.903582 C.3        1 MOL1        -0.1375
      12    H8      18.967771   19.591993   21.656098 H          1 MOL1         0.0976
      13    H9      20.679414   19.716722   21.287260 H          1 MOL1         0.0976
      14    C4      20.262137   19.411923   23.403265 C.3        1 MOL1        -0.1375
      15    H10     19.550043   18.848737   24.020596 H          1 MOL1         0.0976
      16    H11     21.258873   19.016585   23.642837 H          1 MOL1         0.0976
      17    C5      20.184347   20.901214   23.818480 C.3        1 MOL1        -0.1350
      18    H12     20.300310   20.968615   24.909293 H          1 MOL1         0.0976
      19    H13     19.185602   21.299326   23.591013 H          1 MOL1         0.0976
      20    C6      21.261580   21.785295   23.149666 C.3        1 MOL1        -0.2365
      21    H14     22.268452   21.389100   23.334722 H          1 MOL1         0.0987
      22    H15     21.223940   22.806094   23.551521 H          1 MOL1         0.0987
      23    H16     21.112222   21.853367   22.065091 H          1 MOL1         0.0987
@<TRIPOS>BOND
    1     1     2    1
    2     1     3    1
    3     1     4    1
    4     1     5    1
    5     5     6    1
    6     5     7    1
    7     5     8    1
    8     8     9    1
    9     8    10    1
   10     8    11    1
   11    11    12    1
   12    11    13    1
   13    11    14    1
   14    14    15    1
   15    14    16    1
   16    14    17    1
   17    17    18    1
   18    17    19    1
   19    17    20    1
   20    20    21    1
   21    20    22    1
   22    20    23    1
@<TRIPOS>SUBSTRUCTURE
       1 MOL1            1 RESIDUE      1      MOL     
@<SCITEGIC>MOL_PROPERTY
VConf Rank
SciTegic.value.IntegerValue
343

@<SCITEGIC>MOL_PROPERTY
Conf_Id
SciTegic.value.IntegerValue
50

@<SCITEGIC>MOL_PROPERTY
Delta U+W
SciTegic.value.DoubleValue
1.252

@<SCITEGIC>MOL_PROPERTY
U+W
SciTegic.value.DoubleValue
-7.130

@<SCITEGIC>MOL_PROPERTY
Grad RMS
SciTegic.value.DoubleValue
0.000000

@<SCITEGIC>MOL_PROPERTY
U
SciTegic.value.DoubleValue
48.727

@<SCITEGIC>MOL_PROPERTY
W
SciTegic.value.DoubleValue
-55.857

@<SCITEGIC>MOL_PROPERTY
W(PB)
SciTegic.value.DoubleValue
-57.937

@<SCITEGIC>MOL_PROPERTY
W(SA)
SciTegic.value.DoubleValue
2.080

@<SCITEGIC>MOL_PROPERTY
Valence
SciTegic.value.DoubleValue
2.671

@<SCITEGIC>MOL_PROPERTY
Coulomb
SciTegic.value.DoubleValue
45.371

@<SCITEGIC>MOL_PROPERTY
VdW
SciTegic.value.DoubleValue
0.684

@<SCITEGIC>MOL_PROPERTY
VdW6
SciTegic.value.DoubleValue
-6.511

@<SCITEGIC>MOL_PROPERTY
VdW12
SciTegic.value.DoubleValue
7.196

@<SCITEGIC>MOL_PROPERTY
Bond
SciTegic.value.DoubleValue
0.203

@<SCITEGIC>MOL_PROPERTY
Angle
SciTegic.value.DoubleValue
0.915

@<SCITEGIC>MOL_PROPERTY
Pdih
SciTegic.value.DoubleValue
1.554

@<SCITEGIC>MOL_PROPERTY
Idih
SciTegic.value.DoubleValue
0.000

@<SCITEGIC>MOL_PROPERTY
Tether
SciTegic.value.DoubleValue
0.000

@<TRIPOS>MOLECULE
guest-2_confgen4.mol2 : confsearch ligand conformer 344
          23          22           1
SMALL
USER_CHARGES
 
@<TRIPOS>ATOM
       1    N1      18.420080   21.828699   21.917466 N.4        1 MOL1        -0.5940
       2    H1      19.330914   21.905356   21.454824 H          1 MOL1         0.3649
       3    H2      18.168165   22.768953   22.240560 H          1 MOL1         0.3649
       4    H3      17.736681   21.566314   21.200009 H          1 MOL1         0.3649
       5    C1      18.450698   20.830871   23.058800 C.3        1 MOL1         0.0207
       6    H4      17.462869   20.833397   23.527586 H          1 MOL1         0.0950
       7    H5      19.178256   21.180810   23.796102 H          1 MOL1         0.0950
       8    C2      18.804742   19.396104   22.621928 C.3        1 MOL1        -0.1415
       9    H6      18.693444   18.736410   23.489730 H          1 MOL1         0.0976
      10    H7      18.074484   19.051220   21.877922 H          1 MOL1         0.0976
      11    C3      20.238453   19.284686   22.043366 C.3        1 MOL1        -0.1375
      12    H8      20.967916   19.715406   22.743165 H          1 MOL1         0.0976
      13    H9      20.294777   19.893895   21.131401 H          1 MOL1         0.0976
      14    C4      20.644145   17.832250   21.680118 C.3        1 MOL1        -0.1375
      15    H10     19.757350   17.246590   21.401210 H          1 MOL1         0.0976
      16    H11     21.270666   17.867295   20.778045 H          1 MOL1         0.0976
      17    C5      21.449578   17.090519   22.777533 C.3        1 MOL1        -0.1350
      18    H12     22.385171   17.631567   22.976796 H          1 MOL1         0.0976
      19    H13     21.745046   16.106353   22.387751 H          1 MOL1         0.0976
      20    C6      20.683143   16.887930   24.102888 C.3        1 MOL1        -0.2365
      21    H14     19.714719   16.400919   23.930231 H          1 MOL1         0.0987
      22    H15     20.508951   17.843414   24.612773 H          1 MOL1         0.0987
      23    H16     21.260991   16.252692   24.786593 H          1 MOL1         0.0987
@<TRIPOS>BOND
    1     1     2    1
    2     1     3    1
    3     1     4    1
    4     1     5    1
    5     5     6    1
    6     5     7    1
    7     5     8    1
    8     8     9    1
    9     8    10    1
   10     8    11    1
   11    11    12    1
   12    11    13    1
   13    11    14    1
   14    14    15    1
   15    14    16    1
   16    14    17    1
   17    17    18    1
   18    17    19    1
   19    17    20    1
   20    20    21    1
   21    20    22    1
   22    20    23    1
@<TRIPOS>SUBSTRUCTURE
       1 MOL1            1 RESIDUE      1      MOL     
@<SCITEGIC>MOL_PROPERTY
VConf Rank
SciTegic.value.IntegerValue
344

@<SCITEGIC>MOL_PROPERTY
Conf_Id
SciTegic.value.IntegerValue
55

@<SCITEGIC>MOL_PROPERTY
Delta U+W
SciTegic.value.DoubleValue
3.232

@<SCITEGIC>MOL_PROPERTY
U+W
SciTegic.value.DoubleValue
-5.150

@<SCITEGIC>MOL_PROPERTY
Grad RMS
SciTegic.value.DoubleValue
0.000000

@<SCITEGIC>MOL_PROPERTY
U
SciTegic.value.DoubleValue
50.625

@<SCITEGIC>MOL_PROPERTY
W
SciTegic.value.DoubleValue
-55.776

@<SCITEGIC>MOL_PROPERTY
W(PB)
SciTegic.value.DoubleValue
-57.839

@<SCITEGIC>MOL_PROPERTY
W(SA)
SciTegic.value.DoubleValue
2.064

@<SCITEGIC>MOL_PROPERTY
Valence
SciTegic.value.DoubleValue
4.837

@<SCITEGIC>MOL_PROPERTY
Coulomb
SciTegic.value.DoubleValue
45.097

@<SCITEGIC>MOL_PROPERTY
VdW
SciTegic.value.DoubleValue
0.692

@<SCITEGIC>MOL_PROPERTY
VdW6
SciTegic.value.DoubleValue
-6.655

@<SCITEGIC>MOL_PROPERTY
VdW12
SciTegic.value.DoubleValue
7.347

@<SCITEGIC>MOL_PROPERTY
Bond
SciTegic.value.DoubleValue
0.223

@<SCITEGIC>MOL_PROPERTY
Angle
SciTegic.value.DoubleValue
1.167

@<SCITEGIC>MOL_PROPERTY
Pdih
SciTegic.value.DoubleValue
3.447

@<SCITEGIC>MOL_PROPERTY
Idih
SciTegic.value.DoubleValue
0.000

@<SCITEGIC>MOL_PROPERTY
Tether
SciTegic.value.DoubleValue
0.000

@<TRIPOS>MOLECULE
guest-2_confgen4.mol2 : confsearch ligand conformer 345
          23          22           1
SMALL
USER_CHARGES
 
@<TRIPOS>ATOM
       1    N1      20.155841   15.902696   22.533646 N.4        1 MOL1        -0.5940
       2    H1      20.843297   15.409630   23.112541 H          1 MOL1         0.3649
       3    H2      20.089933   15.389660   21.647955 H          1 MOL1         0.3649
       4    H3      19.247675   15.810359   22.999977 H          1 MOL1         0.3649
       5    C1      20.535891   17.353360   22.317346 C.3        1 MOL1         0.0207
       6    H4      19.782862   17.801779   21.666802 H          1 MOL1         0.0950
       7    H5      21.495151   17.374777   21.793169 H          1 MOL1         0.0950
       8    C2      20.649515   18.148880   23.632649 C.3        1 MOL1        -0.1415
       9    H6      19.706590   18.097521   24.193111 H          1 MOL1         0.0976
      10    H7      21.409427   17.663355   24.259402 H          1 MOL1         0.0976
      11    C3      21.060839   19.627146   23.415837 C.3        1 MOL1        -0.1375
      12    H8      21.791604   19.698476   22.598219 H          1 MOL1         0.0976
      13    H9      21.588758   19.970257   24.316433 H          1 MOL1         0.0976
      14    C4      19.882733   20.604097   23.164630 C.3        1 MOL1        -0.1375
      15    H10     19.213104   20.601551   24.035769 H          1 MOL1         0.0976
      16    H11     20.291429   21.621937   23.098211 H          1 MOL1         0.0976
      17    C5      19.063017   20.309731   21.887165 C.3        1 MOL1        -0.1350
      18    H12     18.519433   19.362981   22.001604 H          1 MOL1         0.0976
      19    H13     19.738079   20.196809   21.027388 H          1 MOL1         0.0976
      20    C6      18.043788   21.431254   21.593844 C.3        1 MOL1        -0.2365
      21    H14     18.548917   22.392603   21.433016 H          1 MOL1         0.0987
      22    H15     17.338212   21.550751   22.426391 H          1 MOL1         0.0987
      23    H16     17.463541   21.201177   20.690844 H          1 MOL1         0.0987
@<TRIPOS>BOND
    1     1     2    1
    2     1     3    1
    3     1     4    1
    4     1     5    1
    5     5     6    1
    6     5     7    1
    7     5     8    1
    8     8     9    1
    9     8    10    1
   10     8    11    1
   11    11    12    1
   12    11    13    1
   13    11    14    1
   14    14    15    1
   15    14    16    1
   16    14    17    1
   17    17    18    1
   18    17    19    1
   19    17    20    1
   20    20    21    1
   21    20    22    1
   22    20    23    1
@<TRIPOS>SUBSTRUCTURE
       1 MOL1            1 RESIDUE      1      MOL     
@<SCITEGIC>MOL_PROPERTY
VConf Rank
SciTegic.value.IntegerValue
345

@<SCITEGIC>MOL_PROPERTY
Conf_Id
SciTegic.value.IntegerValue
93

@<SCITEGIC>MOL_PROPERTY
Delta U+W
SciTegic.value.DoubleValue
2.589

@<SCITEGIC>MOL_PROPERTY
U+W
SciTegic.value.DoubleValue
-5.793

@<SCITEGIC>MOL_PROPERTY
Grad RMS
SciTegic.value.DoubleValue
0.000000

@<SCITEGIC>MOL_PROPERTY
U
SciTegic.value.DoubleValue
50.122

@<SCITEGIC>MOL_PROPERTY
W
SciTegic.value.DoubleValue
-55.915

@<SCITEGIC>MOL_PROPERTY
W(PB)
SciTegic.value.DoubleValue
-58.031

@<SCITEGIC>MOL_PROPERTY
W(SA)
SciTegic.value.DoubleValue
2.115

@<SCITEGIC>MOL_PROPERTY
Valence
SciTegic.value.DoubleValue
4.132

@<SCITEGIC>MOL_PROPERTY
Coulomb
SciTegic.value.DoubleValue
45.536

@<SCITEGIC>MOL_PROPERTY
VdW
SciTegic.value.DoubleValue
0.454

@<SCITEGIC>MOL_PROPERTY
VdW6
SciTegic.value.DoubleValue
-6.262

@<SCITEGIC>MOL_PROPERTY
VdW12
SciTegic.value.DoubleValue
6.715

@<SCITEGIC>MOL_PROPERTY
Bond
SciTegic.value.DoubleValue
0.182

@<SCITEGIC>MOL_PROPERTY
Angle
SciTegic.value.DoubleValue
1.157

@<SCITEGIC>MOL_PROPERTY
Pdih
SciTegic.value.DoubleValue
2.794

@<SCITEGIC>MOL_PROPERTY
Idih
SciTegic.value.DoubleValue
0.000

@<SCITEGIC>MOL_PROPERTY
Tether
SciTegic.value.DoubleValue
0.000

@<TRIPOS>MOLECULE
guest-2_confgen4.mol2 : confsearch ligand conformer 346
          23          22           1
SMALL
USER_CHARGES
 
@<TRIPOS>ATOM
       1    N1      19.008782   16.359652   20.997367 N.4        1 MOL1        -0.5940
       2    H1      18.649665   16.936496   20.229876 H          1 MOL1         0.3649
       3    H2      18.239675   15.751646   21.298700 H          1 MOL1         0.3649
       4    H3      19.732677   15.750288   20.603055 H          1 MOL1         0.3649
       5    C1      19.540171   17.203123   22.138343 C.3        1 MOL1         0.0207
       6    H4      19.877407   16.526129   22.927869 H          1 MOL1         0.0950
       7    H5      18.710873   17.795264   22.529464 H          1 MOL1         0.0950
       8    C2      20.702936   18.122932   21.716779 C.3        1 MOL1        -0.1415
       9    H6      21.511127   17.491511   21.324155 H          1 MOL1         0.0976
      10    H7      20.392541   18.777700   20.891675 H          1 MOL1         0.0976
      11    C3      21.263690   18.969777   22.887194 C.3        1 MOL1        -0.1375
      12    H8      22.319778   19.187584   22.675682 H          1 MOL1         0.0976
      13    H9      21.262352   18.378895   23.813726 H          1 MOL1         0.0976
      14    C4      20.544744   20.324542   23.117846 C.3        1 MOL1        -0.1375
      15    H10     21.073197   20.859466   23.919117 H          1 MOL1         0.0976
      16    H11     20.643343   20.948832   22.219052 H          1 MOL1         0.0976
      17    C5      19.050690   20.204523   23.497188 C.3        1 MOL1        -0.1350
      18    H12     18.931033   19.491102   24.324465 H          1 MOL1         0.0976
      19    H13     18.478740   19.814862   22.645159 H          1 MOL1         0.0976
      20    C6      18.456299   21.568662   23.907684 C.3        1 MOL1        -0.2365
      21    H14     17.393467   21.467301   24.162919 H          1 MOL1         0.0987
      22    H15     18.538560   22.296891   23.090270 H          1 MOL1         0.0987
      23    H16     18.974951   21.978424   24.784217 H          1 MOL1         0.0987
@<TRIPOS>BOND
    1     1     2    1
    2     1     3    1
    3     1     4    1
    4     1     5    1
    5     5     6    1
    6     5     7    1
    7     5     8    1
    8     8     9    1
    9     8    10    1
   10     8    11    1
   11    11    12    1
   12    11    13    1
   13    11    14    1
   14    14    15    1
   15    14    16    1
   16    14    17    1
   17    17    18    1
   18    17    19    1
   19    17    20    1
   20    20    21    1
   21    20    22    1
   22    20    23    1
@<TRIPOS>SUBSTRUCTURE
       1 MOL1            1 RESIDUE      1      MOL     
@<SCITEGIC>MOL_PROPERTY
VConf Rank
SciTegic.value.IntegerValue
346

@<SCITEGIC>MOL_PROPERTY
Conf_Id
SciTegic.value.IntegerValue
70

@<SCITEGIC>MOL_PROPERTY
Delta U+W
SciTegic.value.DoubleValue
2.599

@<SCITEGIC>MOL_PROPERTY
U+W
SciTegic.value.DoubleValue
-5.783

@<SCITEGIC>MOL_PROPERTY
Grad RMS
SciTegic.value.DoubleValue
0.000000

@<SCITEGIC>MOL_PROPERTY
U
SciTegic.value.DoubleValue
50.122

@<SCITEGIC>MOL_PROPERTY
W
SciTegic.value.DoubleValue
-55.906

@<SCITEGIC>MOL_PROPERTY
W(PB)
SciTegic.value.DoubleValue
-58.010

@<SCITEGIC>MOL_PROPERTY
W(SA)
SciTegic.value.DoubleValue
2.105

@<SCITEGIC>MOL_PROPERTY
Valence
SciTegic.value.DoubleValue
4.132

@<SCITEGIC>MOL_PROPERTY
Coulomb
SciTegic.value.DoubleValue
45.536

@<SCITEGIC>MOL_PROPERTY
VdW
SciTegic.value.DoubleValue
0.454

@<SCITEGIC>MOL_PROPERTY
VdW6
SciTegic.value.DoubleValue
-6.262

@<SCITEGIC>MOL_PROPERTY
VdW12
SciTegic.value.DoubleValue
6.715

@<SCITEGIC>MOL_PROPERTY
Bond
SciTegic.value.DoubleValue
0.182

@<SCITEGIC>MOL_PROPERTY
Angle
SciTegic.value.DoubleValue
1.157

@<SCITEGIC>MOL_PROPERTY
Pdih
SciTegic.value.DoubleValue
2.794

@<SCITEGIC>MOL_PROPERTY
Idih
SciTegic.value.DoubleValue
0.000

@<SCITEGIC>MOL_PROPERTY
Tether
SciTegic.value.DoubleValue
0.000

@<TRIPOS>MOLECULE
guest-2_confgen4.mol2 : confsearch ligand conformer 347
          23          22           1
SMALL
USER_CHARGES
 
@<TRIPOS>ATOM
       1    N1      18.323903   21.356048   23.082026 N.4        1 MOL1        -0.5940
       2    H1      17.327295   21.471004   22.872110 H          1 MOL1         0.3649
       3    H2      18.694874   22.288624   23.292847 H          1 MOL1         0.3649
       4    H3      18.390457   20.803687   23.942220 H          1 MOL1         0.3649
       5    C1      19.068126   20.698951   21.936342 C.3        1 MOL1         0.0207
       6    H4      20.124919   20.636912   22.208894 H          1 MOL1         0.0950
       7    H5      18.980204   21.352074   21.063877 H          1 MOL1         0.0950
       8    C2      18.539375   19.294799   21.580588 C.3        1 MOL1        -0.1415
       9    H6      17.487582   19.374039   21.275355 H          1 MOL1         0.0976
      10    H7      19.079116   18.925927   20.699096 H          1 MOL1         0.0976
      11    C3      18.658870   18.265124   22.734925 C.3        1 MOL1        -0.1375
      12    H8      18.297633   17.290560   22.378643 H          1 MOL1         0.0976
      13    H9      17.979945   18.553233   23.548735 H          1 MOL1         0.0976
      14    C4      20.087920   18.094434   23.312404 C.3        1 MOL1        -0.1375
      15    H10     20.429325   19.037828   23.758881 H          1 MOL1         0.0976
      16    H11     20.043922   17.368635   24.136187 H          1 MOL1         0.0976
      17    C5      21.121749   17.607884   22.269638 C.3        1 MOL1        -0.1350
      18    H12     21.234275   18.353475   21.471283 H          1 MOL1         0.0976
      19    H13     20.763108   16.683945   21.794848 H          1 MOL1         0.0976
      20    C6      22.501165   17.350957   22.912743 C.3        1 MOL1        -0.2365
      21    H14     23.222534   17.009189   22.159195 H          1 MOL1         0.0987
      22    H15     22.436763   16.579535   23.691173 H          1 MOL1         0.0987
      23    H16     22.899756   18.265892   23.370154 H          1 MOL1         0.0987
@<TRIPOS>BOND
    1     1     2    1
    2     1     3    1
    3     1     4    1
    4     1     5    1
    5     5     6    1
    6     5     7    1
    7     5     8    1
    8     8     9    1
    9     8    10    1
   10     8    11    1
   11    11    12    1
   12    11    13    1
   13    11    14    1
   14    14    15    1
   15    14    16    1
   16    14    17    1
   17    17    18    1
   18    17    19    1
   19    17    20    1
   20    20    21    1
   21    20    22    1
   22    20    23    1
@<TRIPOS>SUBSTRUCTURE
       1 MOL1            1 RESIDUE      1      MOL     
@<SCITEGIC>MOL_PROPERTY
VConf Rank
SciTegic.value.IntegerValue
347

@<SCITEGIC>MOL_PROPERTY
Conf_Id
SciTegic.value.IntegerValue
72

@<SCITEGIC>MOL_PROPERTY
Delta U+W
SciTegic.value.DoubleValue
1.051

@<SCITEGIC>MOL_PROPERTY
U+W
SciTegic.value.DoubleValue
-7.331

@<SCITEGIC>MOL_PROPERTY
Grad RMS
SciTegic.value.DoubleValue
0.000000

@<SCITEGIC>MOL_PROPERTY
U
SciTegic.value.DoubleValue
48.590

@<SCITEGIC>MOL_PROPERTY
W
SciTegic.value.DoubleValue
-55.922

@<SCITEGIC>MOL_PROPERTY
W(PB)
SciTegic.value.DoubleValue
-58.012

@<SCITEGIC>MOL_PROPERTY
W(SA)
SciTegic.value.DoubleValue
2.090

@<SCITEGIC>MOL_PROPERTY
Valence
SciTegic.value.DoubleValue
2.601

@<SCITEGIC>MOL_PROPERTY
Coulomb
SciTegic.value.DoubleValue
45.520

@<SCITEGIC>MOL_PROPERTY
VdW
SciTegic.value.DoubleValue
0.469

@<SCITEGIC>MOL_PROPERTY
VdW6
SciTegic.value.DoubleValue
-6.867

@<SCITEGIC>MOL_PROPERTY
VdW12
SciTegic.value.DoubleValue
7.336

@<SCITEGIC>MOL_PROPERTY
Bond
SciTegic.value.DoubleValue
0.205

@<SCITEGIC>MOL_PROPERTY
Angle
SciTegic.value.DoubleValue
0.962

@<SCITEGIC>MOL_PROPERTY
Pdih
SciTegic.value.DoubleValue
1.434

@<SCITEGIC>MOL_PROPERTY
Idih
SciTegic.value.DoubleValue
0.000

@<SCITEGIC>MOL_PROPERTY
Tether
SciTegic.value.DoubleValue
0.000

@<TRIPOS>MOLECULE
guest-2_confgen4.mol2 : confsearch ligand conformer 348
          23          22           1
SMALL
USER_CHARGES
 
@<TRIPOS>ATOM
       1    N1      18.528713   16.093780   22.895244 N.4        1 MOL1        -0.5940
       2    H1      17.600866   15.801442   23.220199 H          1 MOL1         0.3649
       3    H2      19.189567   15.367586   23.189689 H          1 MOL1         0.3649
       4    H3      18.503431   16.081072   21.870616 H          1 MOL1         0.3649
       5    C1      18.910261   17.457173   23.434891 C.3        1 MOL1         0.0207
       6    H4      18.889447   17.406480   24.526837 H          1 MOL1         0.0950
       7    H5      18.150367   18.172181   23.108920 H          1 MOL1         0.0950
       8    C2      20.299895   17.925761   22.964612 C.3        1 MOL1        -0.1415
       9    H6      21.050240   17.182282   23.264530 H          1 MOL1         0.0976
      10    H7      20.326032   17.964577   21.868145 H          1 MOL1         0.0976
      11    C3      20.697180   19.302350   23.553026 C.3        1 MOL1        -0.1375
      12    H8      21.702282   19.567571   23.198939 H          1 MOL1         0.0976
      13    H9      20.783024   19.210044   24.644549 H          1 MOL1         0.0976
      14    C4      19.711599   20.457855   23.230230 C.3        1 MOL1        -0.1375
      15    H10     18.750827   20.267485   23.727200 H          1 MOL1         0.0976
      16    H11     20.097387   21.383299   23.679551 H          1 MOL1         0.0976
      17    C5      19.455476   20.703995   21.721576 C.3        1 MOL1        -0.1350
      18    H12     18.738066   21.530061   21.618484 H          1 MOL1         0.0976
      19    H13     18.971146   19.827573   21.270549 H          1 MOL1         0.0976
      20    C6      20.736417   21.056453   20.931969 C.3        1 MOL1        -0.2365
      21    H14     21.245358   21.923407   21.372775 H          1 MOL1         0.0987
      22    H15     20.490790   21.304508   19.891306 H          1 MOL1         0.0987
      23    H16     21.441794   20.216410   20.913836 H          1 MOL1         0.0987
@<TRIPOS>BOND
    1     1     2    1
    2     1     3    1
    3     1     4    1
    4     1     5    1
    5     5     6    1
    6     5     7    1
    7     5     8    1
    8     8     9    1
    9     8    10    1
   10     8    11    1
   11    11    12    1
   12    11    13    1
   13    11    14    1
   14    14    15    1
   15    14    16    1
   16    14    17    1
   17    17    18    1
   18    17    19    1
   19    17    20    1
   20    20    21    1
   21    20    22    1
   22    20    23    1
@<TRIPOS>SUBSTRUCTURE
       1 MOL1            1 RESIDUE      1      MOL     
@<SCITEGIC>MOL_PROPERTY
VConf Rank
SciTegic.value.IntegerValue
348

@<SCITEGIC>MOL_PROPERTY
Conf_Id
SciTegic.value.IntegerValue
26

@<SCITEGIC>MOL_PROPERTY
Delta U+W
SciTegic.value.DoubleValue
1.076

@<SCITEGIC>MOL_PROPERTY
U+W
SciTegic.value.DoubleValue
-7.306

@<SCITEGIC>MOL_PROPERTY
Grad RMS
SciTegic.value.DoubleValue
0.000000

@<SCITEGIC>MOL_PROPERTY
U
SciTegic.value.DoubleValue
48.641

@<SCITEGIC>MOL_PROPERTY
W
SciTegic.value.DoubleValue
-55.947

@<SCITEGIC>MOL_PROPERTY
W(PB)
SciTegic.value.DoubleValue
-58.031

@<SCITEGIC>MOL_PROPERTY
W(SA)
SciTegic.value.DoubleValue
2.084

@<SCITEGIC>MOL_PROPERTY
Valence
SciTegic.value.DoubleValue
2.922

@<SCITEGIC>MOL_PROPERTY
Coulomb
SciTegic.value.DoubleValue
45.269

@<SCITEGIC>MOL_PROPERTY
VdW
SciTegic.value.DoubleValue
0.449

@<SCITEGIC>MOL_PROPERTY
VdW6
SciTegic.value.DoubleValue
-7.045

@<SCITEGIC>MOL_PROPERTY
VdW12
SciTegic.value.DoubleValue
7.494

@<SCITEGIC>MOL_PROPERTY
Bond
SciTegic.value.DoubleValue
0.220

@<SCITEGIC>MOL_PROPERTY
Angle
SciTegic.value.DoubleValue
1.205

@<SCITEGIC>MOL_PROPERTY
Pdih
SciTegic.value.DoubleValue
1.497

@<SCITEGIC>MOL_PROPERTY
Idih
SciTegic.value.DoubleValue
0.000

@<SCITEGIC>MOL_PROPERTY
Tether
SciTegic.value.DoubleValue
0.000

@<TRIPOS>MOLECULE
guest-2_confgen4.mol2 : confsearch ligand conformer 349
          23          22           1
SMALL
USER_CHARGES
 
@<TRIPOS>ATOM
       1    N1      17.971624   19.692173   20.180622 N.4        1 MOL1        -0.5940
       2    H1      18.426629   20.220567   19.429254 H          1 MOL1         0.3649
       3    H2      16.976156   19.938018   20.156878 H          1 MOL1         0.3649
       4    H3      18.039468   18.699337   19.934987 H          1 MOL1         0.3649
       5    C1      18.591385   19.984274   21.531994 C.3        1 MOL1         0.0207
       6    H4      18.040627   19.413902   22.284506 H          1 MOL1         0.0950
       7    H5      18.458658   21.049045   21.741747 H          1 MOL1         0.0950
       8    C2      20.087499   19.625473   21.600724 C.3        1 MOL1        -0.1415
       9    H6      20.223210   18.559552   21.377503 H          1 MOL1         0.0976
      10    H7      20.625170   20.175265   20.816908 H          1 MOL1         0.0976
      11    C3      20.720871   19.964123   22.973028 C.3        1 MOL1        -0.1375
      12    H8      20.682696   21.052021   23.122467 H          1 MOL1         0.0976
      13    H9      21.788088   19.706372   22.949282 H          1 MOL1         0.0976
      14    C4      20.047224   19.273670   24.189676 C.3        1 MOL1        -0.1375
      15    H10     20.583283   19.569943   25.101833 H          1 MOL1         0.0976
      16    H11     19.026219   19.660335   24.309429 H          1 MOL1         0.0976
      17    C5      19.992525   17.726174   24.122691 C.3        1 MOL1        -0.1350
      18    H12     19.371633   17.404306   23.275925 H          1 MOL1         0.0976
      19    H13     19.486677   17.354378   25.024676 H          1 MOL1         0.0976
      20    C6      21.387210   17.067162   24.027421 C.3        1 MOL1        -0.2365
      21    H14     21.889513   17.322764   23.086188 H          1 MOL1         0.0987
      22    H15     21.299706   15.973802   24.069223 H          1 MOL1         0.0987
      23    H16     22.030906   17.384607   24.857978 H          1 MOL1         0.0987
@<TRIPOS>BOND
    1     1     2    1
    2     1     3    1
    3     1     4    1
    4     1     5    1
    5     5     6    1
    6     5     7    1
    7     5     8    1
    8     8     9    1
    9     8    10    1
   10     8    11    1
   11    11    12    1
   12    11    13    1
   13    11    14    1
   14    14    15    1
   15    14    16    1
   16    14    17    1
   17    17    18    1
   18    17    19    1
   19    17    20    1
   20    20    21    1
   21    20    22    1
   22    20    23    1
@<TRIPOS>SUBSTRUCTURE
       1 MOL1            1 RESIDUE      1      MOL     
@<SCITEGIC>MOL_PROPERTY
VConf Rank
SciTegic.value.IntegerValue
349

@<SCITEGIC>MOL_PROPERTY
Conf_Id
SciTegic.value.IntegerValue
90

@<SCITEGIC>MOL_PROPERTY
Delta U+W
SciTegic.value.DoubleValue
1.131

@<SCITEGIC>MOL_PROPERTY
U+W
SciTegic.value.DoubleValue
-7.251

@<SCITEGIC>MOL_PROPERTY
Grad RMS
SciTegic.value.DoubleValue
0.000000

@<SCITEGIC>MOL_PROPERTY
U
SciTegic.value.DoubleValue
48.641

@<SCITEGIC>MOL_PROPERTY
W
SciTegic.value.DoubleValue
-55.892

@<SCITEGIC>MOL_PROPERTY
W(PB)
SciTegic.value.DoubleValue
-57.962

@<SCITEGIC>MOL_PROPERTY
W(SA)
SciTegic.value.DoubleValue
2.070

@<SCITEGIC>MOL_PROPERTY
Valence
SciTegic.value.DoubleValue
2.922

@<SCITEGIC>MOL_PROPERTY
Coulomb
SciTegic.value.DoubleValue
45.269

@<SCITEGIC>MOL_PROPERTY
VdW
SciTegic.value.DoubleValue
0.450

@<SCITEGIC>MOL_PROPERTY
VdW6
SciTegic.value.DoubleValue
-7.045

@<SCITEGIC>MOL_PROPERTY
VdW12
SciTegic.value.DoubleValue
7.495

@<SCITEGIC>MOL_PROPERTY
Bond
SciTegic.value.DoubleValue
0.220

@<SCITEGIC>MOL_PROPERTY
Angle
SciTegic.value.DoubleValue
1.205

@<SCITEGIC>MOL_PROPERTY
Pdih
SciTegic.value.DoubleValue
1.497

@<SCITEGIC>MOL_PROPERTY
Idih
SciTegic.value.DoubleValue
0.000

@<SCITEGIC>MOL_PROPERTY
Tether
SciTegic.value.DoubleValue
0.000

@<TRIPOS>MOLECULE
guest-2_confgen4.mol2 : confsearch ligand conformer 350
          23          22           1
SMALL
USER_CHARGES
 
@<TRIPOS>ATOM
       1    N1      20.879061   18.888707   25.005334 N.4        1 MOL1        -0.5940
       2    H1      20.550391   19.021269   25.967755 H          1 MOL1         0.3649
       3    H2      20.606823   19.722814   24.476396 H          1 MOL1         0.3649
       4    H3      21.903338   18.871088   25.038811 H          1 MOL1         0.3649
       5    C1      20.314328   17.625323   24.386197 C.3        1 MOL1         0.0207
       6    H4      19.223752   17.694797   24.409320 H          1 MOL1         0.0950
       7    H5      20.613604   16.783232   25.016146 H          1 MOL1         0.0950
       8    C2      20.790588   17.377347   22.940315 C.3        1 MOL1        -0.1415
       9    H6      21.882606   17.262160   22.936062 H          1 MOL1         0.0976
      10    H7      20.380843   16.419158   22.594156 H          1 MOL1         0.0976
      11    C3      20.389073   18.494504   21.944662 C.3        1 MOL1        -0.1375
      12    H8      20.783595   18.237027   20.952106 H          1 MOL1         0.0976
      13    H9      20.876488   19.434361   22.233106 H          1 MOL1         0.0976
      14    C4      18.855806   18.696149   21.845125 C.3        1 MOL1        -0.1375
      15    H10     18.379660   17.727424   21.639884 H          1 MOL1         0.0976
      16    H11     18.455383   19.040034   22.808108 H          1 MOL1         0.0976
      17    C5      18.438806   19.693341   20.737374 C.3        1 MOL1        -0.1350
      18    H12     17.342425   19.698007   20.661453 H          1 MOL1         0.0976
      19    H13     18.812460   19.345949   19.763988 H          1 MOL1         0.0976
      20    C6      18.926320   21.137051   20.996540 C.3        1 MOL1        -0.2365
      21    H14     18.587767   21.498531   21.976159 H          1 MOL1         0.0987
      22    H15     18.530446   21.818744   20.232659 H          1 MOL1         0.0987
      23    H16     20.020685   21.205386   20.963290 H          1 MOL1         0.0987
@<TRIPOS>BOND
    1     1     2    1
    2     1     3    1
    3     1     4    1
    4     1     5    1
    5     5     6    1
    6     5     7    1
    7     5     8    1
    8     8     9    1
    9     8    10    1
   10     8    11    1
   11    11    12    1
   12    11    13    1
   13    11    14    1
   14    14    15    1
   15    14    16    1
   16    14    17    1
   17    17    18    1
   18    17    19    1
   19    17    20    1
   20    20    21    1
   21    20    22    1
   22    20    23    1
@<TRIPOS>SUBSTRUCTURE
       1 MOL1            1 RESIDUE      1      MOL     
@<SCITEGIC>MOL_PROPERTY
VConf Rank
SciTegic.value.IntegerValue
350

@<SCITEGIC>MOL_PROPERTY
Conf_Id
SciTegic.value.IntegerValue
85

@<SCITEGIC>MOL_PROPERTY
Delta U+W
SciTegic.value.DoubleValue
1.193

@<SCITEGIC>MOL_PROPERTY
U+W
SciTegic.value.DoubleValue
-7.189

@<SCITEGIC>MOL_PROPERTY
Grad RMS
SciTegic.value.DoubleValue
0.000000

@<SCITEGIC>MOL_PROPERTY
U
SciTegic.value.DoubleValue
48.775

@<SCITEGIC>MOL_PROPERTY
W
SciTegic.value.DoubleValue
-55.965

@<SCITEGIC>MOL_PROPERTY
W(PB)
SciTegic.value.DoubleValue
-58.038

@<SCITEGIC>MOL_PROPERTY
W(SA)
SciTegic.value.DoubleValue
2.073

@<SCITEGIC>MOL_PROPERTY
Valence
SciTegic.value.DoubleValue
2.602

@<SCITEGIC>MOL_PROPERTY
Coulomb
SciTegic.value.DoubleValue
45.581

@<SCITEGIC>MOL_PROPERTY
VdW
SciTegic.value.DoubleValue
0.592

@<SCITEGIC>MOL_PROPERTY
VdW6
SciTegic.value.DoubleValue
-6.616

@<SCITEGIC>MOL_PROPERTY
VdW12
SciTegic.value.DoubleValue
7.208

@<SCITEGIC>MOL_PROPERTY
Bond
SciTegic.value.DoubleValue
0.196

@<SCITEGIC>MOL_PROPERTY
Angle
SciTegic.value.DoubleValue
0.832

@<SCITEGIC>MOL_PROPERTY
Pdih
SciTegic.value.DoubleValue
1.574

@<SCITEGIC>MOL_PROPERTY
Idih
SciTegic.value.DoubleValue
0.000

@<SCITEGIC>MOL_PROPERTY
Tether
SciTegic.value.DoubleValue
0.000

@<TRIPOS>MOLECULE
guest-2_confgen4.mol2 : confsearch ligand conformer 351
          23          22           1
SMALL
USER_CHARGES
 
@<TRIPOS>ATOM
       1    N1      18.829859   17.587276   23.850897 N.4        1 MOL1        -0.5940
       2    H1      18.551262   18.076991   22.994606 H          1 MOL1         0.3649
       3    H2      18.062667   17.685471   24.524750 H          1 MOL1         0.3649
       4    H3      18.901831   16.590201   23.623576 H          1 MOL1         0.3649
       5    C1      20.134118   18.133023   24.399288 C.3        1 MOL1         0.0207
       6    H4      20.363277   17.563435   25.304034 H          1 MOL1         0.0950
       7    H5      19.984265   19.177549   24.685014 H          1 MOL1         0.0950
       8    C2      21.321118   18.022405   23.420761 C.3        1 MOL1        -0.1415
       9    H6      22.245550   18.055393   24.012517 H          1 MOL1         0.0976
      10    H7      21.312041   17.036964   22.936306 H          1 MOL1         0.0976
      11    C3      21.403736   19.143681   22.350236 C.3        1 MOL1        -0.1375
      12    H8      22.317902   18.972185   21.765091 H          1 MOL1         0.0976
      13    H9      21.546197   20.118023   22.837916 H          1 MOL1         0.0976
      14    C4      20.208672   19.209214   21.364951 C.3        1 MOL1        -0.1375
      15    H10     20.588733   19.494633   20.374078 H          1 MOL1         0.0976
      16    H11     19.768379   18.211595   21.236020 H          1 MOL1         0.0976
      17    C5      19.134383   20.244834   21.777863 C.3        1 MOL1        -0.1350
      18    H12     19.568245   21.253767   21.733678 H          1 MOL1         0.0976
      19    H13     18.821249   20.096380   22.818145 H          1 MOL1         0.0976
      20    C6      17.898585   20.183822   20.855417 C.3        1 MOL1        -0.2365
      21    H14     18.176087   20.382561   19.811931 H          1 MOL1         0.0987
      22    H15     17.155005   20.934332   21.153753 H          1 MOL1         0.0987
      23    H16     17.417643   19.198103   20.898066 H          1 MOL1         0.0987
@<TRIPOS>BOND
    1     1     2    1
    2     1     3    1
    3     1     4    1
    4     1     5    1
    5     5     6    1
    6     5     7    1
    7     5     8    1
    8     8     9    1
    9     8    10    1
   10     8    11    1
   11    11    12    1
   12    11    13    1
   13    11    14    1
   14    14    15    1
   15    14    16    1
   16    14    17    1
   17    17    18    1
   18    17    19    1
   19    17    20    1
   20    20    21    1
   21    20    22    1
   22    20    23    1
@<TRIPOS>SUBSTRUCTURE
       1 MOL1            1 RESIDUE      1      MOL     
@<SCITEGIC>MOL_PROPERTY
VConf Rank
SciTegic.value.IntegerValue
351

@<SCITEGIC>MOL_PROPERTY
Conf_Id
SciTegic.value.IntegerValue
82

@<SCITEGIC>MOL_PROPERTY
Delta U+W
SciTegic.value.DoubleValue
5.994

@<SCITEGIC>MOL_PROPERTY
U+W
SciTegic.value.DoubleValue
-2.388

@<SCITEGIC>MOL_PROPERTY
Grad RMS
SciTegic.value.DoubleValue
0.000000

@<SCITEGIC>MOL_PROPERTY
U
SciTegic.value.DoubleValue
52.836

@<SCITEGIC>MOL_PROPERTY
W
SciTegic.value.DoubleValue
-55.224

@<SCITEGIC>MOL_PROPERTY
W(PB)
SciTegic.value.DoubleValue
-57.261

@<SCITEGIC>MOL_PROPERTY
W(SA)
SciTegic.value.DoubleValue
2.037

@<SCITEGIC>MOL_PROPERTY
Valence
SciTegic.value.DoubleValue
5.785

@<SCITEGIC>MOL_PROPERTY
Coulomb
SciTegic.value.DoubleValue
46.744

@<SCITEGIC>MOL_PROPERTY
VdW
SciTegic.value.DoubleValue
0.307

@<SCITEGIC>MOL_PROPERTY
VdW6
SciTegic.value.DoubleValue
-7.672

@<SCITEGIC>MOL_PROPERTY
VdW12
SciTegic.value.DoubleValue
7.979

@<SCITEGIC>MOL_PROPERTY
Bond
SciTegic.value.DoubleValue
0.217

@<SCITEGIC>MOL_PROPERTY
Angle
SciTegic.value.DoubleValue
1.470

@<SCITEGIC>MOL_PROPERTY
Pdih
SciTegic.value.DoubleValue
4.098

@<SCITEGIC>MOL_PROPERTY
Idih
SciTegic.value.DoubleValue
0.000

@<SCITEGIC>MOL_PROPERTY
Tether
SciTegic.value.DoubleValue
0.000

@<TRIPOS>MOLECULE
guest-2_confgen4.mol2 : confsearch ligand conformer 352
          23          22           1
SMALL
USER_CHARGES
 
@<TRIPOS>ATOM
       1    N1      20.750487   20.680863   21.768787 N.4        1 MOL1        -0.5940
       2    H1      20.143142   21.350986   21.286001 H          1 MOL1         0.3649
       3    H2      21.619566   21.175795   21.996922 H          1 MOL1         0.3649
       4    H3      20.294397   20.436979   22.653760 H          1 MOL1         0.3649
       5    C1      21.009541   19.448743   20.923550 C.3        1 MOL1         0.0207
       6    H4      21.711066   18.800363   21.455147 H          1 MOL1         0.0950
       7    H5      21.492430   19.788582   20.003313 H          1 MOL1         0.0950
       8    C2      19.736139   18.657630   20.561189 C.3        1 MOL1        -0.1415
       9    H6      18.938332   19.352819   20.267782 H          1 MOL1         0.0976
      10    H7      19.956993   18.061878   19.665566 H          1 MOL1         0.0976
      11    C3      19.223296   17.688430   21.660170 C.3        1 MOL1        -0.1375
      12    H8      19.976008   16.912392   21.856790 H          1 MOL1         0.0976
      13    H9      18.354090   17.156429   21.249123 H          1 MOL1         0.0976
      14    C4      18.790184   18.361049   22.988048 C.3        1 MOL1        -0.1375
      15    H10     18.434709   19.382344   22.797469 H          1 MOL1         0.0976
      16    H11     17.923597   17.816586   23.388454 H          1 MOL1         0.0976
      17    C5      19.899511   18.348086   24.068014 C.3        1 MOL1        -0.1350
      18    H12     20.840153   18.750380   23.673508 H          1 MOL1         0.0976
      19    H13     20.112232   17.308896   24.356054 H          1 MOL1         0.0976
      20    C6      19.484674   19.146659   25.321816 C.3        1 MOL1        -0.2365
      21    H14     19.295146   20.200116   25.078762 H          1 MOL1         0.0987
      22    H15     20.276351   19.113696   26.081645 H          1 MOL1         0.0987
      23    H16     18.572399   18.730885   25.769315 H          1 MOL1         0.0987
@<TRIPOS>BOND
    1     1     2    1
    2     1     3    1
    3     1     4    1
    4     1     5    1
    5     5     6    1
    6     5     7    1
    7     5     8    1
    8     8     9    1
    9     8    10    1
   10     8    11    1
   11    11    12    1
   12    11    13    1
   13    11    14    1
   14    14    15    1
   15    14    16    1
   16    14    17    1
   17    17    18    1
   18    17    19    1
   19    17    20    1
   20    20    21    1
   21    20    22    1
   22    20    23    1
@<TRIPOS>SUBSTRUCTURE
       1 MOL1            1 RESIDUE      1      MOL     
@<SCITEGIC>MOL_PROPERTY
VConf Rank
SciTegic.value.IntegerValue
352

@<SCITEGIC>MOL_PROPERTY
Conf_Id
SciTegic.value.IntegerValue
5

@<SCITEGIC>MOL_PROPERTY
Delta U+W
SciTegic.value.DoubleValue
6.087

@<SCITEGIC>MOL_PROPERTY
U+W
SciTegic.value.DoubleValue
-2.295

@<SCITEGIC>MOL_PROPERTY
Grad RMS
SciTegic.value.DoubleValue
0.000000

@<SCITEGIC>MOL_PROPERTY
U
SciTegic.value.DoubleValue
52.836

@<SCITEGIC>MOL_PROPERTY
W
SciTegic.value.DoubleValue
-55.131

@<SCITEGIC>MOL_PROPERTY
W(PB)
SciTegic.value.DoubleValue
-57.202

@<SCITEGIC>MOL_PROPERTY
W(SA)
SciTegic.value.DoubleValue
2.071

@<SCITEGIC>MOL_PROPERTY
Valence
SciTegic.value.DoubleValue
5.785

@<SCITEGIC>MOL_PROPERTY
Coulomb
SciTegic.value.DoubleValue
46.744

@<SCITEGIC>MOL_PROPERTY
VdW
SciTegic.value.DoubleValue
0.307

@<SCITEGIC>MOL_PROPERTY
VdW6
SciTegic.value.DoubleValue
-7.672

@<SCITEGIC>MOL_PROPERTY
VdW12
SciTegic.value.DoubleValue
7.980

@<SCITEGIC>MOL_PROPERTY
Bond
SciTegic.value.DoubleValue
0.217

@<SCITEGIC>MOL_PROPERTY
Angle
SciTegic.value.DoubleValue
1.470

@<SCITEGIC>MOL_PROPERTY
Pdih
SciTegic.value.DoubleValue
4.098

@<SCITEGIC>MOL_PROPERTY
Idih
SciTegic.value.DoubleValue
0.000

@<SCITEGIC>MOL_PROPERTY
Tether
SciTegic.value.DoubleValue
0.000

@<TRIPOS>MOLECULE
guest-2_confgen4.mol2 : confsearch ligand conformer 353
          23          22           1
SMALL
USER_CHARGES
 
@<TRIPOS>ATOM
       1    N1      19.275318   15.502783   21.112760 N.4        1 MOL1        -0.5940
       2    H1      19.311968   14.994283   22.002124 H          1 MOL1         0.3649
       3    H2      19.684465   14.887891   20.401001 H          1 MOL1         0.3649
       4    H3      18.285571   15.619017   20.872399 H          1 MOL1         0.3649
       5    C1      19.998306   16.832092   21.191009 C.3        1 MOL1         0.0207
       6    H4      19.945273   17.303604   20.205941 H          1 MOL1         0.0950
       7    H5      21.048527   16.632082   21.420198 H          1 MOL1         0.0950
       8    C2      19.407988   17.778939   22.251001 C.3        1 MOL1        -0.1415
       9    H6      18.349113   17.963973   22.025950 H          1 MOL1         0.0976
      10    H7      19.448380   17.294765   23.235908 H          1 MOL1         0.0976
      11    C3      20.171969   19.120659   22.299008 C.3        1 MOL1        -0.1375
      12    H8      20.133751   19.599340   21.310470 H          1 MOL1         0.0976
      13    H9      21.231823   18.930837   22.519186 H          1 MOL1         0.0976
      14    C4      19.587213   20.079769   23.360690 C.3        1 MOL1        -0.1375
      15    H10     18.527513   20.269785   23.140593 H          1 MOL1         0.0976
      16    H11     19.625370   19.601295   24.349184 H          1 MOL1         0.0976
      17    C5      20.351567   21.421498   23.408503 C.3        1 MOL1        -0.1350
      18    H12     20.314221   21.905337   22.422359 H          1 MOL1         0.0976
      19    H13     21.411971   21.236905   23.630855 H          1 MOL1         0.0976
      20    C6      19.764840   22.376540   24.469706 C.3        1 MOL1        -0.2365
      21    H14     20.320303   23.323189   24.488728 H          1 MOL1         0.0987
      22    H15     19.819608   21.933705   25.472765 H          1 MOL1         0.0987
      23    H16     18.713271   22.607337   24.254843 H          1 MOL1         0.0987
@<TRIPOS>BOND
    1     1     2    1
    2     1     3    1
    3     1     4    1
    4     1     5    1
    5     5     6    1
    6     5     7    1
    7     5     8    1
    8     8     9    1
    9     8    10    1
   10     8    11    1
   11    11    12    1
   12    11    13    1
   13    11    14    1
   14    14    15    1
   15    14    16    1
   16    14    17    1
   17    17    18    1
   18    17    19    1
   19    17    20    1
   20    20    21    1
   21    20    22    1
   22    20    23    1
@<TRIPOS>SUBSTRUCTURE
       1 MOL1            1 RESIDUE      1      MOL     
@<SCITEGIC>MOL_PROPERTY
VConf Rank
SciTegic.value.IntegerValue
353

@<SCITEGIC>MOL_PROPERTY
Conf_Id
SciTegic.value.IntegerValue
40

@<SCITEGIC>MOL_PROPERTY
Delta U+W
SciTegic.value.DoubleValue
0.000

@<SCITEGIC>MOL_PROPERTY
U+W
SciTegic.value.DoubleValue
-8.382

@<SCITEGIC>MOL_PROPERTY
Grad RMS
SciTegic.value.DoubleValue
0.000000

@<SCITEGIC>MOL_PROPERTY
U
SciTegic.value.DoubleValue
46.604

@<SCITEGIC>MOL_PROPERTY
W
SciTegic.value.DoubleValue
-54.986

@<SCITEGIC>MOL_PROPERTY
W(PB)
SciTegic.value.DoubleValue
-57.162

@<SCITEGIC>MOL_PROPERTY
W(SA)
SciTegic.value.DoubleValue
2.176

@<SCITEGIC>MOL_PROPERTY
Valence
SciTegic.value.DoubleValue
1.727

@<SCITEGIC>MOL_PROPERTY
Coulomb
SciTegic.value.DoubleValue
44.434

@<SCITEGIC>MOL_PROPERTY
VdW
SciTegic.value.DoubleValue
0.443

@<SCITEGIC>MOL_PROPERTY
VdW6
SciTegic.value.DoubleValue
-4.623

@<SCITEGIC>MOL_PROPERTY
VdW12
SciTegic.value.DoubleValue
5.066

@<SCITEGIC>MOL_PROPERTY
Bond
SciTegic.value.DoubleValue
0.112

@<SCITEGIC>MOL_PROPERTY
Angle
SciTegic.value.DoubleValue
0.386

@<SCITEGIC>MOL_PROPERTY
Pdih
SciTegic.value.DoubleValue
1.228

@<SCITEGIC>MOL_PROPERTY
Idih
SciTegic.value.DoubleValue
0.000

@<SCITEGIC>MOL_PROPERTY
Tether
SciTegic.value.DoubleValue
0.000

@<TRIPOS>MOLECULE
guest-2_confgen4.mol2 : confsearch ligand conformer 354
          23          22           1
SMALL
USER_CHARGES
 
@<TRIPOS>ATOM
       1    N1      21.707100   21.579138   21.043883 N.4        1 MOL1        -0.5940
       2    H1      22.035717   21.264822   20.125157 H          1 MOL1         0.3649
       3    H2      22.508456   21.535899   21.681686 H          1 MOL1         0.3649
       4    H3      21.455785   22.568892   20.947663 H          1 MOL1         0.3649
       5    C1      20.542165   20.748319   21.542328 C.3        1 MOL1         0.0207
       6    H4      19.717986   20.862980   20.833109 H          1 MOL1         0.0950
       7    H5      20.227019   21.157645   22.505476 H          1 MOL1         0.0950
       8    C2      20.888512   19.255254   21.697033 C.3        1 MOL1        -0.1415
       9    H6      21.248404   18.870260   20.733599 H          1 MOL1         0.0976
      10    H7      21.715507   19.139383   22.410221 H          1 MOL1         0.0976
      11    C3      19.681717   18.403507   22.157242 C.3        1 MOL1        -0.1375
      12    H8      19.977967   17.346828   22.132202 H          1 MOL1         0.0976
      13    H9      18.859466   18.513841   21.436754 H          1 MOL1         0.0976
      14    C4      19.185042   18.770614   23.578903 C.3        1 MOL1        -0.1375
      15    H10     20.001946   18.640101   24.301991 H          1 MOL1         0.0976
      16    H11     18.912237   19.833692   23.609669 H          1 MOL1         0.0976
      17    C5      17.956673   17.945803   24.034230 C.3        1 MOL1        -0.1350
      18    H12     17.132477   18.080895   23.319913 H          1 MOL1         0.0976
      19    H13     17.600023   18.346382   24.993506 H          1 MOL1         0.0976
      20    C6      18.254691   16.438798   24.206027 C.3        1 MOL1        -0.2365
      21    H14     18.494377   15.962417   23.247451 H          1 MOL1         0.0987
      22    H15     17.381315   15.919894   24.621839 H          1 MOL1         0.0987
      23    H16     19.097415   16.278309   24.890914 H          1 MOL1         0.0987
@<TRIPOS>BOND
    1     1     2    1
    2     1     3    1
    3     1     4    1
    4     1     5    1
    5     5     6    1
    6     5     7    1
    7     5     8    1
    8     8     9    1
    9     8    10    1
   10     8    11    1
   11    11    12    1
   12    11    13    1
   13    11    14    1
   14    14    15    1
   15    14    16    1
   16    14    17    1
   17    17    18    1
   18    17    19    1
   19    17    20    1
   20    20    21    1
   21    20    22    1
   22    20    23    1
@<TRIPOS>SUBSTRUCTURE
       1 MOL1            1 RESIDUE      1      MOL     
@<SCITEGIC>MOL_PROPERTY
VConf Rank
SciTegic.value.IntegerValue
354

@<SCITEGIC>MOL_PROPERTY
Conf_Id
SciTegic.value.IntegerValue
65

@<SCITEGIC>MOL_PROPERTY
Delta U+W
SciTegic.value.DoubleValue
1.004

@<SCITEGIC>MOL_PROPERTY
U+W
SciTegic.value.DoubleValue
-7.378

@<SCITEGIC>MOL_PROPERTY
Grad RMS
SciTegic.value.DoubleValue
0.000000

@<SCITEGIC>MOL_PROPERTY
U
SciTegic.value.DoubleValue
48.047

@<SCITEGIC>MOL_PROPERTY
W
SciTegic.value.DoubleValue
-55.425

@<SCITEGIC>MOL_PROPERTY
W(PB)
SciTegic.value.DoubleValue
-57.542

@<SCITEGIC>MOL_PROPERTY
W(SA)
SciTegic.value.DoubleValue
2.116

@<SCITEGIC>MOL_PROPERTY
Valence
SciTegic.value.DoubleValue
2.583

@<SCITEGIC>MOL_PROPERTY
Coulomb
SciTegic.value.DoubleValue
44.791

@<SCITEGIC>MOL_PROPERTY
VdW
SciTegic.value.DoubleValue
0.673

@<SCITEGIC>MOL_PROPERTY
VdW6
SciTegic.value.DoubleValue
-5.788

@<SCITEGIC>MOL_PROPERTY
VdW12
SciTegic.value.DoubleValue
6.462

@<SCITEGIC>MOL_PROPERTY
Bond
SciTegic.value.DoubleValue
0.177

@<SCITEGIC>MOL_PROPERTY
Angle
SciTegic.value.DoubleValue
0.787

@<SCITEGIC>MOL_PROPERTY
Pdih
SciTegic.value.DoubleValue
1.619

@<SCITEGIC>MOL_PROPERTY
Idih
SciTegic.value.DoubleValue
0.000

@<SCITEGIC>MOL_PROPERTY
Tether
SciTegic.value.DoubleValue
0.000

@<TRIPOS>MOLECULE
guest-2_confgen4.mol2 : confsearch ligand conformer 355
          23          22           1
SMALL
USER_CHARGES
 
@<TRIPOS>ATOM
       1    N1      17.682409   18.357136   19.784133 N.4        1 MOL1        -0.5940
       2    H1      17.700692   19.149417   19.133906 H          1 MOL1         0.3649
       3    H2      16.718254   18.007624   19.800665 H          1 MOL1         0.3649
       4    H3      18.260643   17.616866   19.373669 H          1 MOL1         0.3649
       5    C1      18.163007   18.749061   21.166593 C.3        1 MOL1         0.0207
       6    H4      18.086953   17.868485   21.809493 H          1 MOL1         0.0950
       7    H5      17.487934   19.517224   21.553390 H          1 MOL1         0.0950
       8    C2      19.609514   19.278859   21.174747 C.3        1 MOL1        -0.1415
       9    H6      20.288192   18.507255   20.787435 H          1 MOL1         0.0976
      10    H7      19.681002   20.133178   20.488471 H          1 MOL1         0.0976
      11    C3      20.077550   19.725184   22.580218 C.3        1 MOL1        -0.1375
      12    H8      19.402448   20.504077   22.960920 H          1 MOL1         0.0976
      13    H9      21.066267   20.191546   22.480667 H          1 MOL1         0.0976
      14    C4      20.153893   18.556401   23.595448 C.3        1 MOL1        -0.1375
      15    H10     19.170473   18.074830   23.675948 H          1 MOL1         0.0976
      16    H11     20.845124   17.787403   23.223882 H          1 MOL1         0.0976
      17    C5      20.589508   18.999652   25.013294 C.3        1 MOL1        -0.1350
      18    H12     20.504231   18.139716   25.692344 H          1 MOL1         0.0976
      19    H13     19.895261   19.761575   25.394470 H          1 MOL1         0.0976
      20    C6      22.037274   19.537882   25.073869 C.3        1 MOL1        -0.2365
      21    H14     22.144745   20.472791   24.510264 H          1 MOL1         0.0987
      22    H15     22.747922   18.806677   24.667262 H          1 MOL1         0.0987
      23    H16     22.326594   19.744815   26.112338 H          1 MOL1         0.0987
@<TRIPOS>BOND
    1     1     2    1
    2     1     3    1
    3     1     4    1
    4     1     5    1
    5     5     6    1
    6     5     7    1
    7     5     8    1
    8     8     9    1
    9     8    10    1
   10     8    11    1
   11    11    12    1
   12    11    13    1
   13    11    14    1
   14    14    15    1
   15    14    16    1
   16    14    17    1
   17    17    18    1
   18    17    19    1
   19    17    20    1
   20    20    21    1
   21    20    22    1
   22    20    23    1
@<TRIPOS>SUBSTRUCTURE
       1 MOL1            1 RESIDUE      1      MOL     
@<SCITEGIC>MOL_PROPERTY
VConf Rank
SciTegic.value.IntegerValue
355

@<SCITEGIC>MOL_PROPERTY
Conf_Id
SciTegic.value.IntegerValue
92

@<SCITEGIC>MOL_PROPERTY
Delta U+W
SciTegic.value.DoubleValue
0.973

@<SCITEGIC>MOL_PROPERTY
U+W
SciTegic.value.DoubleValue
-7.409

@<SCITEGIC>MOL_PROPERTY
Grad RMS
SciTegic.value.DoubleValue
0.000000

@<SCITEGIC>MOL_PROPERTY
U
SciTegic.value.DoubleValue
48.047

@<SCITEGIC>MOL_PROPERTY
W
SciTegic.value.DoubleValue
-55.456

@<SCITEGIC>MOL_PROPERTY
W(PB)
SciTegic.value.DoubleValue
-57.595

@<SCITEGIC>MOL_PROPERTY
W(SA)
SciTegic.value.DoubleValue
2.138

@<SCITEGIC>MOL_PROPERTY
Valence
SciTegic.value.DoubleValue
2.583

@<SCITEGIC>MOL_PROPERTY
Coulomb
SciTegic.value.DoubleValue
44.791

@<SCITEGIC>MOL_PROPERTY
VdW
SciTegic.value.DoubleValue
0.674

@<SCITEGIC>MOL_PROPERTY
VdW6
SciTegic.value.DoubleValue
-5.789

@<SCITEGIC>MOL_PROPERTY
VdW12
SciTegic.value.DoubleValue
6.462

@<SCITEGIC>MOL_PROPERTY
Bond
SciTegic.value.DoubleValue
0.177

@<SCITEGIC>MOL_PROPERTY
Angle
SciTegic.value.DoubleValue
0.787

@<SCITEGIC>MOL_PROPERTY
Pdih
SciTegic.value.DoubleValue
1.619

@<SCITEGIC>MOL_PROPERTY
Idih
SciTegic.value.DoubleValue
0.000

@<SCITEGIC>MOL_PROPERTY
Tether
SciTegic.value.DoubleValue
0.000

@<TRIPOS>MOLECULE
guest-2_confgen4.mol2 : confsearch ligand conformer 356
          23          22           1
SMALL
USER_CHARGES
 
@<TRIPOS>ATOM
       1    N1      19.908259   16.017631   20.666444 N.4        1 MOL1        -0.5940
       2    H1      19.057207   15.520156   20.383138 H          1 MOL1         0.3649
       3    H2      20.579089   15.307144   20.976361 H          1 MOL1         0.3649
       4    H3      20.295809   16.449955   19.821613 H          1 MOL1         0.3649
       5    C1      19.628521   17.041122   21.748104 C.3        1 MOL1         0.0207
       6    H4      19.192762   16.517791   22.603474 H          1 MOL1         0.0950
       7    H5      18.886878   17.744233   21.360424 H          1 MOL1         0.0950
       8    C2      20.888574   17.805834   22.195695 C.3        1 MOL1        -0.1415
       9    H6      21.641749   17.085096   22.540965 H          1 MOL1         0.0976
      10    H7      21.326665   18.330767   21.336325 H          1 MOL1         0.0976
      11    C3      20.602988   18.816236   23.331724 C.3        1 MOL1        -0.1375
      12    H8      21.555515   19.253604   23.661652 H          1 MOL1         0.0976
      13    H9      20.188612   18.284328   24.199489 H          1 MOL1         0.0976
      14    C4      19.641447   19.952433   22.907511 C.3        1 MOL1        -0.1375
      15    H10     20.042591   20.460751   22.019753 H          1 MOL1         0.0976
      16    H11     18.667613   19.533135   22.621340 H          1 MOL1         0.0976
      17    C5      19.435663   20.982665   24.040227 C.3        1 MOL1        -0.1350
      18    H12     20.403717   21.415449   24.329243 H          1 MOL1         0.0976
      19    H13     19.035002   20.479240   24.931301 H          1 MOL1         0.0976
      20    C6      18.475511   22.114560   23.616570 C.3        1 MOL1        -0.2365
      21    H14     18.866210   22.658803   22.746868 H          1 MOL1         0.0987
      22    H15     18.342395   22.835906   24.433261 H          1 MOL1         0.0987
      23    H16     17.486621   21.716191   23.354616 H          1 MOL1         0.0987
@<TRIPOS>BOND
    1     1     2    1
    2     1     3    1
    3     1     4    1
    4     1     5    1
    5     5     6    1
    6     5     7    1
    7     5     8    1
    8     8     9    1
    9     8    10    1
   10     8    11    1
   11    11    12    1
   12    11    13    1
   13    11    14    1
   14    14    15    1
   15    14    16    1
   16    14    17    1
   17    17    18    1
   18    17    19    1
   19    17    20    1
   20    20    21    1
   21    20    22    1
   22    20    23    1
@<TRIPOS>SUBSTRUCTURE
       1 MOL1            1 RESIDUE      1      MOL     
@<SCITEGIC>MOL_PROPERTY
VConf Rank
SciTegic.value.IntegerValue
356

@<SCITEGIC>MOL_PROPERTY
Conf_Id
SciTegic.value.IntegerValue
42

@<SCITEGIC>MOL_PROPERTY
Delta U+W
SciTegic.value.DoubleValue
0.365

@<SCITEGIC>MOL_PROPERTY
U+W
SciTegic.value.DoubleValue
-8.017

@<SCITEGIC>MOL_PROPERTY
Grad RMS
SciTegic.value.DoubleValue
0.000000

@<SCITEGIC>MOL_PROPERTY
U
SciTegic.value.DoubleValue
47.375

@<SCITEGIC>MOL_PROPERTY
W
SciTegic.value.DoubleValue
-55.392

@<SCITEGIC>MOL_PROPERTY
W(PB)
SciTegic.value.DoubleValue
-57.543

@<SCITEGIC>MOL_PROPERTY
W(SA)
SciTegic.value.DoubleValue
2.152

@<SCITEGIC>MOL_PROPERTY
Valence
SciTegic.value.DoubleValue
2.032

@<SCITEGIC>MOL_PROPERTY
Coulomb
SciTegic.value.DoubleValue
44.843

@<SCITEGIC>MOL_PROPERTY
VdW
SciTegic.value.DoubleValue
0.499

@<SCITEGIC>MOL_PROPERTY
VdW6
SciTegic.value.DoubleValue
-5.218

@<SCITEGIC>MOL_PROPERTY
VdW12
SciTegic.value.DoubleValue
5.717

@<SCITEGIC>MOL_PROPERTY
Bond
SciTegic.value.DoubleValue
0.135

@<SCITEGIC>MOL_PROPERTY
Angle
SciTegic.value.DoubleValue
0.514

@<SCITEGIC>MOL_PROPERTY
Pdih
SciTegic.value.DoubleValue
1.383

@<SCITEGIC>MOL_PROPERTY
Idih
SciTegic.value.DoubleValue
0.000

@<SCITEGIC>MOL_PROPERTY
Tether
SciTegic.value.DoubleValue
0.000

@<TRIPOS>MOLECULE
guest-2_confgen4.mol2 : confsearch ligand conformer 357
          23          22           1
SMALL
USER_CHARGES
 
@<TRIPOS>ATOM
       1    N1      19.941318   18.081717   19.580937 N.4        1 MOL1        -0.5940
       2    H1      18.939988   18.225178   19.415434 H          1 MOL1         0.3649
       3    H2      20.291102   17.500763   18.811461 H          1 MOL1         0.3649
       4    H3      20.396271   18.995628   19.496172 H          1 MOL1         0.3649
       5    C1      20.203901   17.444105   20.931523 C.3        1 MOL1         0.0207
       6    H4      21.282445   17.297346   21.034605 H          1 MOL1         0.0950
       7    H5      19.725286   16.460998   20.930851 H          1 MOL1         0.0950
       8    C2      19.675757   18.266839   22.122911 C.3        1 MOL1        -0.1415
       9    H6      18.597554   18.436456   22.003085 H          1 MOL1         0.0976
      10    H7      19.806429   17.664424   23.030181 H          1 MOL1         0.0976
      11    C3      20.413335   19.617536   22.291444 C.3        1 MOL1        -0.1375
      12    H8      20.371519   20.176832   21.347637 H          1 MOL1         0.0976
      13    H9      21.477874   19.428676   22.487648 H          1 MOL1         0.0976
      14    C4      19.837358   20.525472   23.409013 C.3        1 MOL1        -0.1375
      15    H10     20.410536   21.462960   23.400553 H          1 MOL1         0.0976
      16    H11     18.803537   20.809866   23.169101 H          1 MOL1         0.0976
      17    C5      19.911591   19.928519   24.838200 C.3        1 MOL1        -0.1350
      18    H12     20.116860   20.742699   25.547388 H          1 MOL1         0.0976
      19    H13     20.761131   19.236279   24.919947 H          1 MOL1         0.0976
      20    C6      18.604026   19.230740   25.280512 C.3        1 MOL1        -0.2365
      21    H14     17.762712   19.935873   25.274430 H          1 MOL1         0.0987
      22    H15     18.703479   18.840812   26.301776 H          1 MOL1         0.0987
      23    H16     18.343250   18.390100   24.628254 H          1 MOL1         0.0987
@<TRIPOS>BOND
    1     1     2    1
    2     1     3    1
    3     1     4    1
    4     1     5    1
    5     5     6    1
    6     5     7    1
    7     5     8    1
    8     8     9    1
    9     8    10    1
   10     8    11    1
   11    11    12    1
   12    11    13    1
   13    11    14    1
   14    14    15    1
   15    14    16    1
   16    14    17    1
   17    17    18    1
   18    17    19    1
   19    17    20    1
   20    20    21    1
   21    20    22    1
   22    20    23    1
@<TRIPOS>SUBSTRUCTURE
       1 MOL1            1 RESIDUE      1      MOL     
@<SCITEGIC>MOL_PROPERTY
VConf Rank
SciTegic.value.IntegerValue
357

@<SCITEGIC>MOL_PROPERTY
Conf_Id
SciTegic.value.IntegerValue
3

@<SCITEGIC>MOL_PROPERTY
Delta U+W
SciTegic.value.DoubleValue
3.283

@<SCITEGIC>MOL_PROPERTY
U+W
SciTegic.value.DoubleValue
-5.099

@<SCITEGIC>MOL_PROPERTY
Grad RMS
SciTegic.value.DoubleValue
0.000000

@<SCITEGIC>MOL_PROPERTY
U
SciTegic.value.DoubleValue
50.701

@<SCITEGIC>MOL_PROPERTY
W
SciTegic.value.DoubleValue
-55.800

@<SCITEGIC>MOL_PROPERTY
W(PB)
SciTegic.value.DoubleValue
-57.867

@<SCITEGIC>MOL_PROPERTY
W(SA)
SciTegic.value.DoubleValue
2.067

@<SCITEGIC>MOL_PROPERTY
Valence
SciTegic.value.DoubleValue
4.880

@<SCITEGIC>MOL_PROPERTY
Coulomb
SciTegic.value.DoubleValue
45.095

@<SCITEGIC>MOL_PROPERTY
VdW
SciTegic.value.DoubleValue
0.726

@<SCITEGIC>MOL_PROPERTY
VdW6
SciTegic.value.DoubleValue
-6.620

@<SCITEGIC>MOL_PROPERTY
VdW12
SciTegic.value.DoubleValue
7.346

@<SCITEGIC>MOL_PROPERTY
Bond
SciTegic.value.DoubleValue
0.222

@<SCITEGIC>MOL_PROPERTY
Angle
SciTegic.value.DoubleValue
1.260

@<SCITEGIC>MOL_PROPERTY
Pdih
SciTegic.value.DoubleValue
3.398

@<SCITEGIC>MOL_PROPERTY
Idih
SciTegic.value.DoubleValue
0.000

@<SCITEGIC>MOL_PROPERTY
Tether
SciTegic.value.DoubleValue
0.000

@<TRIPOS>MOLECULE
guest-2_confgen4.mol2 : confsearch ligand conformer 358
          23          22           1
SMALL
USER_CHARGES
 
@<TRIPOS>ATOM
       1    N1      20.583983   16.795792   20.941229 N.4        1 MOL1        -0.5940
       2    H1      21.080056   16.065918   21.462524 H          1 MOL1         0.3649
       3    H2      20.484064   16.459791   19.977406 H          1 MOL1         0.3649
       4    H3      19.640905   16.862652   21.335860 H          1 MOL1         0.3649
       5    C1      21.311435   18.124471   21.002206 C.3        1 MOL1         0.0207
       6    H4      20.749508   18.846578   20.404469 H          1 MOL1         0.0950
       7    H5      22.291031   17.989015   20.535761 H          1 MOL1         0.0950
       8    C2      21.498117   18.664058   22.435130 C.3        1 MOL1        -0.1415
       9    H6      22.107567   17.953003   23.008520 H          1 MOL1         0.0976
      10    H7      22.078475   19.595098   22.388144 H          1 MOL1         0.0976
      11    C3      20.171902   18.927047   23.192519 C.3        1 MOL1        -0.1375
      12    H8      20.421150   19.265992   24.206357 H          1 MOL1         0.0976
      13    H9      19.616892   17.987185   23.312401 H          1 MOL1         0.0976
      14    C4      19.272797   19.982612   22.499829 C.3        1 MOL1        -0.1375
      15    H10     19.820126   20.930625   22.405640 H          1 MOL1         0.0976
      16    H11     19.042867   19.655930   21.477203 H          1 MOL1         0.0976
      17    C5      17.934284   20.230724   23.236899 C.3        1 MOL1        -0.1350
      18    H12     17.377219   19.287466   23.324466 H          1 MOL1         0.0976
      19    H13     17.313215   20.897902   22.622887 H          1 MOL1         0.0976
      20    C6      18.108600   20.863858   24.636220 C.3        1 MOL1        -0.2365
      21    H14     18.691731   21.792187   24.579903 H          1 MOL1         0.0987
      22    H15     18.615144   20.180435   25.328746 H          1 MOL1         0.0987
      23    H16     17.130892   21.108027   25.071425 H          1 MOL1         0.0987
@<TRIPOS>BOND
    1     1     2    1
    2     1     3    1
    3     1     4    1
    4     1     5    1
    5     5     6    1
    6     5     7    1
    7     5     8    1
    8     8     9    1
    9     8    10    1
   10     8    11    1
   11    11    12    1
   12    11    13    1
   13    11    14    1
   14    14    15    1
   15    14    16    1
   16    14    17    1
   17    17    18    1
   18    17    19    1
   19    17    20    1
   20    20    21    1
   21    20    22    1
   22    20    23    1
@<TRIPOS>SUBSTRUCTURE
       1 MOL1            1 RESIDUE      1      MOL     
@<SCITEGIC>MOL_PROPERTY
VConf Rank
SciTegic.value.IntegerValue
358

@<SCITEGIC>MOL_PROPERTY
Conf_Id
SciTegic.value.IntegerValue
83

@<SCITEGIC>MOL_PROPERTY
Delta U+W
SciTegic.value.DoubleValue
1.229

@<SCITEGIC>MOL_PROPERTY
U+W
SciTegic.value.DoubleValue
-7.154

@<SCITEGIC>MOL_PROPERTY
Grad RMS
SciTegic.value.DoubleValue
0.000000

@<SCITEGIC>MOL_PROPERTY
U
SciTegic.value.DoubleValue
48.727

@<SCITEGIC>MOL_PROPERTY
W
SciTegic.value.DoubleValue
-55.880

@<SCITEGIC>MOL_PROPERTY
W(PB)
SciTegic.value.DoubleValue
-57.960

@<SCITEGIC>MOL_PROPERTY
W(SA)
SciTegic.value.DoubleValue
2.080

@<SCITEGIC>MOL_PROPERTY
Valence
SciTegic.value.DoubleValue
2.671

@<SCITEGIC>MOL_PROPERTY
Coulomb
SciTegic.value.DoubleValue
45.371

@<SCITEGIC>MOL_PROPERTY
VdW
SciTegic.value.DoubleValue
0.684

@<SCITEGIC>MOL_PROPERTY
VdW6
SciTegic.value.DoubleValue
-6.511

@<SCITEGIC>MOL_PROPERTY
VdW12
SciTegic.value.DoubleValue
7.195

@<SCITEGIC>MOL_PROPERTY
Bond
SciTegic.value.DoubleValue
0.203

@<SCITEGIC>MOL_PROPERTY
Angle
SciTegic.value.DoubleValue
0.915

@<SCITEGIC>MOL_PROPERTY
Pdih
SciTegic.value.DoubleValue
1.554

@<SCITEGIC>MOL_PROPERTY
Idih
SciTegic.value.DoubleValue
0.000

@<SCITEGIC>MOL_PROPERTY
Tether
SciTegic.value.DoubleValue
0.000

@<TRIPOS>MOLECULE
guest-2_confgen4.mol2 : confsearch ligand conformer 359
          23          22           1
SMALL
USER_CHARGES
 
@<TRIPOS>ATOM
       1    N1      20.117387   16.679877   20.913613 N.4        1 MOL1        -0.5940
       2    H1      19.710049   15.825320   21.306500 H          1 MOL1         0.3649
       3    H2      20.841234   16.998169   21.565025 H          1 MOL1         0.3649
       4    H3      20.591004   16.413233   20.043888 H          1 MOL1         0.3649
       5    C1      19.067296   17.747808   20.678821 C.3        1 MOL1         0.0207
       6    H4      18.350658   17.355503   19.952148 H          1 MOL1         0.0950
       7    H5      19.559857   18.615626   20.232990 H          1 MOL1         0.0950
       8    C2      18.317273   18.171934   21.958220 C.3        1 MOL1        -0.1415
       9    H6      17.544052   18.903083   21.687276 H          1 MOL1         0.0976
      10    H7      17.785441   17.302081   22.366036 H          1 MOL1         0.0976
      11    C3      19.227671   18.775594   23.057500 C.3        1 MOL1        -0.1375
      12    H8      19.958228   18.026730   23.391024 H          1 MOL1         0.0976
      13    H9      18.601883   19.001725   23.930500 H          1 MOL1         0.0976
      14    C4      19.964563   20.060705   22.601528 C.3        1 MOL1        -0.1375
      15    H10     20.571909   19.841172   21.713671 H          1 MOL1         0.0976
      16    H11     19.231050   20.818852   22.294374 H          1 MOL1         0.0976
      17    C5      20.896500   20.654029   23.685919 C.3        1 MOL1        -0.1350
      18    H12     21.463462   21.486076   23.245336 H          1 MOL1         0.0976
      19    H13     21.639488   19.903319   23.989448 H          1 MOL1         0.0976
      20    C6      20.142040   21.172568   24.931411 C.3        1 MOL1        -0.2365
      21    H14     19.370099   21.900852   24.650844 H          1 MOL1         0.0987
      22    H15     20.836383   21.669137   25.621514 H          1 MOL1         0.0987
      23    H16     19.660412   20.354921   25.481620 H          1 MOL1         0.0987
@<TRIPOS>BOND
    1     1     2    1
    2     1     3    1
    3     1     4    1
    4     1     5    1
    5     5     6    1
    6     5     7    1
    7     5     8    1
    8     8     9    1
    9     8    10    1
   10     8    11    1
   11    11    12    1
   12    11    13    1
   13    11    14    1
   14    14    15    1
   15    14    16    1
   16    14    17    1
   17    17    18    1
   18    17    19    1
   19    17    20    1
   20    20    21    1
   21    20    22    1
   22    20    23    1
@<TRIPOS>SUBSTRUCTURE
       1 MOL1            1 RESIDUE      1      MOL     
@<SCITEGIC>MOL_PROPERTY
VConf Rank
SciTegic.value.IntegerValue
359

@<SCITEGIC>MOL_PROPERTY
Conf_Id
SciTegic.value.IntegerValue
50

@<SCITEGIC>MOL_PROPERTY
Delta U+W
SciTegic.value.DoubleValue
1.252

@<SCITEGIC>MOL_PROPERTY
U+W
SciTegic.value.DoubleValue
-7.130

@<SCITEGIC>MOL_PROPERTY
Grad RMS
SciTegic.value.DoubleValue
0.000000

@<SCITEGIC>MOL_PROPERTY
U
SciTegic.value.DoubleValue
48.727

@<SCITEGIC>MOL_PROPERTY
W
SciTegic.value.DoubleValue
-55.857

@<SCITEGIC>MOL_PROPERTY
W(PB)
SciTegic.value.DoubleValue
-57.937

@<SCITEGIC>MOL_PROPERTY
W(SA)
SciTegic.value.DoubleValue
2.080

@<SCITEGIC>MOL_PROPERTY
Valence
SciTegic.value.DoubleValue
2.671

@<SCITEGIC>MOL_PROPERTY
Coulomb
SciTegic.value.DoubleValue
45.371

@<SCITEGIC>MOL_PROPERTY
VdW
SciTegic.value.DoubleValue
0.684

@<SCITEGIC>MOL_PROPERTY
VdW6
SciTegic.value.DoubleValue
-6.511

@<SCITEGIC>MOL_PROPERTY
VdW12
SciTegic.value.DoubleValue
7.196

@<SCITEGIC>MOL_PROPERTY
Bond
SciTegic.value.DoubleValue
0.203

@<SCITEGIC>MOL_PROPERTY
Angle
SciTegic.value.DoubleValue
0.915

@<SCITEGIC>MOL_PROPERTY
Pdih
SciTegic.value.DoubleValue
1.554

@<SCITEGIC>MOL_PROPERTY
Idih
SciTegic.value.DoubleValue
0.000

@<SCITEGIC>MOL_PROPERTY
Tether
SciTegic.value.DoubleValue
0.000

@<TRIPOS>MOLECULE
guest-2_confgen4.mol2 : confsearch ligand conformer 360
          23          22           1
SMALL
USER_CHARGES
 
@<TRIPOS>ATOM
       1    N1      18.517897   19.028743   25.545788 N.4        1 MOL1        -0.5940
       2    H1      17.798942   19.504064   24.991976 H          1 MOL1         0.3649
       3    H2      18.505615   19.452656   26.479638 H          1 MOL1         0.3649
       4    H3      18.220504   18.054075   25.656264 H          1 MOL1         0.3649
       5    C1      19.885651   19.131116   24.899252 C.3        1 MOL1         0.0207
       6    H4      20.603167   18.640503   25.562609 H          1 MOL1         0.0950
       7    H5      20.151550   20.189595   24.833427 H          1 MOL1         0.0950
       8    C2      19.962454   18.489523   23.500246 C.3        1 MOL1        -0.1415
       9    H6      21.006191   18.516531   23.167760 H          1 MOL1         0.0976
      10    H7      19.689640   17.428219   23.570762 H          1 MOL1         0.0976
      11    C3      19.051351   19.199764   22.466744 C.3        1 MOL1        -0.1375
      12    H8      19.252446   20.279968   22.458051 H          1 MOL1         0.0976
      13    H9      18.006963   19.086913   22.786909 H          1 MOL1         0.0976
      14    C4      19.182148   18.623365   21.032603 C.3        1 MOL1        -0.1375
      15    H10     19.455065   17.559807   21.072034 H          1 MOL1         0.0976
      16    H11     18.191325   18.656672   20.558629 H          1 MOL1         0.0976
      17    C5      20.164383   19.392201   20.112106 C.3        1 MOL1        -0.1350
      18    H12     19.824881   20.431116   19.997349 H          1 MOL1         0.0976
      19    H13     20.122641   18.946481   19.108410 H          1 MOL1         0.0976
      20    C6      21.630708   19.383388   20.596713 C.3        1 MOL1        -0.2365
      21    H14     21.982273   18.359370   20.777335 H          1 MOL1         0.0987
      22    H15     21.748691   19.962542   21.520798 H          1 MOL1         0.0987
      23    H16     22.286752   19.835035   19.841392 H          1 MOL1         0.0987
@<TRIPOS>BOND
    1     1     2    1
    2     1     3    1
    3     1     4    1
    4     1     5    1
    5     5     6    1
    6     5     7    1
    7     5     8    1
    8     8     9    1
    9     8    10    1
   10     8    11    1
   11    11    12    1
   12    11    13    1
   13    11    14    1
   14    14    15    1
   15    14    16    1
   16    14    17    1
   17    17    18    1
   18    17    19    1
   19    17    20    1
   20    20    21    1
   21    20    22    1
   22    20    23    1
@<TRIPOS>SUBSTRUCTURE
       1 MOL1            1 RESIDUE      1      MOL     
@<SCITEGIC>MOL_PROPERTY
VConf Rank
SciTegic.value.IntegerValue
360

@<SCITEGIC>MOL_PROPERTY
Conf_Id
SciTegic.value.IntegerValue
55

@<SCITEGIC>MOL_PROPERTY
Delta U+W
SciTegic.value.DoubleValue
3.232

@<SCITEGIC>MOL_PROPERTY
U+W
SciTegic.value.DoubleValue
-5.150

@<SCITEGIC>MOL_PROPERTY
Grad RMS
SciTegic.value.DoubleValue
0.000000

@<SCITEGIC>MOL_PROPERTY
U
SciTegic.value.DoubleValue
50.625

@<SCITEGIC>MOL_PROPERTY
W
SciTegic.value.DoubleValue
-55.776

@<SCITEGIC>MOL_PROPERTY
W(PB)
SciTegic.value.DoubleValue
-57.839

@<SCITEGIC>MOL_PROPERTY
W(SA)
SciTegic.value.DoubleValue
2.064

@<SCITEGIC>MOL_PROPERTY
Valence
SciTegic.value.DoubleValue
4.837

@<SCITEGIC>MOL_PROPERTY
Coulomb
SciTegic.value.DoubleValue
45.097

@<SCITEGIC>MOL_PROPERTY
VdW
SciTegic.value.DoubleValue
0.692

@<SCITEGIC>MOL_PROPERTY
VdW6
SciTegic.value.DoubleValue
-6.655

@<SCITEGIC>MOL_PROPERTY
VdW12
SciTegic.value.DoubleValue
7.347

@<SCITEGIC>MOL_PROPERTY
Bond
SciTegic.value.DoubleValue
0.223

@<SCITEGIC>MOL_PROPERTY
Angle
SciTegic.value.DoubleValue
1.167

@<SCITEGIC>MOL_PROPERTY
Pdih
SciTegic.value.DoubleValue
3.447

@<SCITEGIC>MOL_PROPERTY
Idih
SciTegic.value.DoubleValue
0.000

@<SCITEGIC>MOL_PROPERTY
Tether
SciTegic.value.DoubleValue
0.000

@<TRIPOS>MOLECULE
guest-2_confgen4.mol2 : confsearch ligand conformer 361
          23          22           1
SMALL
USER_CHARGES
 
@<TRIPOS>ATOM
       1    N1      20.523926   19.795765   19.639315 N.4        1 MOL1        -0.5940
       2    H1      21.467818   19.697184   19.251788 H          1 MOL1         0.3649
       3    H2      20.111112   20.630172   19.208794 H          1 MOL1         0.3649
       4    H3      19.978789   18.991285   19.313133 H          1 MOL1         0.3649
       5    C1      20.541089   19.892011   21.151297 C.3        1 MOL1         0.0207
       6    H4      19.512240   20.031094   21.488141 H          1 MOL1         0.0950
       7    H5      21.112410   20.783204   21.424737 H          1 MOL1         0.0950
       8    C2      21.162955   18.653910   21.826704 C.3        1 MOL1        -0.1415
       9    H6      20.627562   17.744116   21.524228 H          1 MOL1         0.0976
      10    H7      22.191501   18.545477   21.457445 H          1 MOL1         0.0976
      11    C3      21.202946   18.759858   23.372227 C.3        1 MOL1        -0.1375
      12    H8      21.427821   19.792600   23.673022 H          1 MOL1         0.0976
      13    H9      22.046004   18.155109   23.734209 H          1 MOL1         0.0976
      14    C4      19.925333   18.260072   24.095684 C.3        1 MOL1        -0.1375
      15    H10     19.769374   17.196144   23.869797 H          1 MOL1         0.0976
      16    H11     20.101327   18.318369   25.178768 H          1 MOL1         0.0976
      17    C5      18.640952   19.050191   23.754249 C.3        1 MOL1        -0.1350
      18    H12     18.361649   18.875343   22.707190 H          1 MOL1         0.0976
      19    H13     18.823516   20.127887   23.867913 H          1 MOL1         0.0976
      20    C6      17.459560   18.633269   24.656008 C.3        1 MOL1        -0.2365
      21    H14     17.681126   18.828197   25.713423 H          1 MOL1         0.0987
      22    H15     17.236533   17.564091   24.544796 H          1 MOL1         0.0987
      23    H16     16.554094   19.195438   24.393086 H          1 MOL1         0.0987
@<TRIPOS>BOND
    1     1     2    1
    2     1     3    1
    3     1     4    1
    4     1     5    1
    5     5     6    1
    6     5     7    1
    7     5     8    1
    8     8     9    1
    9     8    10    1
   10     8    11    1
   11    11    12    1
   12    11    13    1
   13    11    14    1
   14    14    15    1
   15    14    16    1
   16    14    17    1
   17    17    18    1
   18    17    19    1
   19    17    20    1
   20    20    21    1
   21    20    22    1
   22    20    23    1
@<TRIPOS>SUBSTRUCTURE
       1 MOL1            1 RESIDUE      1      MOL     
@<SCITEGIC>MOL_PROPERTY
VConf Rank
SciTegic.value.IntegerValue
361

@<SCITEGIC>MOL_PROPERTY
Conf_Id
SciTegic.value.IntegerValue
93

@<SCITEGIC>MOL_PROPERTY
Delta U+W
SciTegic.value.DoubleValue
2.589

@<SCITEGIC>MOL_PROPERTY
U+W
SciTegic.value.DoubleValue
-5.793

@<SCITEGIC>MOL_PROPERTY
Grad RMS
SciTegic.value.DoubleValue
0.000000

@<SCITEGIC>MOL_PROPERTY
U
SciTegic.value.DoubleValue
50.122

@<SCITEGIC>MOL_PROPERTY
W
SciTegic.value.DoubleValue
-55.915

@<SCITEGIC>MOL_PROPERTY
W(PB)
SciTegic.value.DoubleValue
-58.031

@<SCITEGIC>MOL_PROPERTY
W(SA)
SciTegic.value.DoubleValue
2.115

@<SCITEGIC>MOL_PROPERTY
Valence
SciTegic.value.DoubleValue
4.132

@<SCITEGIC>MOL_PROPERTY
Coulomb
SciTegic.value.DoubleValue
45.536

@<SCITEGIC>MOL_PROPERTY
VdW
SciTegic.value.DoubleValue
0.454

@<SCITEGIC>MOL_PROPERTY
VdW6
SciTegic.value.DoubleValue
-6.262

@<SCITEGIC>MOL_PROPERTY
VdW12
SciTegic.value.DoubleValue
6.715

@<SCITEGIC>MOL_PROPERTY
Bond
SciTegic.value.DoubleValue
0.182

@<SCITEGIC>MOL_PROPERTY
Angle
SciTegic.value.DoubleValue
1.157

@<SCITEGIC>MOL_PROPERTY
Pdih
SciTegic.value.DoubleValue
2.794

@<SCITEGIC>MOL_PROPERTY
Idih
SciTegic.value.DoubleValue
0.000

@<SCITEGIC>MOL_PROPERTY
Tether
SciTegic.value.DoubleValue
0.000

@<TRIPOS>MOLECULE
guest-2_confgen4.mol2 : confsearch ligand conformer 362
          23          22           1
SMALL
USER_CHARGES
 
@<TRIPOS>ATOM
       1    N1      17.510232   17.763428   20.709678 N.4        1 MOL1        -0.5940
       2    H1      18.222069   17.616673   19.986832 H          1 MOL1         0.3649
       3    H2      16.787537   18.364331   20.299035 H          1 MOL1         0.3649
       4    H3      17.073172   16.854101   20.891147 H          1 MOL1         0.3649
       5    C1      18.098108   18.368955   21.968005 C.3        1 MOL1         0.0207
       6    H4      17.282317   18.523249   22.679397 H          1 MOL1         0.0950
       7    H5      18.510692   19.345128   21.706854 H          1 MOL1         0.0950
       8    C2      19.183193   17.483930   22.612295 C.3        1 MOL1        -0.1415
       9    H6      18.731235   16.512426   22.852987 H          1 MOL1         0.0976
      10    H7      19.988124   17.281638   21.893250 H          1 MOL1         0.0976
      11    C3      19.769711   18.090077   23.912312 C.3        1 MOL1        -0.1375
      12    H8      20.116693   17.263692   24.548071 H          1 MOL1         0.0976
      13    H9      18.977130   18.592085   24.484508 H          1 MOL1         0.0976
      14    C4      20.967567   19.052798   23.703060 C.3        1 MOL1        -0.1375
      15    H10     21.337459   19.357573   24.691863 H          1 MOL1         0.0976
      16    H11     21.793781   18.510071   23.223363 H          1 MOL1         0.0976
      17    C5      20.639680   20.319447   22.879293 C.3        1 MOL1        -0.1350
      18    H12     19.742516   20.807520   23.284950 H          1 MOL1         0.0976
      19    H13     20.418929   20.042912   21.840200 H          1 MOL1         0.0976
      20    C6      21.813910   21.321366   22.884169 C.3        1 MOL1        -0.2365
      21    H14     21.568672   22.208784   22.286359 H          1 MOL1         0.0987
      22    H15     22.720017   20.869287   22.460089 H          1 MOL1         0.0987
      23    H16     22.043951   21.656132   23.904084 H          1 MOL1         0.0987
@<TRIPOS>BOND
    1     1     2    1
    2     1     3    1
    3     1     4    1
    4     1     5    1
    5     5     6    1
    6     5     7    1
    7     5     8    1
    8     8     9    1
    9     8    10    1
   10     8    11    1
   11    11    12    1
   12    11    13    1
   13    11    14    1
   14    14    15    1
   15    14    16    1
   16    14    17    1
   17    17    18    1
   18    17    19    1
   19    17    20    1
   20    20    21    1
   21    20    22    1
   22    20    23    1
@<TRIPOS>SUBSTRUCTURE
       1 MOL1            1 RESIDUE      1      MOL     
@<SCITEGIC>MOL_PROPERTY
VConf Rank
SciTegic.value.IntegerValue
362

@<SCITEGIC>MOL_PROPERTY
Conf_Id
SciTegic.value.IntegerValue
70

@<SCITEGIC>MOL_PROPERTY
Delta U+W
SciTegic.value.DoubleValue
2.599

@<SCITEGIC>MOL_PROPERTY
U+W
SciTegic.value.DoubleValue
-5.783

@<SCITEGIC>MOL_PROPERTY
Grad RMS
SciTegic.value.DoubleValue
0.000000

@<SCITEGIC>MOL_PROPERTY
U
SciTegic.value.DoubleValue
50.122

@<SCITEGIC>MOL_PROPERTY
W
SciTegic.value.DoubleValue
-55.906

@<SCITEGIC>MOL_PROPERTY
W(PB)
SciTegic.value.DoubleValue
-58.010

@<SCITEGIC>MOL_PROPERTY
W(SA)
SciTegic.value.DoubleValue
2.105

@<SCITEGIC>MOL_PROPERTY
Valence
SciTegic.value.DoubleValue
4.132

@<SCITEGIC>MOL_PROPERTY
Coulomb
SciTegic.value.DoubleValue
45.536

@<SCITEGIC>MOL_PROPERTY
VdW
SciTegic.value.DoubleValue
0.454

@<SCITEGIC>MOL_PROPERTY
VdW6
SciTegic.value.DoubleValue
-6.262

@<SCITEGIC>MOL_PROPERTY
VdW12
SciTegic.value.DoubleValue
6.715

@<SCITEGIC>MOL_PROPERTY
Bond
SciTegic.value.DoubleValue
0.182

@<SCITEGIC>MOL_PROPERTY
Angle
SciTegic.value.DoubleValue
1.157

@<SCITEGIC>MOL_PROPERTY
Pdih
SciTegic.value.DoubleValue
2.794

@<SCITEGIC>MOL_PROPERTY
Idih
SciTegic.value.DoubleValue
0.000

@<SCITEGIC>MOL_PROPERTY
Tether
SciTegic.value.DoubleValue
0.000

@<TRIPOS>MOLECULE
guest-2_confgen4.mol2 : confsearch ligand conformer 363
          23          22           1
SMALL
USER_CHARGES
 
@<TRIPOS>ATOM
       1    N1      18.286111   17.954759   24.752176 N.4        1 MOL1        -0.5940
       2    H1      18.541450   18.049521   25.740270 H          1 MOL1         0.3649
       3    H2      17.527198   17.266663   24.703823 H          1 MOL1         0.3649
       4    H3      17.897296   18.853846   24.452291 H          1 MOL1         0.3649
       5    C1      19.472386   17.546552   23.901085 C.3        1 MOL1         0.0207
       6    H4      19.127147   17.430579   22.870403 H          1 MOL1         0.0950
       7    H5      19.816828   16.571280   24.255624 H          1 MOL1         0.0950
       8    C2      20.641447   18.550972   23.948178 C.3        1 MOL1        -0.1415
       9    H6      21.002474   18.633324   24.981906 H          1 MOL1         0.0976
      10    H7      21.481130   18.144507   23.370135 H          1 MOL1         0.0976
      11    C3      20.279748   19.964400   23.420541 C.3        1 MOL1        -0.1375
      12    H8      21.178511   20.595494   23.454420 H          1 MOL1         0.0976
      13    H9      19.561950   20.434092   24.106389 H          1 MOL1         0.0976
      14    C4      19.693888   19.995393   21.985059 C.3        1 MOL1        -0.1375
      15    H10     18.743164   19.446716   21.953918 H          1 MOL1         0.0976
      16    H11     19.450280   21.036782   21.733066 H          1 MOL1         0.0976
      17    C5      20.655710   19.431472   20.912779 C.3        1 MOL1        -0.1350
      18    H12     20.857080   18.369276   21.105465 H          1 MOL1         0.0976
      19    H13     21.620793   19.954194   20.968361 H          1 MOL1         0.0976
      20    C6      20.073683   19.580801   19.491045 C.3        1 MOL1        -0.2365
      21    H14     20.767037   19.173772   18.743648 H          1 MOL1         0.0987
      22    H15     19.895815   20.635949   19.245651 H          1 MOL1         0.0987
      23    H16     19.121686   19.042415   19.395933 H          1 MOL1         0.0987
@<TRIPOS>BOND
    1     1     2    1
    2     1     3    1
    3     1     4    1
    4     1     5    1
    5     5     6    1
    6     5     7    1
    7     5     8    1
    8     8     9    1
    9     8    10    1
   10     8    11    1
   11    11    12    1
   12    11    13    1
   13    11    14    1
   14    14    15    1
   15    14    16    1
   16    14    17    1
   17    17    18    1
   18    17    19    1
   19    17    20    1
   20    20    21    1
   21    20    22    1
   22    20    23    1
@<TRIPOS>SUBSTRUCTURE
       1 MOL1            1 RESIDUE      1      MOL     
@<SCITEGIC>MOL_PROPERTY
VConf Rank
SciTegic.value.IntegerValue
363

@<SCITEGIC>MOL_PROPERTY
Conf_Id
SciTegic.value.IntegerValue
72

@<SCITEGIC>MOL_PROPERTY
Delta U+W
SciTegic.value.DoubleValue
1.051

@<SCITEGIC>MOL_PROPERTY
U+W
SciTegic.value.DoubleValue
-7.331

@<SCITEGIC>MOL_PROPERTY
Grad RMS
SciTegic.value.DoubleValue
0.000000

@<SCITEGIC>MOL_PROPERTY
U
SciTegic.value.DoubleValue
48.590

@<SCITEGIC>MOL_PROPERTY
W
SciTegic.value.DoubleValue
-55.922

@<SCITEGIC>MOL_PROPERTY
W(PB)
SciTegic.value.DoubleValue
-58.012

@<SCITEGIC>MOL_PROPERTY
W(SA)
SciTegic.value.DoubleValue
2.090

@<SCITEGIC>MOL_PROPERTY
Valence
SciTegic.value.DoubleValue
2.601

@<SCITEGIC>MOL_PROPERTY
Coulomb
SciTegic.value.DoubleValue
45.520

@<SCITEGIC>MOL_PROPERTY
VdW
SciTegic.value.DoubleValue
0.469

@<SCITEGIC>MOL_PROPERTY
VdW6
SciTegic.value.DoubleValue
-6.867

@<SCITEGIC>MOL_PROPERTY
VdW12
SciTegic.value.DoubleValue
7.336

@<SCITEGIC>MOL_PROPERTY
Bond
SciTegic.value.DoubleValue
0.205

@<SCITEGIC>MOL_PROPERTY
Angle
SciTegic.value.DoubleValue
0.962

@<SCITEGIC>MOL_PROPERTY
Pdih
SciTegic.value.DoubleValue
1.434

@<SCITEGIC>MOL_PROPERTY
Idih
SciTegic.value.DoubleValue
0.000

@<SCITEGIC>MOL_PROPERTY
Tether
SciTegic.value.DoubleValue
0.000

@<TRIPOS>MOLECULE
guest-2_confgen4.mol2 : confsearch ligand conformer 364
          23          22           1
SMALL
USER_CHARGES
 
@<TRIPOS>ATOM
       1    N1      20.092376   21.628316   24.228933 N.4        1 MOL1        -0.5940
       2    H1      20.113968   22.599955   23.901199 H          1 MOL1         0.3649
       3    H2      20.727428   21.570820   25.031546 H          1 MOL1         0.3649
       4    H3      19.145539   21.453175   24.580341 H          1 MOL1         0.3649
       5    C1      20.477891   20.655946   23.132797 C.3        1 MOL1         0.0207
       6    H4      21.481539   20.917228   22.786716 H          1 MOL1         0.0950
       7    H5      19.780794   20.792700   22.301962 H          1 MOL1         0.0950
       8    C2      20.455081   19.186505   23.593277 C.3        1 MOL1        -0.1415
       9    H6      21.130001   19.068398   24.451335 H          1 MOL1         0.0976
      10    H7      19.451307   18.926819   23.953043 H          1 MOL1         0.0976
      11    C3      20.888553   18.203708   22.477359 C.3        1 MOL1        -0.1375
      12    H8      20.872505   17.179977   22.874431 H          1 MOL1         0.0976
      13    H9      21.937120   18.403311   22.216633 H          1 MOL1         0.0976
      14    C4      20.035171   18.271298   21.182009 C.3        1 MOL1        -0.1375
      15    H10     20.184596   19.245351   20.697039 H          1 MOL1         0.0976
      16    H11     20.418002   17.526364   20.470894 H          1 MOL1         0.0976
      17    C5      18.515826   18.037944   21.380392 C.3        1 MOL1        -0.1350
      18    H12     18.018347   18.121748   20.404082 H          1 MOL1         0.0976
      19    H13     18.087670   18.833445   22.004873 H          1 MOL1         0.0976
      20    C6      18.182328   16.658168   21.991551 C.3        1 MOL1        -0.2365
      21    H14     18.611535   15.846358   21.390149 H          1 MOL1         0.0987
      22    H15     17.095769   16.507857   22.032044 H          1 MOL1         0.0987
      23    H16     18.566819   16.567950   23.015067 H          1 MOL1         0.0987
@<TRIPOS>BOND
    1     1     2    1
    2     1     3    1
    3     1     4    1
    4     1     5    1
    5     5     6    1
    6     5     7    1
    7     5     8    1
    8     8     9    1
    9     8    10    1
   10     8    11    1
   11    11    12    1
   12    11    13    1
   13    11    14    1
   14    14    15    1
   15    14    16    1
   16    14    17    1
   17    17    18    1
   18    17    19    1
   19    17    20    1
   20    20    21    1
   21    20    22    1
   22    20    23    1
@<TRIPOS>SUBSTRUCTURE
       1 MOL1            1 RESIDUE      1      MOL     
@<SCITEGIC>MOL_PROPERTY
VConf Rank
SciTegic.value.IntegerValue
364

@<SCITEGIC>MOL_PROPERTY
Conf_Id
SciTegic.value.IntegerValue
26

@<SCITEGIC>MOL_PROPERTY
Delta U+W
SciTegic.value.DoubleValue
1.076

@<SCITEGIC>MOL_PROPERTY
U+W
SciTegic.value.DoubleValue
-7.306

@<SCITEGIC>MOL_PROPERTY
Grad RMS
SciTegic.value.DoubleValue
0.000000

@<SCITEGIC>MOL_PROPERTY
U
SciTegic.value.DoubleValue
48.641

@<SCITEGIC>MOL_PROPERTY
W
SciTegic.value.DoubleValue
-55.947

@<SCITEGIC>MOL_PROPERTY
W(PB)
SciTegic.value.DoubleValue
-58.031

@<SCITEGIC>MOL_PROPERTY
W(SA)
SciTegic.value.DoubleValue
2.084

@<SCITEGIC>MOL_PROPERTY
Valence
SciTegic.value.DoubleValue
2.922

@<SCITEGIC>MOL_PROPERTY
Coulomb
SciTegic.value.DoubleValue
45.269

@<SCITEGIC>MOL_PROPERTY
VdW
SciTegic.value.DoubleValue
0.449

@<SCITEGIC>MOL_PROPERTY
VdW6
SciTegic.value.DoubleValue
-7.045

@<SCITEGIC>MOL_PROPERTY
VdW12
SciTegic.value.DoubleValue
7.494

@<SCITEGIC>MOL_PROPERTY
Bond
SciTegic.value.DoubleValue
0.220

@<SCITEGIC>MOL_PROPERTY
Angle
SciTegic.value.DoubleValue
1.205

@<SCITEGIC>MOL_PROPERTY
Pdih
SciTegic.value.DoubleValue
1.497

@<SCITEGIC>MOL_PROPERTY
Idih
SciTegic.value.DoubleValue
0.000

@<SCITEGIC>MOL_PROPERTY
Tether
SciTegic.value.DoubleValue
0.000

@<TRIPOS>MOLECULE
guest-2_confgen4.mol2 : confsearch ligand conformer 365
          23          22           1
SMALL
USER_CHARGES
 
@<TRIPOS>ATOM
       1    N1      18.575998   20.740769   24.901824 N.4        1 MOL1        -0.5940
       2    H1      19.229505   21.385110   25.358482 H          1 MOL1         0.3649
       3    H2      17.856013   20.506890   25.593837 H          1 MOL1         0.3649
       4    H3      18.110931   21.263505   24.152744 H          1 MOL1         0.3649
       5    C1      19.276065   19.503425   24.377878 C.3        1 MOL1         0.0207
       6    H4      18.519022   18.851788   23.933820 H          1 MOL1         0.0950
       7    H5      19.722969   18.982058   25.228644 H          1 MOL1         0.0950
       8    C2      20.364208   19.820826   23.335275 C.3        1 MOL1        -0.1415
       9    H6      19.919055   20.355752   22.486673 H          1 MOL1         0.0976
      10    H7      21.098891   20.505243   23.779733 H          1 MOL1         0.0976
      11    C3      21.100522   18.553270   22.835068 C.3        1 MOL1        -0.1375
      12    H8      21.639240   18.099953   23.678631 H          1 MOL1         0.0976
      13    H9      21.874745   18.848678   22.114469 H          1 MOL1         0.0976
      14    C4      20.182515   17.475417   22.197686 C.3        1 MOL1        -0.1375
      15    H10     20.807218   16.634535   21.866281 H          1 MOL1         0.0976
      16    H11     19.516471   17.062139   22.967029 H          1 MOL1         0.0976
      17    C5      19.325387   17.962725   21.001825 C.3        1 MOL1        -0.1350
      18    H12     18.615931   18.733299   21.331987 H          1 MOL1         0.0976
      19    H13     18.712613   17.123093   20.645147 H          1 MOL1         0.0976
      20    C6      20.167721   18.499705   19.822569 C.3        1 MOL1        -0.2365
      21    H14     20.716131   19.408237   20.100734 H          1 MOL1         0.0987
      22    H15     19.521760   18.750933   18.971417 H          1 MOL1         0.0987
      23    H16     20.894065   17.749917   19.483184 H          1 MOL1         0.0987
@<TRIPOS>BOND
    1     1     2    1
    2     1     3    1
    3     1     4    1
    4     1     5    1
    5     5     6    1
    6     5     7    1
    7     5     8    1
    8     8     9    1
    9     8    10    1
   10     8    11    1
   11    11    12    1
   12    11    13    1
   13    11    14    1
   14    14    15    1
   15    14    16    1
   16    14    17    1
   17    17    18    1
   18    17    19    1
   19    17    20    1
   20    20    21    1
   21    20    22    1
   22    20    23    1
@<TRIPOS>SUBSTRUCTURE
       1 MOL1            1 RESIDUE      1      MOL     
@<SCITEGIC>MOL_PROPERTY
VConf Rank
SciTegic.value.IntegerValue
365

@<SCITEGIC>MOL_PROPERTY
Conf_Id
SciTegic.value.IntegerValue
90

@<SCITEGIC>MOL_PROPERTY
Delta U+W
SciTegic.value.DoubleValue
1.131

@<SCITEGIC>MOL_PROPERTY
U+W
SciTegic.value.DoubleValue
-7.251

@<SCITEGIC>MOL_PROPERTY
Grad RMS
SciTegic.value.DoubleValue
0.000000

@<SCITEGIC>MOL_PROPERTY
U
SciTegic.value.DoubleValue
48.641

@<SCITEGIC>MOL_PROPERTY
W
SciTegic.value.DoubleValue
-55.892

@<SCITEGIC>MOL_PROPERTY
W(PB)
SciTegic.value.DoubleValue
-57.962

@<SCITEGIC>MOL_PROPERTY
W(SA)
SciTegic.value.DoubleValue
2.070

@<SCITEGIC>MOL_PROPERTY
Valence
SciTegic.value.DoubleValue
2.922

@<SCITEGIC>MOL_PROPERTY
Coulomb
SciTegic.value.DoubleValue
45.269

@<SCITEGIC>MOL_PROPERTY
VdW
SciTegic.value.DoubleValue
0.450

@<SCITEGIC>MOL_PROPERTY
VdW6
SciTegic.value.DoubleValue
-7.045

@<SCITEGIC>MOL_PROPERTY
VdW12
SciTegic.value.DoubleValue
7.495

@<SCITEGIC>MOL_PROPERTY
Bond
SciTegic.value.DoubleValue
0.220

@<SCITEGIC>MOL_PROPERTY
Angle
SciTegic.value.DoubleValue
1.205

@<SCITEGIC>MOL_PROPERTY
Pdih
SciTegic.value.DoubleValue
1.497

@<SCITEGIC>MOL_PROPERTY
Idih
SciTegic.value.DoubleValue
0.000

@<SCITEGIC>MOL_PROPERTY
Tether
SciTegic.value.DoubleValue
0.000

@<TRIPOS>MOLECULE
guest-2_confgen4.mol2 : confsearch ligand conformer 366
          23          22           1
SMALL
USER_CHARGES
 
@<TRIPOS>ATOM
       1    N1      19.205275   16.379285   22.337933 N.4        1 MOL1        -0.5940
       2    H1      18.450056   15.758926   22.648820 H          1 MOL1         0.3649
       3    H2      19.579278   16.840493   23.172817 H          1 MOL1         0.3649
       4    H3      19.948277   15.781201   21.962676 H          1 MOL1         0.3649
       5    C1      18.721376   17.385935   21.312801 C.3        1 MOL1         0.0207
       6    H4      17.913242   17.967355   21.764007 H          1 MOL1         0.0950
       7    H5      18.307040   16.828388   20.468416 H          1 MOL1         0.0950
       8    C2      19.826768   18.334899   20.806378 C.3        1 MOL1        -0.1415
       9    H6      20.610108   17.743999   20.313422 H          1 MOL1         0.0976
      10    H7      19.402850   18.987335   20.031482 H          1 MOL1         0.0976
      11    C3      20.464885   19.207503   21.916312 C.3        1 MOL1        -0.1375
      12    H8      21.245663   19.833926   21.463443 H          1 MOL1         0.0976
      13    H9      20.974134   18.561349   22.642435 H          1 MOL1         0.0976
      14    C4      19.438721   20.117346   22.637870 C.3        1 MOL1        -0.1375
      15    H10     18.880663   20.693579   21.887008 H          1 MOL1         0.0976
      16    H11     18.698932   19.505649   23.171230 H          1 MOL1         0.0976
      17    C5      20.090082   21.107659   23.633059 C.3        1 MOL1        -0.1350
      18    H12     19.313114   21.782621   24.018522 H          1 MOL1         0.0976
      19    H13     20.814616   21.743340   23.105101 H          1 MOL1         0.0976
      20    C6      20.782047   20.411304   24.826965 C.3        1 MOL1        -0.2365
      21    H14     20.084892   19.748822   25.356144 H          1 MOL1         0.0987
      22    H15     21.148034   21.155712   25.545885 H          1 MOL1         0.0987
      23    H16     21.644193   19.815776   24.502219 H          1 MOL1         0.0987
@<TRIPOS>BOND
    1     1     2    1
    2     1     3    1
    3     1     4    1
    4     1     5    1
    5     5     6    1
    6     5     7    1
    7     5     8    1
    8     8     9    1
    9     8    10    1
   10     8    11    1
   11    11    12    1
   12    11    13    1
   13    11    14    1
   14    14    15    1
   15    14    16    1
   16    14    17    1
   17    17    18    1
   18    17    19    1
   19    17    20    1
   20    20    21    1
   21    20    22    1
   22    20    23    1
@<TRIPOS>SUBSTRUCTURE
       1 MOL1            1 RESIDUE      1      MOL     
@<SCITEGIC>MOL_PROPERTY
VConf Rank
SciTegic.value.IntegerValue
366

@<SCITEGIC>MOL_PROPERTY
Conf_Id
SciTegic.value.IntegerValue
85

@<SCITEGIC>MOL_PROPERTY
Delta U+W
SciTegic.value.DoubleValue
1.193

@<SCITEGIC>MOL_PROPERTY
U+W
SciTegic.value.DoubleValue
-7.189

@<SCITEGIC>MOL_PROPERTY
Grad RMS
SciTegic.value.DoubleValue
0.000000

@<SCITEGIC>MOL_PROPERTY
U
SciTegic.value.DoubleValue
48.775

@<SCITEGIC>MOL_PROPERTY
W
SciTegic.value.DoubleValue
-55.965

@<SCITEGIC>MOL_PROPERTY
W(PB)
SciTegic.value.DoubleValue
-58.038

@<SCITEGIC>MOL_PROPERTY
W(SA)
SciTegic.value.DoubleValue
2.073

@<SCITEGIC>MOL_PROPERTY
Valence
SciTegic.value.DoubleValue
2.602

@<SCITEGIC>MOL_PROPERTY
Coulomb
SciTegic.value.DoubleValue
45.581

@<SCITEGIC>MOL_PROPERTY
VdW
SciTegic.value.DoubleValue
0.592

@<SCITEGIC>MOL_PROPERTY
VdW6
SciTegic.value.DoubleValue
-6.616

@<SCITEGIC>MOL_PROPERTY
VdW12
SciTegic.value.DoubleValue
7.208

@<SCITEGIC>MOL_PROPERTY
Bond
SciTegic.value.DoubleValue
0.196

@<SCITEGIC>MOL_PROPERTY
Angle
SciTegic.value.DoubleValue
0.832

@<SCITEGIC>MOL_PROPERTY
Pdih
SciTegic.value.DoubleValue
1.574

@<SCITEGIC>MOL_PROPERTY
Idih
SciTegic.value.DoubleValue
0.000

@<SCITEGIC>MOL_PROPERTY
Tether
SciTegic.value.DoubleValue
0.000

@<TRIPOS>MOLECULE
guest-2_confgen4.mol2 : confsearch ligand conformer 367
          23          22           1
SMALL
USER_CHARGES
 
@<TRIPOS>ATOM
       1    N1      20.080352   18.226800   20.637778 N.4        1 MOL1        -0.5940
       2    H1      19.951780   19.147801   21.068935 H          1 MOL1         0.3649
       3    H2      19.497791   18.198298   19.793910 H          1 MOL1         0.3649
       4    H3      21.056145   18.166919   20.329142 H          1 MOL1         0.3649
       5    C1      19.728008   17.111536   21.603026 C.3        1 MOL1         0.0207
       6    H4      19.891089   16.168392   21.074448 H          1 MOL1         0.0950
       7    H5      18.665111   17.183348   21.848426 H          1 MOL1         0.0950
       8    C2      20.566209   17.114366   22.897680 C.3        1 MOL1        -0.1415
       9    H6      20.533696   16.100585   23.318429 H          1 MOL1         0.0976
      10    H7      21.620692   17.303617   22.656597 H          1 MOL1         0.0976
      11    C3      20.084024   18.099043   23.996779 C.3        1 MOL1        -0.1375
      12    H8      20.731354   17.955504   24.873059 H          1 MOL1         0.0976
      13    H9      19.073866   17.823526   24.330156 H          1 MOL1         0.0976
      14    C4      20.127737   19.599267   23.608607 C.3        1 MOL1        -0.1375
      15    H10     20.411535   20.181236   24.496588 H          1 MOL1         0.0976
      16    H11     20.922781   19.777467   22.872486 H          1 MOL1         0.0976
      17    C5      18.767164   20.137855   23.102778 C.3        1 MOL1        -0.1350
      18    H12     18.035149   20.098573   23.921769 H          1 MOL1         0.0976
      19    H13     18.362321   19.503126   22.305595 H          1 MOL1         0.0976
      20    C6      18.881736   21.590666   22.594803 C.3        1 MOL1        -0.2365
      21    H14     19.235005   22.259265   23.390759 H          1 MOL1         0.0987
      22    H15     17.905596   21.960266   22.254617 H          1 MOL1         0.0987
      23    H16     19.581663   21.664383   21.752524 H          1 MOL1         0.0987
@<TRIPOS>BOND
    1     1     2    1
    2     1     3    1
    3     1     4    1
    4     1     5    1
    5     5     6    1
    6     5     7    1
    7     5     8    1
    8     8     9    1
    9     8    10    1
   10     8    11    1
   11    11    12    1
   12    11    13    1
   13    11    14    1
   14    14    15    1
   15    14    16    1
   16    14    17    1
   17    17    18    1
   18    17    19    1
   19    17    20    1
   20    20    21    1
   21    20    22    1
   22    20    23    1
@<TRIPOS>SUBSTRUCTURE
       1 MOL1            1 RESIDUE      1      MOL     
@<SCITEGIC>MOL_PROPERTY
VConf Rank
SciTegic.value.IntegerValue
367

@<SCITEGIC>MOL_PROPERTY
Conf_Id
SciTegic.value.IntegerValue
82

@<SCITEGIC>MOL_PROPERTY
Delta U+W
SciTegic.value.DoubleValue
5.994

@<SCITEGIC>MOL_PROPERTY
U+W
SciTegic.value.DoubleValue
-2.388

@<SCITEGIC>MOL_PROPERTY
Grad RMS
SciTegic.value.DoubleValue
0.000000

@<SCITEGIC>MOL_PROPERTY
U
SciTegic.value.DoubleValue
52.836

@<SCITEGIC>MOL_PROPERTY
W
SciTegic.value.DoubleValue
-55.224

@<SCITEGIC>MOL_PROPERTY
W(PB)
SciTegic.value.DoubleValue
-57.261

@<SCITEGIC>MOL_PROPERTY
W(SA)
SciTegic.value.DoubleValue
2.037

@<SCITEGIC>MOL_PROPERTY
Valence
SciTegic.value.DoubleValue
5.785

@<SCITEGIC>MOL_PROPERTY
Coulomb
SciTegic.value.DoubleValue
46.744

@<SCITEGIC>MOL_PROPERTY
VdW
SciTegic.value.DoubleValue
0.307

@<SCITEGIC>MOL_PROPERTY
VdW6
SciTegic.value.DoubleValue
-7.672

@<SCITEGIC>MOL_PROPERTY
VdW12
SciTegic.value.DoubleValue
7.979

@<SCITEGIC>MOL_PROPERTY
Bond
SciTegic.value.DoubleValue
0.217

@<SCITEGIC>MOL_PROPERTY
Angle
SciTegic.value.DoubleValue
1.470

@<SCITEGIC>MOL_PROPERTY
Pdih
SciTegic.value.DoubleValue
4.098

@<SCITEGIC>MOL_PROPERTY
Idih
SciTegic.value.DoubleValue
0.000

@<SCITEGIC>MOL_PROPERTY
Tether
SciTegic.value.DoubleValue
0.000

@<TRIPOS>MOLECULE
guest-2_confgen4.mol2 : confsearch ligand conformer 368
          23          22           1
SMALL
USER_CHARGES
 
@<TRIPOS>ATOM
       1    N1      18.093957   19.087164   21.487120 N.4        1 MOL1        -0.5940
       2    H1      18.163703   19.167405   20.467458 H          1 MOL1         0.3649
       3    H2      17.139479   18.775853   21.697734 H          1 MOL1         0.3649
       4    H3      18.732289   18.340416   21.779650 H          1 MOL1         0.3649
       5    C1      18.423973   20.396876   22.176612 C.3        1 MOL1         0.0207
       6    H4      18.271567   20.274676   23.252236 H          1 MOL1         0.0950
       7    H5      17.706357   21.138063   21.814424 H          1 MOL1         0.0950
       8    C2      19.854127   20.906055   21.904374 C.3        1 MOL1        -0.1415
       9    H6      20.095515   20.783007   20.840201 H          1 MOL1         0.0976
      10    H7      19.863779   21.988447   22.089232 H          1 MOL1         0.0976
      11    C3      20.963396   20.265788   22.781697 C.3        1 MOL1        -0.1375
      12    H8      20.789070   20.504622   23.840016 H          1 MOL1         0.0976
      13    H9      21.911474   20.757182   22.522499 H          1 MOL1         0.0976
      14    C4      21.150673   18.737315   22.602923 C.3        1 MOL1        -0.1375
      15    H10     20.864143   18.436502   21.586490 H          1 MOL1         0.0976
      16    H11     22.221260   18.504594   22.689075 H          1 MOL1         0.0976
      17    C5      20.396160   17.902316   23.666215 C.3        1 MOL1        -0.1350
      18    H12     19.342116   18.198358   23.726515 H          1 MOL1         0.0976
      19    H13     20.824741   18.106217   24.657616 H          1 MOL1         0.0976
      20    C6      20.489321   16.389537   23.375273 C.3        1 MOL1        -0.2365
      21    H14     20.040346   16.141905   22.404775 H          1 MOL1         0.0987
      22    H15     19.962118   15.813424   24.146849 H          1 MOL1         0.0987
      23    H16     21.534879   16.054865   23.362200 H          1 MOL1         0.0987
@<TRIPOS>BOND
    1     1     2    1
    2     1     3    1
    3     1     4    1
    4     1     5    1
    5     5     6    1
    6     5     7    1
    7     5     8    1
    8     8     9    1
    9     8    10    1
   10     8    11    1
   11    11    12    1
   12    11    13    1
   13    11    14    1
   14    14    15    1
   15    14    16    1
   16    14    17    1
   17    17    18    1
   18    17    19    1
   19    17    20    1
   20    20    21    1
   21    20    22    1
   22    20    23    1
@<TRIPOS>SUBSTRUCTURE
       1 MOL1            1 RESIDUE      1      MOL     
@<SCITEGIC>MOL_PROPERTY
VConf Rank
SciTegic.value.IntegerValue
368

@<SCITEGIC>MOL_PROPERTY
Conf_Id
SciTegic.value.IntegerValue
5

@<SCITEGIC>MOL_PROPERTY
Delta U+W
SciTegic.value.DoubleValue
6.087

@<SCITEGIC>MOL_PROPERTY
U+W
SciTegic.value.DoubleValue
-2.295

@<SCITEGIC>MOL_PROPERTY
Grad RMS
SciTegic.value.DoubleValue
0.000000

@<SCITEGIC>MOL_PROPERTY
U
SciTegic.value.DoubleValue
52.836

@<SCITEGIC>MOL_PROPERTY
W
SciTegic.value.DoubleValue
-55.131

@<SCITEGIC>MOL_PROPERTY
W(PB)
SciTegic.value.DoubleValue
-57.202

@<SCITEGIC>MOL_PROPERTY
W(SA)
SciTegic.value.DoubleValue
2.071

@<SCITEGIC>MOL_PROPERTY
Valence
SciTegic.value.DoubleValue
5.785

@<SCITEGIC>MOL_PROPERTY
Coulomb
SciTegic.value.DoubleValue
46.744

@<SCITEGIC>MOL_PROPERTY
VdW
SciTegic.value.DoubleValue
0.307

@<SCITEGIC>MOL_PROPERTY
VdW6
SciTegic.value.DoubleValue
-7.672

@<SCITEGIC>MOL_PROPERTY
VdW12
SciTegic.value.DoubleValue
7.980

@<SCITEGIC>MOL_PROPERTY
Bond
SciTegic.value.DoubleValue
0.217

@<SCITEGIC>MOL_PROPERTY
Angle
SciTegic.value.DoubleValue
1.470

@<SCITEGIC>MOL_PROPERTY
Pdih
SciTegic.value.DoubleValue
4.098

@<SCITEGIC>MOL_PROPERTY
Idih
SciTegic.value.DoubleValue
0.000

@<SCITEGIC>MOL_PROPERTY
Tether
SciTegic.value.DoubleValue
0.000

@<TRIPOS>MOLECULE
guest-2_confgen4.mol2 : confsearch ligand conformer 369
          23          22           1
SMALL
USER_CHARGES
 
@<TRIPOS>ATOM
       1    N1      16.560170   19.421586   20.532816 N.4        1 MOL1        -0.5940
       2    H1      16.271730   18.438644   20.571671 H          1 MOL1         0.3649
       3    H2      16.253905   19.786190   19.624323 H          1 MOL1         0.3649
       4    H3      16.024862   19.921534   21.250019 H          1 MOL1         0.3649
       5    C1      18.054248   19.580816   20.728457 C.3        1 MOL1         0.0207
       6    H4      18.293991   20.644384   20.645740 H          1 MOL1         0.0950
       7    H5      18.559332   19.050509   19.916569 H          1 MOL1         0.0950
       8    C2      18.546413   19.042725   22.083746 C.3        1 MOL1        -0.1415
       9    H6      18.024692   19.566748   22.895724 H          1 MOL1         0.0976
      10    H7      18.288994   17.978517   22.169162 H          1 MOL1         0.0976
      11    C3      20.072176   19.223497   22.243595 C.3        1 MOL1        -0.1375
      12    H8      20.326232   20.288818   22.152218 H          1 MOL1         0.0976
      13    H9      20.590236   18.702239   21.426463 H          1 MOL1         0.0976
      14    C4      20.577548   18.686257   23.601894 C.3        1 MOL1        -0.1375
      15    H10     20.059742   19.207462   24.419045 H          1 MOL1         0.0976
      16    H11     20.323614   17.621054   23.693411 H          1 MOL1         0.0976
      17    C5      22.103526   18.867118   23.761393 C.3        1 MOL1        -0.1350
      18    H12     22.362411   19.931610   23.673029 H          1 MOL1         0.0976
      19    H13     22.626254   18.345334   22.947471 H          1 MOL1         0.0976
      20    C6      22.604448   18.329552   25.118820 C.3        1 MOL1        -0.2365
      21    H14     23.689464   18.466706   25.213551 H          1 MOL1         0.0987
      22    H15     22.390135   17.257840   25.222418 H          1 MOL1         0.0987
      23    H16     22.124209   18.856490   25.953647 H          1 MOL1         0.0987
@<TRIPOS>BOND
    1     1     2    1
    2     1     3    1
    3     1     4    1
    4     1     5    1
    5     5     6    1
    6     5     7    1
    7     5     8    1
    8     8     9    1
    9     8    10    1
   10     8    11    1
   11    11    12    1
   12    11    13    1
   13    11    14    1
   14    14    15    1
   15    14    16    1
   16    14    17    1
   17    17    18    1
   18    17    19    1
   19    17    20    1
   20    20    21    1
   21    20    22    1
   22    20    23    1
@<TRIPOS>SUBSTRUCTURE
       1 MOL1            1 RESIDUE      1      MOL     
@<SCITEGIC>MOL_PROPERTY
VConf Rank
SciTegic.value.IntegerValue
369

@<SCITEGIC>MOL_PROPERTY
Conf_Id
SciTegic.value.IntegerValue
40

@<SCITEGIC>MOL_PROPERTY
Delta U+W
SciTegic.value.DoubleValue
0.000

@<SCITEGIC>MOL_PROPERTY
U+W
SciTegic.value.DoubleValue
-8.382

@<SCITEGIC>MOL_PROPERTY
Grad RMS
SciTegic.value.DoubleValue
0.000000

@<SCITEGIC>MOL_PROPERTY
U
SciTegic.value.DoubleValue
46.604

@<SCITEGIC>MOL_PROPERTY
W
SciTegic.value.DoubleValue
-54.986

@<SCITEGIC>MOL_PROPERTY
W(PB)
SciTegic.value.DoubleValue
-57.162

@<SCITEGIC>MOL_PROPERTY
W(SA)
SciTegic.value.DoubleValue
2.176

@<SCITEGIC>MOL_PROPERTY
Valence
SciTegic.value.DoubleValue
1.727

@<SCITEGIC>MOL_PROPERTY
Coulomb
SciTegic.value.DoubleValue
44.434

@<SCITEGIC>MOL_PROPERTY
VdW
SciTegic.value.DoubleValue
0.443

@<SCITEGIC>MOL_PROPERTY
VdW6
SciTegic.value.DoubleValue
-4.623

@<SCITEGIC>MOL_PROPERTY
VdW12
SciTegic.value.DoubleValue
5.066

@<SCITEGIC>MOL_PROPERTY
Bond
SciTegic.value.DoubleValue
0.112

@<SCITEGIC>MOL_PROPERTY
Angle
SciTegic.value.DoubleValue
0.386

@<SCITEGIC>MOL_PROPERTY
Pdih
SciTegic.value.DoubleValue
1.228

@<SCITEGIC>MOL_PROPERTY
Idih
SciTegic.value.DoubleValue
0.000

@<SCITEGIC>MOL_PROPERTY
Tether
SciTegic.value.DoubleValue
0.000

@<TRIPOS>MOLECULE
guest-2_confgen4.mol2 : confsearch ligand conformer 370
          23          22           1
SMALL
USER_CHARGES
 
@<TRIPOS>ATOM
       1    N1      17.559629   16.993401   24.562560 N.4        1 MOL1        -0.5940
       2    H1      18.018155   16.703807   25.432462 H          1 MOL1         0.3649
       3    H2      17.553711   16.179438   23.939453 H          1 MOL1         0.3649
       4    H3      16.581806   17.197888   24.795106 H          1 MOL1         0.3649
       5    C1      18.248918   18.185078   23.929655 C.3        1 MOL1         0.0207
       6    H4      18.193195   19.020093   24.633256 H          1 MOL1         0.0950
       7    H5      17.690871   18.455420   23.029645 H          1 MOL1         0.0950
       8    C2      19.720908   17.909084   23.568817 C.3        1 MOL1        -0.1415
       9    H6      20.257291   17.592871   24.473389 H          1 MOL1         0.0976
      10    H7      19.777410   17.071218   22.861165 H          1 MOL1         0.0976
      11    C3      20.434125   19.144548   22.970007 C.3        1 MOL1        -0.1375
      12    H8      21.497695   18.901535   22.848660 H          1 MOL1         0.0976
      13    H9      20.384383   19.978132   23.684174 H          1 MOL1         0.0976
      14    C4      19.843108   19.586743   21.607019 C.3        1 MOL1        -0.1375
      15    H10     19.912146   18.759427   20.887294 H          1 MOL1         0.0976
      16    H11     18.773627   19.805888   21.724034 H          1 MOL1         0.0976
      17    C5      20.529262   20.842540   21.016516 C.3        1 MOL1        -0.1350
      18    H12     20.454068   21.676691   21.728089 H          1 MOL1         0.0976
      19    H13     19.978235   21.154851   20.118349 H          1 MOL1         0.0976
      20    C6      22.010067   20.615061   20.635912 C.3        1 MOL1        -0.2365
      21    H14     22.629790   20.423259   21.520453 H          1 MOL1         0.0987
      22    H15     22.418077   21.502299   20.134630 H          1 MOL1         0.0987
      23    H16     22.115520   19.764401   19.950151 H          1 MOL1         0.0987
@<TRIPOS>BOND
    1     1     2    1
    2     1     3    1
    3     1     4    1
    4     1     5    1
    5     5     6    1
    6     5     7    1
    7     5     8    1
    8     8     9    1
    9     8    10    1
   10     8    11    1
   11    11    12    1
   12    11    13    1
   13    11    14    1
   14    14    15    1
   15    14    16    1
   16    14    17    1
   17    17    18    1
   18    17    19    1
   19    17    20    1
   20    20    21    1
   21    20    22    1
   22    20    23    1
@<TRIPOS>SUBSTRUCTURE
       1 MOL1            1 RESIDUE      1      MOL     
@<SCITEGIC>MOL_PROPERTY
VConf Rank
SciTegic.value.IntegerValue
370

@<SCITEGIC>MOL_PROPERTY
Conf_Id
SciTegic.value.IntegerValue
65

@<SCITEGIC>MOL_PROPERTY
Delta U+W
SciTegic.value.DoubleValue
1.004

@<SCITEGIC>MOL_PROPERTY
U+W
SciTegic.value.DoubleValue
-7.378

@<SCITEGIC>MOL_PROPERTY
Grad RMS
SciTegic.value.DoubleValue
0.000000

@<SCITEGIC>MOL_PROPERTY
U
SciTegic.value.DoubleValue
48.047

@<SCITEGIC>MOL_PROPERTY
W
SciTegic.value.DoubleValue
-55.425

@<SCITEGIC>MOL_PROPERTY
W(PB)
SciTegic.value.DoubleValue
-57.542

@<SCITEGIC>MOL_PROPERTY
W(SA)
SciTegic.value.DoubleValue
2.116

@<SCITEGIC>MOL_PROPERTY
Valence
SciTegic.value.DoubleValue
2.583

@<SCITEGIC>MOL_PROPERTY
Coulomb
SciTegic.value.DoubleValue
44.791

@<SCITEGIC>MOL_PROPERTY
VdW
SciTegic.value.DoubleValue
0.673

@<SCITEGIC>MOL_PROPERTY
VdW6
SciTegic.value.DoubleValue
-5.788

@<SCITEGIC>MOL_PROPERTY
VdW12
SciTegic.value.DoubleValue
6.462

@<SCITEGIC>MOL_PROPERTY
Bond
SciTegic.value.DoubleValue
0.177

@<SCITEGIC>MOL_PROPERTY
Angle
SciTegic.value.DoubleValue
0.787

@<SCITEGIC>MOL_PROPERTY
Pdih
SciTegic.value.DoubleValue
1.619

@<SCITEGIC>MOL_PROPERTY
Idih
SciTegic.value.DoubleValue
0.000

@<SCITEGIC>MOL_PROPERTY
Tether
SciTegic.value.DoubleValue
0.000

@<TRIPOS>MOLECULE
guest-2_confgen4.mol2 : confsearch ligand conformer 371
          23          22           1
SMALL
USER_CHARGES
 
@<TRIPOS>ATOM
       1    N1      21.921192   17.728679   25.153894 N.4        1 MOL1        -0.5940
       2    H1      22.392445   18.495094   25.645186 H          1 MOL1         0.3649
       3    H2      22.607863   16.973656   25.051667 H          1 MOL1         0.3649
       4    H3      21.184887   17.379529   25.775813 H          1 MOL1         0.3649
       5    C1      21.367494   18.171296   23.814759 C.3        1 MOL1         0.0207
       6    H4      20.909959   17.300960   23.337585 H          1 MOL1         0.0950
       7    H5      22.205705   18.502496   23.195793 H          1 MOL1         0.0950
       8    C2      20.332400   19.305855   23.935138 C.3        1 MOL1        -0.1415
       9    H6      19.489658   18.973330   24.555782 H          1 MOL1         0.0976
      10    H7      20.792061   20.154839   24.458478 H          1 MOL1         0.0976
      11    C3      19.808240   19.788595   22.561881 C.3        1 MOL1        -0.1375
      12    H8      20.652479   20.129801   21.946894 H          1 MOL1         0.0976
      13    H9      19.169141   20.665581   22.727442 H          1 MOL1         0.0976
      14    C4      19.010481   18.700597   21.798720 C.3        1 MOL1        -0.1375
      15    H10     19.642539   17.814359   21.655230 H          1 MOL1         0.0976
      16    H11     18.154442   18.374742   22.405544 H          1 MOL1         0.0976
      17    C5      18.510582   19.164537   20.408979 C.3        1 MOL1        -0.1350
      18    H12     18.062114   18.304885   19.891536 H          1 MOL1         0.0976
      19    H13     19.364067   19.481887   19.793632 H          1 MOL1         0.0976
      20    C6      17.466516   20.302374   20.477113 C.3        1 MOL1        -0.2365
      21    H14     17.902766   21.227985   20.872321 H          1 MOL1         0.0987
      22    H15     16.617645   20.022004   21.114153 H          1 MOL1         0.0987
      23    H16     17.075215   20.524572   19.475886 H          1 MOL1         0.0987
@<TRIPOS>BOND
    1     1     2    1
    2     1     3    1
    3     1     4    1
    4     1     5    1
    5     5     6    1
    6     5     7    1
    7     5     8    1
    8     8     9    1
    9     8    10    1
   10     8    11    1
   11    11    12    1
   12    11    13    1
   13    11    14    1
   14    14    15    1
   15    14    16    1
   16    14    17    1
   17    17    18    1
   18    17    19    1
   19    17    20    1
   20    20    21    1
   21    20    22    1
   22    20    23    1
@<TRIPOS>SUBSTRUCTURE
       1 MOL1            1 RESIDUE      1      MOL     
@<SCITEGIC>MOL_PROPERTY
VConf Rank
SciTegic.value.IntegerValue
371

@<SCITEGIC>MOL_PROPERTY
Conf_Id
SciTegic.value.IntegerValue
92

@<SCITEGIC>MOL_PROPERTY
Delta U+W
SciTegic.value.DoubleValue
0.973

@<SCITEGIC>MOL_PROPERTY
U+W
SciTegic.value.DoubleValue
-7.409

@<SCITEGIC>MOL_PROPERTY
Grad RMS
SciTegic.value.DoubleValue
0.000000

@<SCITEGIC>MOL_PROPERTY
U
SciTegic.value.DoubleValue
48.047

@<SCITEGIC>MOL_PROPERTY
W
SciTegic.value.DoubleValue
-55.456

@<SCITEGIC>MOL_PROPERTY
W(PB)
SciTegic.value.DoubleValue
-57.595

@<SCITEGIC>MOL_PROPERTY
W(SA)
SciTegic.value.DoubleValue
2.138

@<SCITEGIC>MOL_PROPERTY
Valence
SciTegic.value.DoubleValue
2.583

@<SCITEGIC>MOL_PROPERTY
Coulomb
SciTegic.value.DoubleValue
44.791

@<SCITEGIC>MOL_PROPERTY
VdW
SciTegic.value.DoubleValue
0.674

@<SCITEGIC>MOL_PROPERTY
VdW6
SciTegic.value.DoubleValue
-5.789

@<SCITEGIC>MOL_PROPERTY
VdW12
SciTegic.value.DoubleValue
6.462

@<SCITEGIC>MOL_PROPERTY
Bond
SciTegic.value.DoubleValue
0.177

@<SCITEGIC>MOL_PROPERTY
Angle
SciTegic.value.DoubleValue
0.787

@<SCITEGIC>MOL_PROPERTY
Pdih
SciTegic.value.DoubleValue
1.619

@<SCITEGIC>MOL_PROPERTY
Idih
SciTegic.value.DoubleValue
0.000

@<SCITEGIC>MOL_PROPERTY
Tether
SciTegic.value.DoubleValue
0.000

@<TRIPOS>MOLECULE
guest-2_confgen4.mol2 : confsearch ligand conformer 372
          23          22           1
SMALL
USER_CHARGES
 
@<TRIPOS>ATOM
       1    N1      20.520399   15.695763   21.521924 N.4        1 MOL1        -0.5940
       2    H1      20.588009   15.466803   20.524407 H          1 MOL1         0.3649
       3    H2      19.997891   14.934506   21.967264 H          1 MOL1         0.3649
       4    H3      21.473196   15.668358   21.899104 H          1 MOL1         0.3649
       5    C1      19.861382   17.041366   21.747368 C.3        1 MOL1         0.0207
       6    H4      18.865421   17.009092   21.297437 H          1 MOL1         0.0950
       7    H5      20.452191   17.796087   21.221979 H          1 MOL1         0.0950
       8    C2      19.744871   17.414151   23.237440 C.3        1 MOL1        -0.1415
       9    H6      19.187836   16.626259   23.761735 H          1 MOL1         0.0976
      10    H7      20.745200   17.445729   23.689480 H          1 MOL1         0.0976
      11    C3      19.030224   18.767755   23.461202 C.3        1 MOL1        -0.1375
      12    H8      18.900493   18.923128   24.541239 H          1 MOL1         0.0976
      13    H9      18.020207   18.724396   23.030348 H          1 MOL1         0.0976
      14    C4      19.801921   19.968927   22.863598 C.3        1 MOL1        -0.1375
      15    H10     20.821992   19.989782   23.271567 H          1 MOL1         0.0976
      16    H11     19.896515   19.850986   21.775849 H          1 MOL1         0.0976
      17    C5      19.099447   21.310829   23.167905 C.3        1 MOL1        -0.1350
      18    H12     19.006787   21.443575   24.254989 H          1 MOL1         0.0976
      19    H13     18.078009   21.295172   22.762445 H          1 MOL1         0.0976
      20    C6      19.869146   22.507908   22.570303 C.3        1 MOL1        -0.2365
      21    H14     20.884697   22.569822   22.982673 H          1 MOL1         0.0987
      22    H15     19.355508   23.451191   22.797102 H          1 MOL1         0.0987
      23    H16     19.948056   22.421441   21.478737 H          1 MOL1         0.0987
@<TRIPOS>BOND
    1     1     2    1
    2     1     3    1
    3     1     4    1
    4     1     5    1
    5     5     6    1
    6     5     7    1
    7     5     8    1
    8     8     9    1
    9     8    10    1
   10     8    11    1
   11    11    12    1
   12    11    13    1
   13    11    14    1
   14    14    15    1
   15    14    16    1
   16    14    17    1
   17    17    18    1
   18    17    19    1
   19    17    20    1
   20    20    21    1
   21    20    22    1
   22    20    23    1
@<TRIPOS>SUBSTRUCTURE
       1 MOL1            1 RESIDUE      1      MOL     
@<SCITEGIC>MOL_PROPERTY
VConf Rank
SciTegic.value.IntegerValue
372

@<SCITEGIC>MOL_PROPERTY
Conf_Id
SciTegic.value.IntegerValue
42

@<SCITEGIC>MOL_PROPERTY
Delta U+W
SciTegic.value.DoubleValue
0.365

@<SCITEGIC>MOL_PROPERTY
U+W
SciTegic.value.DoubleValue
-8.017

@<SCITEGIC>MOL_PROPERTY
Grad RMS
SciTegic.value.DoubleValue
0.000000

@<SCITEGIC>MOL_PROPERTY
U
SciTegic.value.DoubleValue
47.375

@<SCITEGIC>MOL_PROPERTY
W
SciTegic.value.DoubleValue
-55.392

@<SCITEGIC>MOL_PROPERTY
W(PB)
SciTegic.value.DoubleValue
-57.543

@<SCITEGIC>MOL_PROPERTY
W(SA)
SciTegic.value.DoubleValue
2.152

@<SCITEGIC>MOL_PROPERTY
Valence
SciTegic.value.DoubleValue
2.032

@<SCITEGIC>MOL_PROPERTY
Coulomb
SciTegic.value.DoubleValue
44.843

@<SCITEGIC>MOL_PROPERTY
VdW
SciTegic.value.DoubleValue
0.499

@<SCITEGIC>MOL_PROPERTY
VdW6
SciTegic.value.DoubleValue
-5.218

@<SCITEGIC>MOL_PROPERTY
VdW12
SciTegic.value.DoubleValue
5.717

@<SCITEGIC>MOL_PROPERTY
Bond
SciTegic.value.DoubleValue
0.135

@<SCITEGIC>MOL_PROPERTY
Angle
SciTegic.value.DoubleValue
0.514

@<SCITEGIC>MOL_PROPERTY
Pdih
SciTegic.value.DoubleValue
1.383

@<SCITEGIC>MOL_PROPERTY
Idih
SciTegic.value.DoubleValue
0.000

@<SCITEGIC>MOL_PROPERTY
Tether
SciTegic.value.DoubleValue
0.000

@<TRIPOS>MOLECULE
guest-2_confgen4.mol2 : confsearch ligand conformer 373
          23          22           1
SMALL
USER_CHARGES
 
@<TRIPOS>ATOM
       1    N1      17.010401   18.472140   24.132066 N.4        1 MOL1        -0.5940
       2    H1      16.586860   18.000691   23.326471 H          1 MOL1         0.3649
       3    H2      16.245160   18.725687   24.766155 H          1 MOL1         0.3649
       4    H3      17.585974   17.779420   24.620181 H          1 MOL1         0.3649
       5    C1      17.819945   19.684472   23.714365 C.3        1 MOL1         0.0207
       6    H4      18.222134   20.152505   24.616922 H          1 MOL1         0.0950
       7    H5      17.133882   20.392127   23.240959 H          1 MOL1         0.0950
       8    C2      18.970020   19.361181   22.740691 C.3        1 MOL1        -0.1415
       9    H6      18.566860   18.866334   21.847249 H          1 MOL1         0.0976
      10    H7      19.406864   20.311701   22.410848 H          1 MOL1         0.0976
      11    C3      20.071537   18.484851   23.385292 C.3        1 MOL1        -0.1375
      12    H8      19.617017   17.579550   23.808581 H          1 MOL1         0.0976
      13    H9      20.518642   19.026034   24.230647 H          1 MOL1         0.0976
      14    C4      21.191046   18.043057   22.407246 C.3        1 MOL1        -0.1375
      15    H10     21.881401   17.396408   22.966479 H          1 MOL1         0.0976
      16    H11     20.770989   17.409461   21.613940 H          1 MOL1         0.0976
      17    C5      22.012691   19.203391   21.788405 C.3        1 MOL1        -0.1350
      18    H12     23.057189   18.876995   21.686126 H          1 MOL1         0.0976
      19    H13     22.031546   20.064907   22.470340 H          1 MOL1         0.0976
      20    C6      21.509841   19.634098   20.390587 C.3        1 MOL1        -0.2365
      21    H14     21.559097   18.797185   19.681920 H          1 MOL1         0.0987
      22    H15     22.133078   20.444733   19.991388 H          1 MOL1         0.0987
      23    H16     20.475080   19.992893   20.416202 H          1 MOL1         0.0987
@<TRIPOS>BOND
    1     1     2    1
    2     1     3    1
    3     1     4    1
    4     1     5    1
    5     5     6    1
    6     5     7    1
    7     5     8    1
    8     8     9    1
    9     8    10    1
   10     8    11    1
   11    11    12    1
   12    11    13    1
   13    11    14    1
   14    14    15    1
   15    14    16    1
   16    14    17    1
   17    17    18    1
   18    17    19    1
   19    17    20    1
   20    20    21    1
   21    20    22    1
   22    20    23    1
@<TRIPOS>SUBSTRUCTURE
       1 MOL1            1 RESIDUE      1      MOL     
@<SCITEGIC>MOL_PROPERTY
VConf Rank
SciTegic.value.IntegerValue
373

@<SCITEGIC>MOL_PROPERTY
Conf_Id
SciTegic.value.IntegerValue
3

@<SCITEGIC>MOL_PROPERTY
Delta U+W
SciTegic.value.DoubleValue
3.283

@<SCITEGIC>MOL_PROPERTY
U+W
SciTegic.value.DoubleValue
-5.099

@<SCITEGIC>MOL_PROPERTY
Grad RMS
SciTegic.value.DoubleValue
0.000000

@<SCITEGIC>MOL_PROPERTY
U
SciTegic.value.DoubleValue
50.701

@<SCITEGIC>MOL_PROPERTY
W
SciTegic.value.DoubleValue
-55.800

@<SCITEGIC>MOL_PROPERTY
W(PB)
SciTegic.value.DoubleValue
-57.867

@<SCITEGIC>MOL_PROPERTY
W(SA)
SciTegic.value.DoubleValue
2.067

@<SCITEGIC>MOL_PROPERTY
Valence
SciTegic.value.DoubleValue
4.880

@<SCITEGIC>MOL_PROPERTY
Coulomb
SciTegic.value.DoubleValue
45.095

@<SCITEGIC>MOL_PROPERTY
VdW
SciTegic.value.DoubleValue
0.726

@<SCITEGIC>MOL_PROPERTY
VdW6
SciTegic.value.DoubleValue
-6.620

@<SCITEGIC>MOL_PROPERTY
VdW12
SciTegic.value.DoubleValue
7.346

@<SCITEGIC>MOL_PROPERTY
Bond
SciTegic.value.DoubleValue
0.222

@<SCITEGIC>MOL_PROPERTY
Angle
SciTegic.value.DoubleValue
1.260

@<SCITEGIC>MOL_PROPERTY
Pdih
SciTegic.value.DoubleValue
3.398

@<SCITEGIC>MOL_PROPERTY
Idih
SciTegic.value.DoubleValue
0.000

@<SCITEGIC>MOL_PROPERTY
Tether
SciTegic.value.DoubleValue
0.000

@<TRIPOS>MOLECULE
guest-2_confgen4.mol2 : confsearch ligand conformer 374
          23          22           1
SMALL
USER_CHARGES
 
@<TRIPOS>ATOM
       1    N1      17.952993   19.639747   24.754650 N.4        1 MOL1        -0.5940
       2    H1      18.179896   20.497591   25.267652 H          1 MOL1         0.3649
       3    H2      17.089365   19.266462   25.162866 H          1 MOL1         0.3649
       4    H3      17.737374   19.910913   23.790504 H          1 MOL1         0.3649
       5    C1      19.084836   18.632850   24.812797 C.3        1 MOL1         0.0207
       6    H4      18.768040   17.735044   24.276070 H          1 MOL1         0.0950
       7    H5      19.236979   18.363702   25.861577 H          1 MOL1         0.0950
       8    C2      20.410471   19.155186   24.221922 C.3        1 MOL1        -0.1415
       9    H6      20.742783   20.025560   24.803147 H          1 MOL1         0.0976
      10    H7      21.182847   18.386079   24.355223 H          1 MOL1         0.0976
      11    C3      20.329022   19.542348   22.723550 C.3        1 MOL1        -0.1375
      12    H8      21.307787   19.936350   22.420802 H          1 MOL1         0.0976
      13    H9      19.613588   20.364242   22.587930 H          1 MOL1         0.0976
      14    C4      19.942843   18.353916   21.806532 C.3        1 MOL1        -0.1375
      15    H10     20.675282   17.543263   21.922915 H          1 MOL1         0.0976
      16    H11     18.975198   17.943649   22.123862 H          1 MOL1         0.0976
      17    C5      19.833579   18.739741   20.311324 C.3        1 MOL1        -0.1350
      18    H12     19.094026   19.543119   20.187342 H          1 MOL1         0.0976
      19    H13     19.445241   17.876462   19.752928 H          1 MOL1         0.0976
      20    C6      21.179636   19.170529   19.685305 C.3        1 MOL1        -0.2365
      21    H14     21.945957   18.397153   19.825479 H          1 MOL1         0.0987
      22    H15     21.549071   20.105127   20.124954 H          1 MOL1         0.0987
      23    H16     21.065145   19.337335   18.606416 H          1 MOL1         0.0987
@<TRIPOS>BOND
    1     1     2    1
    2     1     3    1
    3     1     4    1
    4     1     5    1
    5     5     6    1
    6     5     7    1
    7     5     8    1
    8     8     9    1
    9     8    10    1
   10     8    11    1
   11    11    12    1
   12    11    13    1
   13    11    14    1
   14    14    15    1
   15    14    16    1
   16    14    17    1
   17    17    18    1
   18    17    19    1
   19    17    20    1
   20    20    21    1
   21    20    22    1
   22    20    23    1
@<TRIPOS>SUBSTRUCTURE
       1 MOL1            1 RESIDUE      1      MOL     
@<SCITEGIC>MOL_PROPERTY
VConf Rank
SciTegic.value.IntegerValue
374

@<SCITEGIC>MOL_PROPERTY
Conf_Id
SciTegic.value.IntegerValue
83

@<SCITEGIC>MOL_PROPERTY
Delta U+W
SciTegic.value.DoubleValue
1.229

@<SCITEGIC>MOL_PROPERTY
U+W
SciTegic.value.DoubleValue
-7.154

@<SCITEGIC>MOL_PROPERTY
Grad RMS
SciTegic.value.DoubleValue
0.000000

@<SCITEGIC>MOL_PROPERTY
U
SciTegic.value.DoubleValue
48.727

@<SCITEGIC>MOL_PROPERTY
W
SciTegic.value.DoubleValue
-55.880

@<SCITEGIC>MOL_PROPERTY
W(PB)
SciTegic.value.DoubleValue
-57.960

@<SCITEGIC>MOL_PROPERTY
W(SA)
SciTegic.value.DoubleValue
2.080

@<SCITEGIC>MOL_PROPERTY
Valence
SciTegic.value.DoubleValue
2.671

@<SCITEGIC>MOL_PROPERTY
Coulomb
SciTegic.value.DoubleValue
45.371

@<SCITEGIC>MOL_PROPERTY
VdW
SciTegic.value.DoubleValue
0.684

@<SCITEGIC>MOL_PROPERTY
VdW6
SciTegic.value.DoubleValue
-6.511

@<SCITEGIC>MOL_PROPERTY
VdW12
SciTegic.value.DoubleValue
7.195

@<SCITEGIC>MOL_PROPERTY
Bond
SciTegic.value.DoubleValue
0.203

@<SCITEGIC>MOL_PROPERTY
Angle
SciTegic.value.DoubleValue
0.915

@<SCITEGIC>MOL_PROPERTY
Pdih
SciTegic.value.DoubleValue
1.554

@<SCITEGIC>MOL_PROPERTY
Idih
SciTegic.value.DoubleValue
0.000

@<SCITEGIC>MOL_PROPERTY
Tether
SciTegic.value.DoubleValue
0.000

@<TRIPOS>MOLECULE
guest-2_confgen4.mol2 : confsearch ligand conformer 375
          23          22           1
SMALL
USER_CHARGES
 
@<TRIPOS>ATOM
       1    N1      21.383214   16.705701   22.057725 N.4        1 MOL1        -0.5940
       2    H1      22.378153   16.930381   21.956886 H          1 MOL1         0.3649
       3    H2      20.886241   17.182065   21.298979 H          1 MOL1         0.3649
       4    H3      21.286046   15.697735   21.895252 H          1 MOL1         0.3649
       5    C1      20.849374   17.111323   23.417423 C.3        1 MOL1         0.0207
       6    H4      21.397814   16.542564   24.173236 H          1 MOL1         0.0950
       7    H5      19.798000   16.817570   23.470449 H          1 MOL1         0.0950
       8    C2      20.986881   18.618954   23.713089 C.3        1 MOL1        -0.1415
       9    H6      20.628203   18.812106   24.732845 H          1 MOL1         0.0976
      10    H7      22.051258   18.888909   23.707561 H          1 MOL1         0.0976
      11    C3      20.222907   19.532833   22.721718 C.3        1 MOL1        -0.1375
      12    H8      20.625117   19.403847   21.708141 H          1 MOL1         0.0976
      13    H9      20.422119   20.576087   22.998864 H          1 MOL1         0.0976
      14    C4      18.693438   19.281609   22.715155 C.3        1 MOL1        -0.1375
      15    H10     18.494059   18.232128   22.461791 H          1 MOL1         0.0976
      16    H11     18.288200   19.438194   23.724329 H          1 MOL1         0.0976
      17    C5      17.927157   20.172630   21.707516 C.3        1 MOL1        -0.1350
      18    H12     16.876388   19.851508   21.682483 H          1 MOL1         0.0976
      19    H13     18.321153   20.012178   20.694229 H          1 MOL1         0.0976
      20    C6      17.977447   21.678458   22.052912 C.3        1 MOL1        -0.2365
      21    H14     17.619321   21.861633   23.074284 H          1 MOL1         0.0987
      22    H15     17.340308   22.251076   21.366546 H          1 MOL1         0.0987
      23    H16     18.995141   22.078827   21.967794 H          1 MOL1         0.0987
@<TRIPOS>BOND
    1     1     2    1
    2     1     3    1
    3     1     4    1
    4     1     5    1
    5     5     6    1
    6     5     7    1
    7     5     8    1
    8     8     9    1
    9     8    10    1
   10     8    11    1
   11    11    12    1
   12    11    13    1
   13    11    14    1
   14    14    15    1
   15    14    16    1
   16    14    17    1
   17    17    18    1
   18    17    19    1
   19    17    20    1
   20    20    21    1
   21    20    22    1
   22    20    23    1
@<TRIPOS>SUBSTRUCTURE
       1 MOL1            1 RESIDUE      1      MOL     
@<SCITEGIC>MOL_PROPERTY
VConf Rank
SciTegic.value.IntegerValue
375

@<SCITEGIC>MOL_PROPERTY
Conf_Id
SciTegic.value.IntegerValue
50

@<SCITEGIC>MOL_PROPERTY
Delta U+W
SciTegic.value.DoubleValue
1.252

@<SCITEGIC>MOL_PROPERTY
U+W
SciTegic.value.DoubleValue
-7.130

@<SCITEGIC>MOL_PROPERTY
Grad RMS
SciTegic.value.DoubleValue
0.000000

@<SCITEGIC>MOL_PROPERTY
U
SciTegic.value.DoubleValue
48.727

@<SCITEGIC>MOL_PROPERTY
W
SciTegic.value.DoubleValue
-55.857

@<SCITEGIC>MOL_PROPERTY
W(PB)
SciTegic.value.DoubleValue
-57.937

@<SCITEGIC>MOL_PROPERTY
W(SA)
SciTegic.value.DoubleValue
2.080

@<SCITEGIC>MOL_PROPERTY
Valence
SciTegic.value.DoubleValue
2.671

@<SCITEGIC>MOL_PROPERTY
Coulomb
SciTegic.value.DoubleValue
45.371

@<SCITEGIC>MOL_PROPERTY
VdW
SciTegic.value.DoubleValue
0.684

@<SCITEGIC>MOL_PROPERTY
VdW6
SciTegic.value.DoubleValue
-6.511

@<SCITEGIC>MOL_PROPERTY
VdW12
SciTegic.value.DoubleValue
7.196

@<SCITEGIC>MOL_PROPERTY
Bond
SciTegic.value.DoubleValue
0.203

@<SCITEGIC>MOL_PROPERTY
Angle
SciTegic.value.DoubleValue
0.915

@<SCITEGIC>MOL_PROPERTY
Pdih
SciTegic.value.DoubleValue
1.554

@<SCITEGIC>MOL_PROPERTY
Idih
SciTegic.value.DoubleValue
0.000

@<SCITEGIC>MOL_PROPERTY
Tether
SciTegic.value.DoubleValue
0.000

@<TRIPOS>MOLECULE
guest-2_confgen4.mol2 : confsearch ligand conformer 376
          23          22           1
SMALL
USER_CHARGES
 
@<TRIPOS>ATOM
       1    N1      17.423276   21.088823   23.218542 N.4        1 MOL1        -0.5940
       2    H1      18.212617   21.517949   23.710808 H          1 MOL1         0.3649
       3    H2      16.581715   21.290088   23.769174 H          1 MOL1         0.3649
       4    H3      17.320032   21.580013   22.324842 H          1 MOL1         0.3649
       5    C1      17.624794   19.598725   23.022996 C.3        1 MOL1         0.0207
       6    H4      16.730730   19.205210   22.531702 H          1 MOL1         0.0950
       7    H5      17.703165   19.134479   24.009782 H          1 MOL1         0.0950
       8    C2      18.866993   19.243515   22.183039 C.3        1 MOL1        -0.1415
       9    H6      18.863671   18.162022   22.006896 H          1 MOL1         0.0976
      10    H7      18.786043   19.716128   21.195187 H          1 MOL1         0.0976
      11    C3      20.191396   19.672231   22.864828 C.3        1 MOL1        -0.1375
      12    H8      20.237575   19.281284   23.890685 H          1 MOL1         0.0976
      13    H9      20.198661   20.766648   22.955304 H          1 MOL1         0.0976
      14    C4      21.456299   19.244148   22.075607 C.3        1 MOL1        -0.1375
      15    H10     21.236889   19.195280   21.000124 H          1 MOL1         0.0976
      16    H11     22.212752   20.033341   22.187172 H          1 MOL1         0.0976
      17    C5      22.097293   17.914773   22.550048 C.3        1 MOL1        -0.1350
      18    H12     22.406231   18.009162   23.600487 H          1 MOL1         0.0976
      19    H13     23.019594   17.748271   21.976069 H          1 MOL1         0.0976
      20    C6      21.186919   16.677146   22.393429 C.3        1 MOL1        -0.2365
      21    H14     20.813266   16.587567   21.365229 H          1 MOL1         0.0987
      22    H15     20.328911   16.724502   23.075232 H          1 MOL1         0.0987
      23    H16     21.742415   15.760342   22.629613 H          1 MOL1         0.0987
@<TRIPOS>BOND
    1     1     2    1
    2     1     3    1
    3     1     4    1
    4     1     5    1
    5     5     6    1
    6     5     7    1
    7     5     8    1
    8     8     9    1
    9     8    10    1
   10     8    11    1
   11    11    12    1
   12    11    13    1
   13    11    14    1
   14    14    15    1
   15    14    16    1
   16    14    17    1
   17    17    18    1
   18    17    19    1
   19    17    20    1
   20    20    21    1
   21    20    22    1
   22    20    23    1
@<TRIPOS>SUBSTRUCTURE
       1 MOL1            1 RESIDUE      1      MOL     
@<SCITEGIC>MOL_PROPERTY
VConf Rank
SciTegic.value.IntegerValue
376

@<SCITEGIC>MOL_PROPERTY
Conf_Id
SciTegic.value.IntegerValue
55

@<SCITEGIC>MOL_PROPERTY
Delta U+W
SciTegic.value.DoubleValue
3.232

@<SCITEGIC>MOL_PROPERTY
U+W
SciTegic.value.DoubleValue
-5.150

@<SCITEGIC>MOL_PROPERTY
Grad RMS
SciTegic.value.DoubleValue
0.000000

@<SCITEGIC>MOL_PROPERTY
U
SciTegic.value.DoubleValue
50.625

@<SCITEGIC>MOL_PROPERTY
W
SciTegic.value.DoubleValue
-55.776

@<SCITEGIC>MOL_PROPERTY
W(PB)
SciTegic.value.DoubleValue
-57.839

@<SCITEGIC>MOL_PROPERTY
W(SA)
SciTegic.value.DoubleValue
2.064

@<SCITEGIC>MOL_PROPERTY
Valence
SciTegic.value.DoubleValue
4.837

@<SCITEGIC>MOL_PROPERTY
Coulomb
SciTegic.value.DoubleValue
45.097

@<SCITEGIC>MOL_PROPERTY
VdW
SciTegic.value.DoubleValue
0.692

@<SCITEGIC>MOL_PROPERTY
VdW6
SciTegic.value.DoubleValue
-6.655

@<SCITEGIC>MOL_PROPERTY
VdW12
SciTegic.value.DoubleValue
7.347

@<SCITEGIC>MOL_PROPERTY
Bond
SciTegic.value.DoubleValue
0.223

@<SCITEGIC>MOL_PROPERTY
Angle
SciTegic.value.DoubleValue
1.167

@<SCITEGIC>MOL_PROPERTY
Pdih
SciTegic.value.DoubleValue
3.447

@<SCITEGIC>MOL_PROPERTY
Idih
SciTegic.value.DoubleValue
0.000

@<SCITEGIC>MOL_PROPERTY
Tether
SciTegic.value.DoubleValue
0.000

@<TRIPOS>MOLECULE
guest-2_confgen4.mol2 : confsearch ligand conformer 377
          23          22           1
SMALL
USER_CHARGES
 
@<TRIPOS>ATOM
       1    N1      19.253362   20.957108   24.998086 N.4        1 MOL1        -0.5940
       2    H1      18.406234   20.874742   25.569416 H          1 MOL1         0.3649
       3    H2      19.469489   21.957350   24.928779 H          1 MOL1         0.3649
       4    H3      20.016756   20.523074   25.526858 H          1 MOL1         0.3649
       5    C1      19.078326   20.322786   23.633298 C.3        1 MOL1         0.0207
       6    H4      20.000961   20.480180   23.071772 H          1 MOL1         0.0950
       7    H5      18.271704   20.851334   23.118128 H          1 MOL1         0.0950
       8    C2      18.745441   18.819555   23.705898 C.3        1 MOL1        -0.1415
       9    H6      19.524968   18.281839   24.261832 H          1 MOL1         0.0976
      10    H7      17.817927   18.703899   24.282404 H          1 MOL1         0.0976
      11    C3      18.542968   18.173381   22.312008 C.3        1 MOL1        -0.1375
      12    H8      18.029805   18.877072   21.641869 H          1 MOL1         0.0976
      13    H9      17.859242   17.320852   22.426956 H          1 MOL1         0.0976
      14    C4      19.837933   17.646043   21.640851 C.3        1 MOL1        -0.1375
      15    H10     20.286427   16.866970   22.272666 H          1 MOL1         0.0976
      16    H11     19.558016   17.151191   20.700527 H          1 MOL1         0.0976
      17    C5      20.895422   18.732782   21.338828 C.3        1 MOL1        -0.1350
      18    H12     21.301977   19.130085   22.277858 H          1 MOL1         0.0976
      19    H13     20.427648   19.571599   20.804739 H          1 MOL1         0.0976
      20    C6      22.060485   18.174168   20.494282 C.3        1 MOL1        -0.2365
      21    H14     21.703244   17.800295   19.525874 H          1 MOL1         0.0987
      22    H15     22.564698   17.349261   21.014424 H          1 MOL1         0.0987
      23    H16     22.806606   18.955220   20.298597 H          1 MOL1         0.0987
@<TRIPOS>BOND
    1     1     2    1
    2     1     3    1
    3     1     4    1
    4     1     5    1
    5     5     6    1
    6     5     7    1
    7     5     8    1
    8     8     9    1
    9     8    10    1
   10     8    11    1
   11    11    12    1
   12    11    13    1
   13    11    14    1
   14    14    15    1
   15    14    16    1
   16    14    17    1
   17    17    18    1
   18    17    19    1
   19    17    20    1
   20    20    21    1
   21    20    22    1
   22    20    23    1
@<TRIPOS>SUBSTRUCTURE
       1 MOL1            1 RESIDUE      1      MOL     
@<SCITEGIC>MOL_PROPERTY
VConf Rank
SciTegic.value.IntegerValue
377

@<SCITEGIC>MOL_PROPERTY
Conf_Id
SciTegic.value.IntegerValue
93

@<SCITEGIC>MOL_PROPERTY
Delta U+W
SciTegic.value.DoubleValue
2.589

@<SCITEGIC>MOL_PROPERTY
U+W
SciTegic.value.DoubleValue
-5.793

@<SCITEGIC>MOL_PROPERTY
Grad RMS
SciTegic.value.DoubleValue
0.000000

@<SCITEGIC>MOL_PROPERTY
U
SciTegic.value.DoubleValue
50.122

@<SCITEGIC>MOL_PROPERTY
W
SciTegic.value.DoubleValue
-55.915

@<SCITEGIC>MOL_PROPERTY
W(PB)
SciTegic.value.DoubleValue
-58.031

@<SCITEGIC>MOL_PROPERTY
W(SA)
SciTegic.value.DoubleValue
2.115

@<SCITEGIC>MOL_PROPERTY
Valence
SciTegic.value.DoubleValue
4.132

@<SCITEGIC>MOL_PROPERTY
Coulomb
SciTegic.value.DoubleValue
45.536

@<SCITEGIC>MOL_PROPERTY
VdW
SciTegic.value.DoubleValue
0.454

@<SCITEGIC>MOL_PROPERTY
VdW6
SciTegic.value.DoubleValue
-6.262

@<SCITEGIC>MOL_PROPERTY
VdW12
SciTegic.value.DoubleValue
6.715

@<SCITEGIC>MOL_PROPERTY
Bond
SciTegic.value.DoubleValue
0.182

@<SCITEGIC>MOL_PROPERTY
Angle
SciTegic.value.DoubleValue
1.157

@<SCITEGIC>MOL_PROPERTY
Pdih
SciTegic.value.DoubleValue
2.794

@<SCITEGIC>MOL_PROPERTY
Idih
SciTegic.value.DoubleValue
0.000

@<SCITEGIC>MOL_PROPERTY
Tether
SciTegic.value.DoubleValue
0.000

@<TRIPOS>MOLECULE
guest-2_confgen4.mol2 : confsearch ligand conformer 378
          23          22           1
SMALL
USER_CHARGES
 
@<TRIPOS>ATOM
       1    N1      20.709603   17.273206   20.152606 N.4        1 MOL1        -0.5940
       2    H1      20.887508   18.140106   19.635314 H          1 MOL1         0.3649
       3    H2      20.050404   16.721726   19.592850 H          1 MOL1         0.3649
       4    H3      21.590731   16.749838   20.175588 H          1 MOL1         0.3649
       5    C1      20.176956   17.544294   21.544886 C.3        1 MOL1         0.0207
       6    H4      19.984076   16.580778   22.024294 H          1 MOL1         0.0950
       7    H5      19.225531   18.069110   21.441451 H          1 MOL1         0.0950
       8    C2      21.150231   18.366042   22.412789 C.3        1 MOL1        -0.1415
       9    H6      22.093782   17.808986   22.486405 H          1 MOL1         0.0976
      10    H7      21.390045   19.318228   21.921165 H          1 MOL1         0.0976
      11    C3      20.617887   18.624881   23.844946 C.3        1 MOL1        -0.1375
      12    H8      21.481504   18.741750   24.514278 H          1 MOL1         0.0976
      13    H9      20.076438   17.741312   24.210657 H          1 MOL1         0.0976
      14    C4      19.735369   19.891288   23.996105 C.3        1 MOL1        -0.1375
      15    H10     19.481046   20.005366   25.059000 H          1 MOL1         0.0976
      16    H11     20.322003   20.780426   23.726688 H          1 MOL1         0.0976
      17    C5      18.429408   19.868835   23.168782 C.3        1 MOL1        -0.1350
      18    H12     17.890576   18.927594   23.345989 H          1 MOL1         0.0976
      19    H13     18.664639   19.913297   22.097519 H          1 MOL1         0.0976
      20    C6      17.511382   21.058463   23.521907 C.3        1 MOL1        -0.2365
      21    H14     16.594846   21.033236   22.918288 H          1 MOL1         0.0987
      22    H15     18.014484   22.015335   23.330768 H          1 MOL1         0.0987
      23    H16     17.218249   21.031503   24.579527 H          1 MOL1         0.0987
@<TRIPOS>BOND
    1     1     2    1
    2     1     3    1
    3     1     4    1
    4     1     5    1
    5     5     6    1
    6     5     7    1
    7     5     8    1
    8     8     9    1
    9     8    10    1
   10     8    11    1
   11    11    12    1
   12    11    13    1
   13    11    14    1
   14    14    15    1
   15    14    16    1
   16    14    17    1
   17    17    18    1
   18    17    19    1
   19    17    20    1
   20    20    21    1
   21    20    22    1
   22    20    23    1
@<TRIPOS>SUBSTRUCTURE
       1 MOL1            1 RESIDUE      1      MOL     
@<SCITEGIC>MOL_PROPERTY
VConf Rank
SciTegic.value.IntegerValue
378

@<SCITEGIC>MOL_PROPERTY
Conf_Id
SciTegic.value.IntegerValue
70

@<SCITEGIC>MOL_PROPERTY
Delta U+W
SciTegic.value.DoubleValue
2.599

@<SCITEGIC>MOL_PROPERTY
U+W
SciTegic.value.DoubleValue
-5.783

@<SCITEGIC>MOL_PROPERTY
Grad RMS
SciTegic.value.DoubleValue
0.000000

@<SCITEGIC>MOL_PROPERTY
U
SciTegic.value.DoubleValue
50.122

@<SCITEGIC>MOL_PROPERTY
W
SciTegic.value.DoubleValue
-55.906

@<SCITEGIC>MOL_PROPERTY
W(PB)
SciTegic.value.DoubleValue
-58.010

@<SCITEGIC>MOL_PROPERTY
W(SA)
SciTegic.value.DoubleValue
2.105

@<SCITEGIC>MOL_PROPERTY
Valence
SciTegic.value.DoubleValue
4.132

@<SCITEGIC>MOL_PROPERTY
Coulomb
SciTegic.value.DoubleValue
45.536

@<SCITEGIC>MOL_PROPERTY
VdW
SciTegic.value.DoubleValue
0.454

@<SCITEGIC>MOL_PROPERTY
VdW6
SciTegic.value.DoubleValue
-6.262

@<SCITEGIC>MOL_PROPERTY
VdW12
SciTegic.value.DoubleValue
6.715

@<SCITEGIC>MOL_PROPERTY
Bond
SciTegic.value.DoubleValue
0.182

@<SCITEGIC>MOL_PROPERTY
Angle
SciTegic.value.DoubleValue
1.157

@<SCITEGIC>MOL_PROPERTY
Pdih
SciTegic.value.DoubleValue
2.794

@<SCITEGIC>MOL_PROPERTY
Idih
SciTegic.value.DoubleValue
0.000

@<SCITEGIC>MOL_PROPERTY
Tether
SciTegic.value.DoubleValue
0.000

@<TRIPOS>MOLECULE
guest-2_confgen4.mol2 : confsearch ligand conformer 379
          23          22           1
SMALL
USER_CHARGES
 
@<TRIPOS>ATOM
       1    N1      19.718384   16.644513   24.197190 N.4        1 MOL1        -0.5940
       2    H1      18.945786   15.971017   24.198981 H          1 MOL1         0.3649
       3    H2      20.310018   16.423448   25.005189 H          1 MOL1         0.3649
       4    H3      20.275866   16.463636   23.356974 H          1 MOL1         0.3649
       5    C1      19.218031   18.074937   24.239271 C.3        1 MOL1         0.0207
       6    H4      20.086648   18.737919   24.269348 H          1 MOL1         0.0950
       7    H5      18.659102   18.205070   25.169948 H          1 MOL1         0.0950
       8    C2      18.318312   18.450236   23.044517 C.3        1 MOL1        -0.1415
       9    H6      17.432569   17.801256   23.044432 H          1 MOL1         0.0976
      10    H7      17.941100   19.470244   23.191856 H          1 MOL1         0.0976
      11    C3      19.024791   18.348501   21.667003 C.3        1 MOL1        -0.1375
      12    H8      18.323740   18.671386   20.885034 H          1 MOL1         0.0976
      13    H9      19.245424   17.294658   21.450280 H          1 MOL1         0.0976
      14    C4      20.334384   19.169642   21.542529 C.3        1 MOL1        -0.1375
      15    H10     21.082262   18.796940   22.255034 H          1 MOL1         0.0976
      16    H11     20.757082   18.997623   20.542993 H          1 MOL1         0.0976
      17    C5      20.132526   20.689595   21.747201 C.3        1 MOL1        -0.1350
      18    H12     19.776891   20.890686   22.766526 H          1 MOL1         0.0976
      19    H13     19.356864   21.056587   21.060632 H          1 MOL1         0.0976
      20    C6      21.440019   21.474570   21.509172 C.3        1 MOL1        -0.2365
      21    H14     21.279641   22.549867   21.660923 H          1 MOL1         0.0987
      22    H15     21.806593   21.330327   20.484472 H          1 MOL1         0.0987
      23    H16     22.226782   21.150098   22.202660 H          1 MOL1         0.0987
@<TRIPOS>BOND
    1     1     2    1
    2     1     3    1
    3     1     4    1
    4     1     5    1
    5     5     6    1
    6     5     7    1
    7     5     8    1
    8     8     9    1
    9     8    10    1
   10     8    11    1
   11    11    12    1
   12    11    13    1
   13    11    14    1
   14    14    15    1
   15    14    16    1
   16    14    17    1
   17    17    18    1
   18    17    19    1
   19    17    20    1
   20    20    21    1
   21    20    22    1
   22    20    23    1
@<TRIPOS>SUBSTRUCTURE
       1 MOL1            1 RESIDUE      1      MOL     
@<SCITEGIC>MOL_PROPERTY
VConf Rank
SciTegic.value.IntegerValue
379

@<SCITEGIC>MOL_PROPERTY
Conf_Id
SciTegic.value.IntegerValue
72

@<SCITEGIC>MOL_PROPERTY
Delta U+W
SciTegic.value.DoubleValue
1.051

@<SCITEGIC>MOL_PROPERTY
U+W
SciTegic.value.DoubleValue
-7.331

@<SCITEGIC>MOL_PROPERTY
Grad RMS
SciTegic.value.DoubleValue
0.000000

@<SCITEGIC>MOL_PROPERTY
U
SciTegic.value.DoubleValue
48.590

@<SCITEGIC>MOL_PROPERTY
W
SciTegic.value.DoubleValue
-55.922

@<SCITEGIC>MOL_PROPERTY
W(PB)
SciTegic.value.DoubleValue
-58.012

@<SCITEGIC>MOL_PROPERTY
W(SA)
SciTegic.value.DoubleValue
2.090

@<SCITEGIC>MOL_PROPERTY
Valence
SciTegic.value.DoubleValue
2.601

@<SCITEGIC>MOL_PROPERTY
Coulomb
SciTegic.value.DoubleValue
45.520

@<SCITEGIC>MOL_PROPERTY
VdW
SciTegic.value.DoubleValue
0.469

@<SCITEGIC>MOL_PROPERTY
VdW6
SciTegic.value.DoubleValue
-6.867

@<SCITEGIC>MOL_PROPERTY
VdW12
SciTegic.value.DoubleValue
7.336

@<SCITEGIC>MOL_PROPERTY
Bond
SciTegic.value.DoubleValue
0.205

@<SCITEGIC>MOL_PROPERTY
Angle
SciTegic.value.DoubleValue
0.962

@<SCITEGIC>MOL_PROPERTY
Pdih
SciTegic.value.DoubleValue
1.434

@<SCITEGIC>MOL_PROPERTY
Idih
SciTegic.value.DoubleValue
0.000

@<SCITEGIC>MOL_PROPERTY
Tether
SciTegic.value.DoubleValue
0.000

@<TRIPOS>MOLECULE
guest-2_confgen4.mol2 : confsearch ligand conformer 380
          23          22           1
SMALL
USER_CHARGES
 
@<TRIPOS>ATOM
       1    N1      16.852916   18.087525   23.419534 N.4        1 MOL1        -0.5940
       2    H1      16.257938   17.345823   23.035040 H          1 MOL1         0.3649
       3    H2      16.230707   18.851444   23.702496 H          1 MOL1         0.3649
       4    H3      17.280116   17.714493   24.273355 H          1 MOL1         0.3649
       5    C1      17.894623   18.548104   22.420359 C.3        1 MOL1         0.0207
       6    H4      17.372902   18.904700   21.528173 H          1 MOL1         0.0950
       7    H5      18.499527   17.681193   22.141990 H          1 MOL1         0.0950
       8    C2      18.805547   19.662712   22.967793 C.3        1 MOL1        -0.1415
       9    H6      18.184954   20.513470   23.278927 H          1 MOL1         0.0976
      10    H7      19.319964   19.310275   23.870896 H          1 MOL1         0.0976
      11    C3      19.841052   20.153923   21.925919 C.3        1 MOL1        -0.1375
      12    H8      20.441410   20.959754   22.368815 H          1 MOL1         0.0976
      13    H9      19.305865   20.612902   21.083170 H          1 MOL1         0.0976
      14    C4      20.782087   19.050040   21.372155 C.3        1 MOL1        -0.1375
      15    H10     20.194870   18.330121   20.786326 H          1 MOL1         0.0976
      16    H11     21.480319   19.509964   20.659335 H          1 MOL1         0.0976
      17    C5      21.596242   18.279620   22.442587 C.3        1 MOL1        -0.1350
      18    H12     22.210954   17.522054   21.936708 H          1 MOL1         0.0976
      19    H13     20.920620   17.723752   23.106412 H          1 MOL1         0.0976
      20    C6      22.520539   19.190136   23.282321 C.3        1 MOL1        -0.2365
      21    H14     23.197555   19.766161   22.638283 H          1 MOL1         0.0987
      22    H15     23.135942   18.589343   23.964353 H          1 MOL1         0.0987
      23    H16     21.943516   19.895835   23.892723 H          1 MOL1         0.0987
@<TRIPOS>BOND
    1     1     2    1
    2     1     3    1
    3     1     4    1
    4     1     5    1
    5     5     6    1
    6     5     7    1
    7     5     8    1
    8     8     9    1
    9     8    10    1
   10     8    11    1
   11    11    12    1
   12    11    13    1
   13    11    14    1
   14    14    15    1
   15    14    16    1
   16    14    17    1
   17    17    18    1
   18    17    19    1
   19    17    20    1
   20    20    21    1
   21    20    22    1
   22    20    23    1
@<TRIPOS>SUBSTRUCTURE
       1 MOL1            1 RESIDUE      1      MOL     
@<SCITEGIC>MOL_PROPERTY
VConf Rank
SciTegic.value.IntegerValue
380

@<SCITEGIC>MOL_PROPERTY
Conf_Id
SciTegic.value.IntegerValue
26

@<SCITEGIC>MOL_PROPERTY
Delta U+W
SciTegic.value.DoubleValue
1.076

@<SCITEGIC>MOL_PROPERTY
U+W
SciTegic.value.DoubleValue
-7.306

@<SCITEGIC>MOL_PROPERTY
Grad RMS
SciTegic.value.DoubleValue
0.000000

@<SCITEGIC>MOL_PROPERTY
U
SciTegic.value.DoubleValue
48.641

@<SCITEGIC>MOL_PROPERTY
W
SciTegic.value.DoubleValue
-55.947

@<SCITEGIC>MOL_PROPERTY
W(PB)
SciTegic.value.DoubleValue
-58.031

@<SCITEGIC>MOL_PROPERTY
W(SA)
SciTegic.value.DoubleValue
2.084

@<SCITEGIC>MOL_PROPERTY
Valence
SciTegic.value.DoubleValue
2.922

@<SCITEGIC>MOL_PROPERTY
Coulomb
SciTegic.value.DoubleValue
45.269

@<SCITEGIC>MOL_PROPERTY
VdW
SciTegic.value.DoubleValue
0.449

@<SCITEGIC>MOL_PROPERTY
VdW6
SciTegic.value.DoubleValue
-7.045

@<SCITEGIC>MOL_PROPERTY
VdW12
SciTegic.value.DoubleValue
7.494

@<SCITEGIC>MOL_PROPERTY
Bond
SciTegic.value.DoubleValue
0.220

@<SCITEGIC>MOL_PROPERTY
Angle
SciTegic.value.DoubleValue
1.205

@<SCITEGIC>MOL_PROPERTY
Pdih
SciTegic.value.DoubleValue
1.497

@<SCITEGIC>MOL_PROPERTY
Idih
SciTegic.value.DoubleValue
0.000

@<SCITEGIC>MOL_PROPERTY
Tether
SciTegic.value.DoubleValue
0.000

@<TRIPOS>MOLECULE
guest-2_confgen4.mol2 : confsearch ligand conformer 381
          23          22           1
SMALL
USER_CHARGES
 
@<TRIPOS>ATOM
       1    N1      20.959105   16.163299   23.328820 N.4        1 MOL1        -0.5940
       2    H1      21.528685   16.127161   24.180321 H          1 MOL1         0.3649
       3    H2      21.294816   15.414101   22.714037 H          1 MOL1         0.3649
       4    H3      19.999842   15.921449   23.597122 H          1 MOL1         0.3649
       5    C1      21.033763   17.518994   22.656397 C.3        1 MOL1         0.0207
       6    H4      20.431168   17.475756   21.745384 H          1 MOL1         0.0950
       7    H5      22.074225   17.698847   22.372778 H          1 MOL1         0.0950
       8    C2      20.535910   18.666924   23.554294 C.3        1 MOL1        -0.1415
       9    H6      19.495619   18.480897   23.850301 H          1 MOL1         0.0976
      10    H7      21.122999   18.677755   24.482162 H          1 MOL1         0.0976
      11    C3      20.652925   20.052757   22.872506 C.3        1 MOL1        -0.1375
      12    H8      21.714799   20.271815   22.694325 H          1 MOL1         0.0976
      13    H9      20.304531   20.826411   23.569666 H          1 MOL1         0.0976
      14    C4      19.888273   20.183815   21.527556 C.3        1 MOL1        -0.1375
      15    H10     20.026067   21.204177   21.144095 H          1 MOL1         0.0976
      16    H11     20.348747   19.523703   20.780215 H          1 MOL1         0.0976
      17    C5      18.370569   19.877811   21.599370 C.3        1 MOL1        -0.1350
      18    H12     18.207451   18.828541   21.879629 H          1 MOL1         0.0976
      19    H13     17.942804   19.990129   20.593341 H          1 MOL1         0.0976
      20    C6      17.604168   20.802900   22.571666 C.3        1 MOL1        -0.2365
      21    H14     17.921934   20.646912   23.610054 H          1 MOL1         0.0987
      22    H15     16.525821   20.603947   22.522419 H          1 MOL1         0.0987
      23    H16     17.762754   21.859162   22.318480 H          1 MOL1         0.0987
@<TRIPOS>BOND
    1     1     2    1
    2     1     3    1
    3     1     4    1
    4     1     5    1
    5     5     6    1
    6     5     7    1
    7     5     8    1
    8     8     9    1
    9     8    10    1
   10     8    11    1
   11    11    12    1
   12    11    13    1
   13    11    14    1
   14    14    15    1
   15    14    16    1
   16    14    17    1
   17    17    18    1
   18    17    19    1
   19    17    20    1
   20    20    21    1
   21    20    22    1
   22    20    23    1
@<TRIPOS>SUBSTRUCTURE
       1 MOL1            1 RESIDUE      1      MOL     
@<SCITEGIC>MOL_PROPERTY
VConf Rank
SciTegic.value.IntegerValue
381

@<SCITEGIC>MOL_PROPERTY
Conf_Id
SciTegic.value.IntegerValue
90

@<SCITEGIC>MOL_PROPERTY
Delta U+W
SciTegic.value.DoubleValue
1.131

@<SCITEGIC>MOL_PROPERTY
U+W
SciTegic.value.DoubleValue
-7.251

@<SCITEGIC>MOL_PROPERTY
Grad RMS
SciTegic.value.DoubleValue
0.000000

@<SCITEGIC>MOL_PROPERTY
U
SciTegic.value.DoubleValue
48.641

@<SCITEGIC>MOL_PROPERTY
W
SciTegic.value.DoubleValue
-55.892

@<SCITEGIC>MOL_PROPERTY
W(PB)
SciTegic.value.DoubleValue
-57.962

@<SCITEGIC>MOL_PROPERTY
W(SA)
SciTegic.value.DoubleValue
2.070

@<SCITEGIC>MOL_PROPERTY
Valence
SciTegic.value.DoubleValue
2.922

@<SCITEGIC>MOL_PROPERTY
Coulomb
SciTegic.value.DoubleValue
45.269

@<SCITEGIC>MOL_PROPERTY
VdW
SciTegic.value.DoubleValue
0.450

@<SCITEGIC>MOL_PROPERTY
VdW6
SciTegic.value.DoubleValue
-7.045

@<SCITEGIC>MOL_PROPERTY
VdW12
SciTegic.value.DoubleValue
7.495

@<SCITEGIC>MOL_PROPERTY
Bond
SciTegic.value.DoubleValue
0.220

@<SCITEGIC>MOL_PROPERTY
Angle
SciTegic.value.DoubleValue
1.205

@<SCITEGIC>MOL_PROPERTY
Pdih
SciTegic.value.DoubleValue
1.497

@<SCITEGIC>MOL_PROPERTY
Idih
SciTegic.value.DoubleValue
0.000

@<SCITEGIC>MOL_PROPERTY
Tether
SciTegic.value.DoubleValue
0.000

@<TRIPOS>MOLECULE
guest-2_confgen4.mol2 : confsearch ligand conformer 382
          23          22           1
SMALL
USER_CHARGES
 
@<TRIPOS>ATOM
       1    N1      17.476506   20.132125   22.193491 N.4        1 MOL1        -0.5940
       2    H1      16.883397   20.793904   22.705471 H          1 MOL1         0.3649
       3    H2      17.661881   19.344832   22.822322 H          1 MOL1         0.3649
       4    H3      16.918358   19.772405   21.412693 H          1 MOL1         0.3649
       5    C1      18.761062   20.780124   21.715571 C.3        1 MOL1         0.0207
       6    H4      19.290682   21.167767   22.589615 H          1 MOL1         0.0950
       7    H5      18.490115   21.627687   21.080163 H          1 MOL1         0.0950
       8    C2      19.681798   19.824786   20.929147 C.3        1 MOL1        -0.1415
       9    H6      19.156611   19.478911   20.028959 H          1 MOL1         0.0976
      10    H7      20.555052   20.389011   20.575703 H          1 MOL1         0.0976
      11    C3      20.161791   18.598562   21.745580 C.3        1 MOL1        -0.1375
      12    H8      20.794694   17.974283   21.099964 H          1 MOL1         0.0976
      13    H9      19.297851   17.979252   22.017916 H          1 MOL1         0.0976
      14    C4      20.960440   18.989608   23.014720 C.3        1 MOL1        -0.1375
      15    H10     21.769036   19.677465   22.731363 H          1 MOL1         0.0976
      16    H11     20.316330   19.540097   23.713301 H          1 MOL1         0.0976
      17    C5      21.581660   17.775775   23.746901 C.3        1 MOL1        -0.1350
      18    H12     22.214661   18.144218   24.566288 H          1 MOL1         0.0976
      19    H13     22.249059   17.231132   23.064462 H          1 MOL1         0.0976
      20    C6      20.528367   16.805626   24.328724 C.3        1 MOL1        -0.2365
      21    H14     19.831933   17.331557   24.994543 H          1 MOL1         0.0987
      22    H15     21.016427   16.014071   24.911969 H          1 MOL1         0.0987
      23    H16     19.946536   16.319209   23.536082 H          1 MOL1         0.0987
@<TRIPOS>BOND
    1     1     2    1
    2     1     3    1
    3     1     4    1
    4     1     5    1
    5     5     6    1
    6     5     7    1
    7     5     8    1
    8     8     9    1
    9     8    10    1
   10     8    11    1
   11    11    12    1
   12    11    13    1
   13    11    14    1
   14    14    15    1
   15    14    16    1
   16    14    17    1
   17    17    18    1
   18    17    19    1
   19    17    20    1
   20    20    21    1
   21    20    22    1
   22    20    23    1
@<TRIPOS>SUBSTRUCTURE
       1 MOL1            1 RESIDUE      1      MOL     
@<SCITEGIC>MOL_PROPERTY
VConf Rank
SciTegic.value.IntegerValue
382

@<SCITEGIC>MOL_PROPERTY
Conf_Id
SciTegic.value.IntegerValue
85

@<SCITEGIC>MOL_PROPERTY
Delta U+W
SciTegic.value.DoubleValue
1.193

@<SCITEGIC>MOL_PROPERTY
U+W
SciTegic.value.DoubleValue
-7.189

@<SCITEGIC>MOL_PROPERTY
Grad RMS
SciTegic.value.DoubleValue
0.000000

@<SCITEGIC>MOL_PROPERTY
U
SciTegic.value.DoubleValue
48.775

@<SCITEGIC>MOL_PROPERTY
W
SciTegic.value.DoubleValue
-55.965

@<SCITEGIC>MOL_PROPERTY
W(PB)
SciTegic.value.DoubleValue
-58.038

@<SCITEGIC>MOL_PROPERTY
W(SA)
SciTegic.value.DoubleValue
2.073

@<SCITEGIC>MOL_PROPERTY
Valence
SciTegic.value.DoubleValue
2.602

@<SCITEGIC>MOL_PROPERTY
Coulomb
SciTegic.value.DoubleValue
45.581

@<SCITEGIC>MOL_PROPERTY
VdW
SciTegic.value.DoubleValue
0.592

@<SCITEGIC>MOL_PROPERTY
VdW6
SciTegic.value.DoubleValue
-6.616

@<SCITEGIC>MOL_PROPERTY
VdW12
SciTegic.value.DoubleValue
7.208

@<SCITEGIC>MOL_PROPERTY
Bond
SciTegic.value.DoubleValue
0.196

@<SCITEGIC>MOL_PROPERTY
Angle
SciTegic.value.DoubleValue
0.832

@<SCITEGIC>MOL_PROPERTY
Pdih
SciTegic.value.DoubleValue
1.574

@<SCITEGIC>MOL_PROPERTY
Idih
SciTegic.value.DoubleValue
0.000

@<SCITEGIC>MOL_PROPERTY
Tether
SciTegic.value.DoubleValue
0.000

@<TRIPOS>MOLECULE
guest-2_confgen4.mol2 : confsearch ligand conformer 383
          23          22           1
SMALL
USER_CHARGES
 
@<TRIPOS>ATOM
       1    N1      21.175204   20.098421   23.460425 N.4        1 MOL1        -0.5940
       2    H1      20.154489   20.022088   23.515056 H          1 MOL1         0.3649
       3    H2      21.405411   21.095220   23.384917 H          1 MOL1         0.3649
       4    H3      21.554856   19.771199   24.354743 H          1 MOL1         0.3649
       5    C1      21.726367   19.303326   22.292647 C.3        1 MOL1         0.0207
       6    H4      22.812061   19.432477   22.302512 H          1 MOL1         0.0950
       7    H5      21.342171   19.733078   21.363757 H          1 MOL1         0.0950
       8    C2      21.398138   17.797385   22.348555 C.3        1 MOL1        -0.1415
       9    H6      22.137252   17.271596   21.729610 H          1 MOL1         0.0976
      10    H7      21.544706   17.423363   23.370562 H          1 MOL1         0.0976
      11    C3      19.986253   17.407649   21.833969 C.3        1 MOL1        -0.1375
      12    H8      19.911462   16.312233   21.878421 H          1 MOL1         0.0976
      13    H9      19.890588   17.665164   20.770012 H          1 MOL1         0.0976
      14    C4      18.800514   18.002431   22.636164 C.3        1 MOL1        -0.1375
      15    H10     17.993618   17.257114   22.670236 H          1 MOL1         0.0976
      16    H11     19.094428   18.167158   23.681250 H          1 MOL1         0.0976
      17    C5      18.226458   19.295326   22.006895 C.3        1 MOL1        -0.1350
      18    H12     17.789068   19.057702   21.026916 H          1 MOL1         0.0976
      19    H13     19.019856   20.027091   21.813719 H          1 MOL1         0.0976
      20    C6      17.144734   19.934569   22.903037 C.3        1 MOL1        -0.2365
      21    H14     16.310538   19.240389   23.069167 H          1 MOL1         0.0987
      22    H15     16.739133   20.840649   22.434331 H          1 MOL1         0.0987
      23    H16     17.553501   20.216210   23.881992 H          1 MOL1         0.0987
@<TRIPOS>BOND
    1     1     2    1
    2     1     3    1
    3     1     4    1
    4     1     5    1
    5     5     6    1
    6     5     7    1
    7     5     8    1
    8     8     9    1
    9     8    10    1
   10     8    11    1
   11    11    12    1
   12    11    13    1
   13    11    14    1
   14    14    15    1
   15    14    16    1
   16    14    17    1
   17    17    18    1
   18    17    19    1
   19    17    20    1
   20    20    21    1
   21    20    22    1
   22    20    23    1
@<TRIPOS>SUBSTRUCTURE
       1 MOL1            1 RESIDUE      1      MOL     
@<SCITEGIC>MOL_PROPERTY
VConf Rank
SciTegic.value.IntegerValue
383

@<SCITEGIC>MOL_PROPERTY
Conf_Id
SciTegic.value.IntegerValue
82

@<SCITEGIC>MOL_PROPERTY
Delta U+W
SciTegic.value.DoubleValue
5.994

@<SCITEGIC>MOL_PROPERTY
U+W
SciTegic.value.DoubleValue
-2.388

@<SCITEGIC>MOL_PROPERTY
Grad RMS
SciTegic.value.DoubleValue
0.000000

@<SCITEGIC>MOL_PROPERTY
U
SciTegic.value.DoubleValue
52.836

@<SCITEGIC>MOL_PROPERTY
W
SciTegic.value.DoubleValue
-55.224

@<SCITEGIC>MOL_PROPERTY
W(PB)
SciTegic.value.DoubleValue
-57.261

@<SCITEGIC>MOL_PROPERTY
W(SA)
SciTegic.value.DoubleValue
2.037

@<SCITEGIC>MOL_PROPERTY
Valence
SciTegic.value.DoubleValue
5.785

@<SCITEGIC>MOL_PROPERTY
Coulomb
SciTegic.value.DoubleValue
46.744

@<SCITEGIC>MOL_PROPERTY
VdW
SciTegic.value.DoubleValue
0.307

@<SCITEGIC>MOL_PROPERTY
VdW6
SciTegic.value.DoubleValue
-7.672

@<SCITEGIC>MOL_PROPERTY
VdW12
SciTegic.value.DoubleValue
7.979

@<SCITEGIC>MOL_PROPERTY
Bond
SciTegic.value.DoubleValue
0.217

@<SCITEGIC>MOL_PROPERTY
Angle
SciTegic.value.DoubleValue
1.470

@<SCITEGIC>MOL_PROPERTY
Pdih
SciTegic.value.DoubleValue
4.098

@<SCITEGIC>MOL_PROPERTY
Idih
SciTegic.value.DoubleValue
0.000

@<SCITEGIC>MOL_PROPERTY
Tether
SciTegic.value.DoubleValue
0.000

@<TRIPOS>MOLECULE
guest-2_confgen4.mol2 : confsearch ligand conformer 384
          23          22           1
SMALL
USER_CHARGES
 
@<TRIPOS>ATOM
       1    N1      20.372407   17.057828   23.117360 N.4        1 MOL1        -0.5940
       2    H1      20.209641   16.789631   24.093368 H          1 MOL1         0.3649
       3    H2      20.477824   16.188950   22.582346 H          1 MOL1         0.3649
       4    H3      19.523099   17.523809   22.782378 H          1 MOL1         0.3649
       5    C1      21.586326   17.955879   22.977505 C.3        1 MOL1         0.0207
       6    H4      21.752372   18.157723   21.915990 H          1 MOL1         0.0950
       7    H5      22.444853   17.393191   23.354100 H          1 MOL1         0.0950
       8    C2      21.476165   19.284637   23.752738 C.3        1 MOL1        -0.1415
       9    H6      21.057330   19.098407   24.750620 H          1 MOL1         0.0976
      10    H7      22.495004   19.657791   23.921737 H          1 MOL1         0.0976
      11    C3      20.674191   20.404648   23.036829 C.3        1 MOL1        -0.1375
      12    H8      21.172857   20.681095   22.097478 H          1 MOL1         0.0976
      13    H9      20.724796   21.300970   23.670510 H          1 MOL1         0.0976
      14    C4      19.179830   20.086228   22.774613 C.3        1 MOL1        -0.1375
      15    H10     18.800032   19.394078   23.537768 H          1 MOL1         0.0976
      16    H11     18.599054   21.010844   22.899200 H          1 MOL1         0.0976
      17    C5      18.912849   19.546326   21.348314 C.3        1 MOL1        -0.1350
      18    H12     19.575455   18.704813   21.113594 H          1 MOL1         0.0976
      19    H13     19.148017   20.330204   20.614579 H          1 MOL1         0.0976
      20    C6      17.443619   19.109092   21.169388 C.3        1 MOL1        -0.2365
      21    H14     17.180375   18.302033   21.865180 H          1 MOL1         0.0987
      22    H15     17.269641   18.743786   20.148867 H          1 MOL1         0.0987
      23    H16     16.758705   19.948624   21.346721 H          1 MOL1         0.0987
@<TRIPOS>BOND
    1     1     2    1
    2     1     3    1
    3     1     4    1
    4     1     5    1
    5     5     6    1
    6     5     7    1
    7     5     8    1
    8     8     9    1
    9     8    10    1
   10     8    11    1
   11    11    12    1
   12    11    13    1
   13    11    14    1
   14    14    15    1
   15    14    16    1
   16    14    17    1
   17    17    18    1
   18    17    19    1
   19    17    20    1
   20    20    21    1
   21    20    22    1
   22    20    23    1
@<TRIPOS>SUBSTRUCTURE
       1 MOL1            1 RESIDUE      1      MOL     
@<SCITEGIC>MOL_PROPERTY
VConf Rank
SciTegic.value.IntegerValue
384

@<SCITEGIC>MOL_PROPERTY
Conf_Id
SciTegic.value.IntegerValue
5

@<SCITEGIC>MOL_PROPERTY
Delta U+W
SciTegic.value.DoubleValue
6.087

@<SCITEGIC>MOL_PROPERTY
U+W
SciTegic.value.DoubleValue
-2.295

@<SCITEGIC>MOL_PROPERTY
Grad RMS
SciTegic.value.DoubleValue
0.000000

@<SCITEGIC>MOL_PROPERTY
U
SciTegic.value.DoubleValue
52.836

@<SCITEGIC>MOL_PROPERTY
W
SciTegic.value.DoubleValue
-55.131

@<SCITEGIC>MOL_PROPERTY
W(PB)
SciTegic.value.DoubleValue
-57.202

@<SCITEGIC>MOL_PROPERTY
W(SA)
SciTegic.value.DoubleValue
2.071

@<SCITEGIC>MOL_PROPERTY
Valence
SciTegic.value.DoubleValue
5.785

@<SCITEGIC>MOL_PROPERTY
Coulomb
SciTegic.value.DoubleValue
46.744

@<SCITEGIC>MOL_PROPERTY
VdW
SciTegic.value.DoubleValue
0.307

@<SCITEGIC>MOL_PROPERTY
VdW6
SciTegic.value.DoubleValue
-7.672

@<SCITEGIC>MOL_PROPERTY
VdW12
SciTegic.value.DoubleValue
7.980

@<SCITEGIC>MOL_PROPERTY
Bond
SciTegic.value.DoubleValue
0.217

@<SCITEGIC>MOL_PROPERTY
Angle
SciTegic.value.DoubleValue
1.470

@<SCITEGIC>MOL_PROPERTY
Pdih
SciTegic.value.DoubleValue
4.098

@<SCITEGIC>MOL_PROPERTY
Idih
SciTegic.value.DoubleValue
0.000

@<SCITEGIC>MOL_PROPERTY
Tether
SciTegic.value.DoubleValue
0.000

@<TRIPOS>MOLECULE
guest-2_confgen4.mol2 : confsearch ligand conformer 385
          23          22           1
SMALL
USER_CHARGES
 
@<TRIPOS>ATOM
       1    N1      19.228594   15.739568   24.544591 N.4        1 MOL1        -0.5940
       2    H1      18.211773   15.829448   24.638826 H          1 MOL1         0.3649
       3    H2      19.565041   15.263642   25.388624 H          1 MOL1         0.3649
       4    H3      19.403746   15.107610   23.756661 H          1 MOL1         0.3649
       5    C1      19.899806   17.084190   24.351288 C.3        1 MOL1         0.0207
       6    H4      20.978509   16.916996   24.288502 H          1 MOL1         0.0950
       7    H5      19.697330   17.692852   25.236743 H          1 MOL1         0.0950
       8    C2      19.416221   17.824877   23.091881 C.3        1 MOL1        -0.1415
       9    H6      19.606783   17.203021   22.206962 H          1 MOL1         0.0976
      10    H7      18.330101   17.976040   23.151818 H          1 MOL1         0.0976
      11    C3      20.123373   19.188840   22.931492 C.3        1 MOL1        -0.1375
      12    H8      21.210024   19.033759   22.877252 H          1 MOL1         0.0976
      13    H9      19.934656   19.805955   23.821074 H          1 MOL1         0.0976
      14    C4      19.645049   19.941697   21.669187 C.3        1 MOL1        -0.1375
      15    H10     19.833809   19.324839   20.779597 H          1 MOL1         0.0976
      16    H11     18.558535   20.096858   21.723274 H          1 MOL1         0.0976
      17    C5      20.352406   21.305805   21.509135 C.3        1 MOL1        -0.1350
      18    H12     21.439692   21.155711   21.452100 H          1 MOL1         0.0976
      19    H13     20.164520   21.927661   22.395683 H          1 MOL1         0.0976
      20    C6      19.872255   22.054585   20.247671 C.3        1 MOL1        -0.2365
      21    H14     20.385414   23.020195   20.151169 H          1 MOL1         0.0987
      22    H15     18.792791   22.249735   20.291304 H          1 MOL1         0.0987
      23    H16     20.077901   21.471743   19.340349 H          1 MOL1         0.0987
@<TRIPOS>BOND
    1     1     2    1
    2     1     3    1
    3     1     4    1
    4     1     5    1
    5     5     6    1
    6     5     7    1
    7     5     8    1
    8     8     9    1
    9     8    10    1
   10     8    11    1
   11    11    12    1
   12    11    13    1
   13    11    14    1
   14    14    15    1
   15    14    16    1
   16    14    17    1
   17    17    18    1
   18    17    19    1
   19    17    20    1
   20    20    21    1
   21    20    22    1
   22    20    23    1
@<TRIPOS>SUBSTRUCTURE
       1 MOL1            1 RESIDUE      1      MOL     
@<SCITEGIC>MOL_PROPERTY
VConf Rank
SciTegic.value.IntegerValue
385

@<SCITEGIC>MOL_PROPERTY
Conf_Id
SciTegic.value.IntegerValue
40

@<SCITEGIC>MOL_PROPERTY
Delta U+W
SciTegic.value.DoubleValue
0.000

@<SCITEGIC>MOL_PROPERTY
U+W
SciTegic.value.DoubleValue
-8.382

@<SCITEGIC>MOL_PROPERTY
Grad RMS
SciTegic.value.DoubleValue
0.000000

@<SCITEGIC>MOL_PROPERTY
U
SciTegic.value.DoubleValue
46.604

@<SCITEGIC>MOL_PROPERTY
W
SciTegic.value.DoubleValue
-54.986

@<SCITEGIC>MOL_PROPERTY
W(PB)
SciTegic.value.DoubleValue
-57.162

@<SCITEGIC>MOL_PROPERTY
W(SA)
SciTegic.value.DoubleValue
2.176

@<SCITEGIC>MOL_PROPERTY
Valence
SciTegic.value.DoubleValue
1.727

@<SCITEGIC>MOL_PROPERTY
Coulomb
SciTegic.value.DoubleValue
44.434

@<SCITEGIC>MOL_PROPERTY
VdW
SciTegic.value.DoubleValue
0.443

@<SCITEGIC>MOL_PROPERTY
VdW6
SciTegic.value.DoubleValue
-4.623

@<SCITEGIC>MOL_PROPERTY
VdW12
SciTegic.value.DoubleValue
5.066

@<SCITEGIC>MOL_PROPERTY
Bond
SciTegic.value.DoubleValue
0.112

@<SCITEGIC>MOL_PROPERTY
Angle
SciTegic.value.DoubleValue
0.386

@<SCITEGIC>MOL_PROPERTY
Pdih
SciTegic.value.DoubleValue
1.228

@<SCITEGIC>MOL_PROPERTY
Idih
SciTegic.value.DoubleValue
0.000

@<SCITEGIC>MOL_PROPERTY
Tether
SciTegic.value.DoubleValue
0.000

@<TRIPOS>MOLECULE
guest-2_confgen4.mol2 : confsearch ligand conformer 386
          23          22           1
SMALL
USER_CHARGES
 
@<TRIPOS>ATOM
       1    N1      19.913519   16.073989   20.592061 N.4        1 MOL1        -0.5940
       2    H1      20.804484   15.587947   20.736234 H          1 MOL1         0.3649
       3    H2      19.971646   16.547176   19.684565 H          1 MOL1         0.3649
       4    H3      19.190681   15.351439   20.505714 H          1 MOL1         0.3649
       5    C1      19.609579   17.042917   21.716596 C.3        1 MOL1         0.0207
       6    H4      19.533650   16.469806   22.644599 H          1 MOL1         0.0950
       7    H5      18.637118   17.498102   21.512524 H          1 MOL1         0.0950
       8    C2      20.678529   18.141240   21.872046 C.3        1 MOL1        -0.1415
       9    H6      21.656956   17.667926   22.028895 H          1 MOL1         0.0976
      10    H7      20.754379   18.718005   20.940610 H          1 MOL1         0.0976
      11    C3      20.389683   19.097263   23.053659 C.3        1 MOL1        -0.1375
      12    H8      21.247705   19.772579   23.166390 H          1 MOL1         0.0976
      13    H9      20.323966   18.518584   23.985423 H          1 MOL1         0.0976
      14    C4      19.095653   19.928519   22.861116 C.3        1 MOL1        -0.1375
      15    H10     19.170620   20.522797   21.940011 H          1 MOL1         0.0976
      16    H11     18.241615   19.252311   22.723753 H          1 MOL1         0.0976
      17    C5      18.781212   20.863747   24.054012 C.3        1 MOL1        -0.1350
      18    H12     18.694661   20.273211   24.976821 H          1 MOL1         0.0976
      19    H13     17.796428   21.323447   23.890460 H          1 MOL1         0.0976
      20    C6      19.826015   21.985902   24.250341 C.3        1 MOL1        -0.2365
      21    H14     20.803300   21.581697   24.541530 H          1 MOL1         0.0987
      22    H15     19.505437   22.674277   25.043005 H          1 MOL1         0.0987
      23    H16     19.955160   22.570795   23.330432 H          1 MOL1         0.0987
@<TRIPOS>BOND
    1     1     2    1
    2     1     3    1
    3     1     4    1
    4     1     5    1
    5     5     6    1
    6     5     7    1
    7     5     8    1
    8     8     9    1
    9     8    10    1
   10     8    11    1
   11    11    12    1
   12    11    13    1
   13    11    14    1
   14    14    15    1
   15    14    16    1
   16    14    17    1
   17    17    18    1
   18    17    19    1
   19    17    20    1
   20    20    21    1
   21    20    22    1
   22    20    23    1
@<TRIPOS>SUBSTRUCTURE
       1 MOL1            1 RESIDUE      1      MOL     
@<SCITEGIC>MOL_PROPERTY
VConf Rank
SciTegic.value.IntegerValue
386

@<SCITEGIC>MOL_PROPERTY
Conf_Id
SciTegic.value.IntegerValue
65

@<SCITEGIC>MOL_PROPERTY
Delta U+W
SciTegic.value.DoubleValue
1.004

@<SCITEGIC>MOL_PROPERTY
U+W
SciTegic.value.DoubleValue
-7.378

@<SCITEGIC>MOL_PROPERTY
Grad RMS
SciTegic.value.DoubleValue
0.000000

@<SCITEGIC>MOL_PROPERTY
U
SciTegic.value.DoubleValue
48.047

@<SCITEGIC>MOL_PROPERTY
W
SciTegic.value.DoubleValue
-55.425

@<SCITEGIC>MOL_PROPERTY
W(PB)
SciTegic.value.DoubleValue
-57.542

@<SCITEGIC>MOL_PROPERTY
W(SA)
SciTegic.value.DoubleValue
2.116

@<SCITEGIC>MOL_PROPERTY
Valence
SciTegic.value.DoubleValue
2.583

@<SCITEGIC>MOL_PROPERTY
Coulomb
SciTegic.value.DoubleValue
44.791

@<SCITEGIC>MOL_PROPERTY
VdW
SciTegic.value.DoubleValue
0.673

@<SCITEGIC>MOL_PROPERTY
VdW6
SciTegic.value.DoubleValue
-5.788

@<SCITEGIC>MOL_PROPERTY
VdW12
SciTegic.value.DoubleValue
6.462

@<SCITEGIC>MOL_PROPERTY
Bond
SciTegic.value.DoubleValue
0.177

@<SCITEGIC>MOL_PROPERTY
Angle
SciTegic.value.DoubleValue
0.787

@<SCITEGIC>MOL_PROPERTY
Pdih
SciTegic.value.DoubleValue
1.619

@<SCITEGIC>MOL_PROPERTY
Idih
SciTegic.value.DoubleValue
0.000

@<SCITEGIC>MOL_PROPERTY
Tether
SciTegic.value.DoubleValue
0.000

@<TRIPOS>MOLECULE
guest-2_confgen4.mol2 : confsearch ligand conformer 387
          23          22           1
SMALL
USER_CHARGES
 
@<TRIPOS>ATOM
       1    N1      22.620408   17.957164   24.482701 N.4        1 MOL1        -0.5940
       2    H1      23.254046   18.746281   24.645907 H          1 MOL1         0.3649
       3    H2      23.207724   17.137663   24.294275 H          1 MOL1         0.3649
       4    H3      22.130757   17.776253   25.364940 H          1 MOL1         0.3649
       5    C1      21.656073   18.231927   23.346770 C.3        1 MOL1         0.0207
       6    H4      21.037011   17.341578   23.210527 H          1 MOL1         0.0950
       7    H5      22.241916   18.386622   22.436678 H          1 MOL1         0.0950
       8    C2      20.759118   19.458460   23.600191 C.3        1 MOL1        -0.1415
       9    H6      20.169553   19.303125   24.513575 H          1 MOL1         0.0976
      10    H7      21.395307   20.334843   23.782297 H          1 MOL1         0.0976
      11    C3      19.812080   19.764734   22.415737 C.3        1 MOL1        -0.1375
      12    H8      20.405246   19.929362   21.505560 H          1 MOL1         0.0976
      13    H9      19.294767   20.709914   22.625464 H          1 MOL1         0.0976
      14    C4      18.769155   18.645618   22.165820 C.3        1 MOL1        -0.1375
      15    H10     19.287117   17.695416   21.980520 H          1 MOL1         0.0976
      16    H11     18.162578   18.495857   23.069621 H          1 MOL1         0.0976
      17    C5      17.838706   18.928670   20.961383 C.3        1 MOL1        -0.1350
      18    H12     17.214725   18.041725   20.782925 H          1 MOL1         0.0976
      19    H13     18.439715   19.068956   20.052039 H          1 MOL1         0.0976
      20    C6      16.915571   20.151043   21.168782 C.3        1 MOL1        -0.2365
      21    H14     17.488298   21.084815   21.226323 H          1 MOL1         0.0987
      22    H15     16.327423   20.050121   22.090144 H          1 MOL1         0.0987
      23    H16     16.212596   20.247506   20.331247 H          1 MOL1         0.0987
@<TRIPOS>BOND
    1     1     2    1
    2     1     3    1
    3     1     4    1
    4     1     5    1
    5     5     6    1
    6     5     7    1
    7     5     8    1
    8     8     9    1
    9     8    10    1
   10     8    11    1
   11    11    12    1
   12    11    13    1
   13    11    14    1
   14    14    15    1
   15    14    16    1
   16    14    17    1
   17    17    18    1
   18    17    19    1
   19    17    20    1
   20    20    21    1
   21    20    22    1
   22    20    23    1
@<TRIPOS>SUBSTRUCTURE
       1 MOL1            1 RESIDUE      1      MOL     
@<SCITEGIC>MOL_PROPERTY
VConf Rank
SciTegic.value.IntegerValue
387

@<SCITEGIC>MOL_PROPERTY
Conf_Id
SciTegic.value.IntegerValue
92

@<SCITEGIC>MOL_PROPERTY
Delta U+W
SciTegic.value.DoubleValue
0.973

@<SCITEGIC>MOL_PROPERTY
U+W
SciTegic.value.DoubleValue
-7.409

@<SCITEGIC>MOL_PROPERTY
Grad RMS
SciTegic.value.DoubleValue
0.000000

@<SCITEGIC>MOL_PROPERTY
U
SciTegic.value.DoubleValue
48.047

@<SCITEGIC>MOL_PROPERTY
W
SciTegic.value.DoubleValue
-55.456

@<SCITEGIC>MOL_PROPERTY
W(PB)
SciTegic.value.DoubleValue
-57.595

@<SCITEGIC>MOL_PROPERTY
W(SA)
SciTegic.value.DoubleValue
2.138

@<SCITEGIC>MOL_PROPERTY
Valence
SciTegic.value.DoubleValue
2.583

@<SCITEGIC>MOL_PROPERTY
Coulomb
SciTegic.value.DoubleValue
44.791

@<SCITEGIC>MOL_PROPERTY
VdW
SciTegic.value.DoubleValue
0.674

@<SCITEGIC>MOL_PROPERTY
VdW6
SciTegic.value.DoubleValue
-5.789

@<SCITEGIC>MOL_PROPERTY
VdW12
SciTegic.value.DoubleValue
6.462

@<SCITEGIC>MOL_PROPERTY
Bond
SciTegic.value.DoubleValue
0.177

@<SCITEGIC>MOL_PROPERTY
Angle
SciTegic.value.DoubleValue
0.787

@<SCITEGIC>MOL_PROPERTY
Pdih
SciTegic.value.DoubleValue
1.619

@<SCITEGIC>MOL_PROPERTY
Idih
SciTegic.value.DoubleValue
0.000

@<SCITEGIC>MOL_PROPERTY
Tether
SciTegic.value.DoubleValue
0.000

@<TRIPOS>MOLECULE
guest-2_confgen4.mol2 : confsearch ligand conformer 388
          23          22           1
SMALL
USER_CHARGES
 
@<TRIPOS>ATOM
       1    N1      22.672520   19.866581   24.367417 N.4        1 MOL1        -0.5940
       2    H1      22.677709   20.656364   25.021825 H          1 MOL1         0.3649
       3    H2      23.534552   19.930964   23.816409 H          1 MOL1         0.3649
       4    H3      22.737862   19.012574   24.930659 H          1 MOL1         0.3649
       5    C1      21.438138   19.871493   23.488753 C.3        1 MOL1         0.0207
       6    H4      21.417256   20.817657   22.941252 H          1 MOL1         0.0950
       7    H5      20.562156   19.831935   24.141274 H          1 MOL1         0.0950
       8    C2      21.401070   18.696214   22.493664 C.3        1 MOL1        -0.1415
       9    H6      22.307658   18.721837   21.874480 H          1 MOL1         0.0976
      10    H7      21.422889   17.745918   23.043625 H          1 MOL1         0.0976
      11    C3      20.161015   18.733819   21.569606 C.3        1 MOL1        -0.1375
      12    H8      20.248187   17.925590   20.830270 H          1 MOL1         0.0976
      13    H9      20.155691   19.674654   21.001759 H          1 MOL1         0.0976
      14    C4      18.825861   18.579327   22.337042 C.3        1 MOL1        -0.1375
      15    H10     18.847750   17.654213   22.929581 H          1 MOL1         0.0976
      16    H11     18.702088   19.408671   23.046215 H          1 MOL1         0.0976
      17    C5      17.614045   18.547354   21.379310 C.3        1 MOL1        -0.1350
      18    H12     17.723146   17.715198   20.669680 H          1 MOL1         0.0976
      19    H13     17.587687   19.470492   20.783408 H          1 MOL1         0.0976
      20    C6      16.282973   18.394641   22.145789 C.3        1 MOL1        -0.2365
      21    H14     16.265964   17.462530   22.725538 H          1 MOL1         0.0987
      22    H15     15.434802   18.373498   21.449224 H          1 MOL1         0.0987
      23    H16     16.128379   19.231503   22.839319 H          1 MOL1         0.0987
@<TRIPOS>BOND
    1     1     2    1
    2     1     3    1
    3     1     4    1
    4     1     5    1
    5     5     6    1
    6     5     7    1
    7     5     8    1
    8     8     9    1
    9     8    10    1
   10     8    11    1
   11    11    12    1
   12    11    13    1
   13    11    14    1
   14    14    15    1
   15    14    16    1
   16    14    17    1
   17    17    18    1
   18    17    19    1
   19    17    20    1
   20    20    21    1
   21    20    22    1
   22    20    23    1
@<TRIPOS>SUBSTRUCTURE
       1 MOL1            1 RESIDUE      1      MOL     
@<SCITEGIC>MOL_PROPERTY
VConf Rank
SciTegic.value.IntegerValue
388

@<SCITEGIC>MOL_PROPERTY
Conf_Id
SciTegic.value.IntegerValue
42

@<SCITEGIC>MOL_PROPERTY
Delta U+W
SciTegic.value.DoubleValue
0.365

@<SCITEGIC>MOL_PROPERTY
U+W
SciTegic.value.DoubleValue
-8.017

@<SCITEGIC>MOL_PROPERTY
Grad RMS
SciTegic.value.DoubleValue
0.000000

@<SCITEGIC>MOL_PROPERTY
U
SciTegic.value.DoubleValue
47.375

@<SCITEGIC>MOL_PROPERTY
W
SciTegic.value.DoubleValue
-55.392

@<SCITEGIC>MOL_PROPERTY
W(PB)
SciTegic.value.DoubleValue
-57.543

@<SCITEGIC>MOL_PROPERTY
W(SA)
SciTegic.value.DoubleValue
2.152

@<SCITEGIC>MOL_PROPERTY
Valence
SciTegic.value.DoubleValue
2.032

@<SCITEGIC>MOL_PROPERTY
Coulomb
SciTegic.value.DoubleValue
44.843

@<SCITEGIC>MOL_PROPERTY
VdW
SciTegic.value.DoubleValue
0.499

@<SCITEGIC>MOL_PROPERTY
VdW6
SciTegic.value.DoubleValue
-5.218

@<SCITEGIC>MOL_PROPERTY
VdW12
SciTegic.value.DoubleValue
5.717

@<SCITEGIC>MOL_PROPERTY
Bond
SciTegic.value.DoubleValue
0.135

@<SCITEGIC>MOL_PROPERTY
Angle
SciTegic.value.DoubleValue
0.514

@<SCITEGIC>MOL_PROPERTY
Pdih
SciTegic.value.DoubleValue
1.383

@<SCITEGIC>MOL_PROPERTY
Idih
SciTegic.value.DoubleValue
0.000

@<SCITEGIC>MOL_PROPERTY
Tether
SciTegic.value.DoubleValue
0.000

@<TRIPOS>MOLECULE
guest-2_confgen4.mol2 : confsearch ligand conformer 389
          23          22           1
SMALL
USER_CHARGES
 
@<TRIPOS>ATOM
       1    N1      20.632247   21.498192   20.883881 N.4        1 MOL1        -0.5940
       2    H1      21.398658   20.991211   20.429769 H          1 MOL1         0.3649
       3    H2      20.801366   22.497689   20.727824 H          1 MOL1         0.3649
       4    H3      19.771685   21.258766   20.382372 H          1 MOL1         0.3649
       5    C1      20.534807   21.168003   22.360723 C.3        1 MOL1         0.0207
       6    H4      19.718096   21.756261   22.787755 H          1 MOL1         0.0950
       7    H5      21.467713   21.488279   22.832616 H          1 MOL1         0.0950
       8    C2      20.304353   19.672153   22.651503 C.3        1 MOL1        -0.1415
       9    H6      21.111089   19.081187   22.198087 H          1 MOL1         0.0976
      10    H7      20.372240   19.527507   23.736670 H          1 MOL1         0.0976
      11    C3      18.928201   19.170079   22.150572 C.3        1 MOL1        -0.1375
      12    H8      18.817985   19.409193   21.084735 H          1 MOL1         0.0976
      13    H9      18.129935   19.717608   22.670563 H          1 MOL1         0.0976
      14    C4      18.702602   17.645406   22.322431 C.3        1 MOL1        -0.1375
      15    H10     17.719322   17.407030   21.893684 H          1 MOL1         0.0976
      16    H11     19.430711   17.085639   21.719319 H          1 MOL1         0.0976
      17    C5      18.722685   17.143751   23.789530 C.3        1 MOL1        -0.1350
      18    H12     17.982639   16.337913   23.894077 H          1 MOL1         0.0976
      19    H13     18.397429   17.941953   24.471204 H          1 MOL1         0.0976
      20    C6      20.097234   16.587265   24.229075 C.3        1 MOL1        -0.2365
      21    H14     20.395499   15.738898   23.599496 H          1 MOL1         0.0987
      22    H15     20.053515   16.231892   25.266723 H          1 MOL1         0.0987
      23    H16     20.887245   17.343945   24.170451 H          1 MOL1         0.0987
@<TRIPOS>BOND
    1     1     2    1
    2     1     3    1
    3     1     4    1
    4     1     5    1
    5     5     6    1
    6     5     7    1
    7     5     8    1
    8     8     9    1
    9     8    10    1
   10     8    11    1
   11    11    12    1
   12    11    13    1
   13    11    14    1
   14    14    15    1
   15    14    16    1
   16    14    17    1
   17    17    18    1
   18    17    19    1
   19    17    20    1
   20    20    21    1
   21    20    22    1
   22    20    23    1
@<TRIPOS>SUBSTRUCTURE
       1 MOL1            1 RESIDUE      1      MOL     
@<SCITEGIC>MOL_PROPERTY
VConf Rank
SciTegic.value.IntegerValue
389

@<SCITEGIC>MOL_PROPERTY
Conf_Id
SciTegic.value.IntegerValue
3

@<SCITEGIC>MOL_PROPERTY
Delta U+W
SciTegic.value.DoubleValue
3.283

@<SCITEGIC>MOL_PROPERTY
U+W
SciTegic.value.DoubleValue
-5.099

@<SCITEGIC>MOL_PROPERTY
Grad RMS
SciTegic.value.DoubleValue
0.000000

@<SCITEGIC>MOL_PROPERTY
U
SciTegic.value.DoubleValue
50.701

@<SCITEGIC>MOL_PROPERTY
W
SciTegic.value.DoubleValue
-55.800

@<SCITEGIC>MOL_PROPERTY
W(PB)
SciTegic.value.DoubleValue
-57.867

@<SCITEGIC>MOL_PROPERTY
W(SA)
SciTegic.value.DoubleValue
2.067

@<SCITEGIC>MOL_PROPERTY
Valence
SciTegic.value.DoubleValue
4.880

@<SCITEGIC>MOL_PROPERTY
Coulomb
SciTegic.value.DoubleValue
45.095

@<SCITEGIC>MOL_PROPERTY
VdW
SciTegic.value.DoubleValue
0.726

@<SCITEGIC>MOL_PROPERTY
VdW6
SciTegic.value.DoubleValue
-6.620

@<SCITEGIC>MOL_PROPERTY
VdW12
SciTegic.value.DoubleValue
7.346

@<SCITEGIC>MOL_PROPERTY
Bond
SciTegic.value.DoubleValue
0.222

@<SCITEGIC>MOL_PROPERTY
Angle
SciTegic.value.DoubleValue
1.260

@<SCITEGIC>MOL_PROPERTY
Pdih
SciTegic.value.DoubleValue
3.398

@<SCITEGIC>MOL_PROPERTY
Idih
SciTegic.value.DoubleValue
0.000

@<SCITEGIC>MOL_PROPERTY
Tether
SciTegic.value.DoubleValue
0.000

@<TRIPOS>MOLECULE
guest-2_confgen4.mol2 : confsearch ligand conformer 390
          23          22           1
SMALL
USER_CHARGES
 
@<TRIPOS>ATOM
       1    N1      20.192220   16.583389   24.047016 N.4        1 MOL1        -0.5940
       2    H1      20.314166   15.765370   23.441600 H          1 MOL1         0.3649
       3    H2      20.293601   16.257687   25.014215 H          1 MOL1         0.3649
       4    H3      20.974016   17.218511   23.859891 H          1 MOL1         0.3649
       5    C1      18.854890   17.259484   23.817375 C.3        1 MOL1         0.0207
       6    H4      18.776101   18.099991   24.511515 H          1 MOL1         0.0950
       7    H5      18.070935   16.539604   24.067804 H          1 MOL1         0.0950
       8    C2      18.650642   17.754669   22.370879 C.3        1 MOL1        -0.1415
       9    H6      18.680879   16.893408   21.690351 H          1 MOL1         0.0976
      10    H7      17.641317   18.178167   22.282714 H          1 MOL1         0.0976
      11    C3      19.688429   18.808340   21.907821 C.3        1 MOL1        -0.1375
      12    H8      19.475581   19.057188   20.860135 H          1 MOL1         0.0976
      13    H9      20.695778   18.371464   21.919491 H          1 MOL1         0.0976
      14    C4      19.667479   20.101564   22.761964 C.3        1 MOL1        -0.1375
      15    H10     18.666120   20.552347   22.726707 H          1 MOL1         0.0976
      16    H11     19.856288   19.850735   23.814005 H          1 MOL1         0.0976
      17    C5      20.720023   21.147810   22.321547 C.3        1 MOL1        -0.1350
      18    H12     21.725182   20.705691   22.365275 H          1 MOL1         0.0976
      19    H13     20.717167   21.975340   23.044769 H          1 MOL1         0.0976
      20    C6      20.465379   21.722470   20.909361 C.3        1 MOL1        -0.2365
      21    H14     19.453748   22.141129   20.829763 H          1 MOL1         0.0987
      22    H15     20.582776   20.955662   20.133816 H          1 MOL1         0.0987
      23    H16     21.179240   22.526347   20.687734 H          1 MOL1         0.0987
@<TRIPOS>BOND
    1     1     2    1
    2     1     3    1
    3     1     4    1
    4     1     5    1
    5     5     6    1
    6     5     7    1
    7     5     8    1
    8     8     9    1
    9     8    10    1
   10     8    11    1
   11    11    12    1
   12    11    13    1
   13    11    14    1
   14    14    15    1
   15    14    16    1
   16    14    17    1
   17    17    18    1
   18    17    19    1
   19    17    20    1
   20    20    21    1
   21    20    22    1
   22    20    23    1
@<TRIPOS>SUBSTRUCTURE
       1 MOL1            1 RESIDUE      1      MOL     
@<SCITEGIC>MOL_PROPERTY
VConf Rank
SciTegic.value.IntegerValue
390

@<SCITEGIC>MOL_PROPERTY
Conf_Id
SciTegic.value.IntegerValue
83

@<SCITEGIC>MOL_PROPERTY
Delta U+W
SciTegic.value.DoubleValue
1.229

@<SCITEGIC>MOL_PROPERTY
U+W
SciTegic.value.DoubleValue
-7.154

@<SCITEGIC>MOL_PROPERTY
Grad RMS
SciTegic.value.DoubleValue
0.000000

@<SCITEGIC>MOL_PROPERTY
U
SciTegic.value.DoubleValue
48.727

@<SCITEGIC>MOL_PROPERTY
W
SciTegic.value.DoubleValue
-55.880

@<SCITEGIC>MOL_PROPERTY
W(PB)
SciTegic.value.DoubleValue
-57.960

@<SCITEGIC>MOL_PROPERTY
W(SA)
SciTegic.value.DoubleValue
2.080

@<SCITEGIC>MOL_PROPERTY
Valence
SciTegic.value.DoubleValue
2.671

@<SCITEGIC>MOL_PROPERTY
Coulomb
SciTegic.value.DoubleValue
45.371

@<SCITEGIC>MOL_PROPERTY
VdW
SciTegic.value.DoubleValue
0.684

@<SCITEGIC>MOL_PROPERTY
VdW6
SciTegic.value.DoubleValue
-6.511

@<SCITEGIC>MOL_PROPERTY
VdW12
SciTegic.value.DoubleValue
7.195

@<SCITEGIC>MOL_PROPERTY
Bond
SciTegic.value.DoubleValue
0.203

@<SCITEGIC>MOL_PROPERTY
Angle
SciTegic.value.DoubleValue
0.915

@<SCITEGIC>MOL_PROPERTY
Pdih
SciTegic.value.DoubleValue
1.554

@<SCITEGIC>MOL_PROPERTY
Idih
SciTegic.value.DoubleValue
0.000

@<SCITEGIC>MOL_PROPERTY
Tether
SciTegic.value.DoubleValue
0.000

@<TRIPOS>MOLECULE
guest-2_confgen4.mol2 : confsearch ligand conformer 391
          23          22           1
SMALL
USER_CHARGES
 
@<TRIPOS>ATOM
       1    N1      17.089786   17.911084   22.021284 N.4        1 MOL1        -0.5940
       2    H1      17.116736   17.086968   21.412465 H          1 MOL1         0.3649
       3    H2      17.455426   18.700266   21.479898 H          1 MOL1         0.3649
       4    H3      16.101987   18.109306   22.213104 H          1 MOL1         0.3649
       5    C1      17.879150   17.694496   23.297329 C.3        1 MOL1         0.0207
       6    H4      17.415666   16.865055   23.838382 H          1 MOL1         0.0950
       7    H5      17.784381   18.593536   23.911525 H          1 MOL1         0.0950
       8    C2      19.369984   17.378972   23.058300 C.3        1 MOL1        -0.1415
       9    H6      19.848549   17.183970   24.027223 H          1 MOL1         0.0976
      10    H7      19.450652   16.446089   22.484691 H          1 MOL1         0.0976
      11    C3      20.146326   18.500108   22.322098 C.3        1 MOL1        -0.1375
      12    H8      19.723480   18.652027   21.320164 H          1 MOL1         0.0976
      13    H9      21.177281   18.155563   22.169464 H          1 MOL1         0.0976
      14    C4      20.158184   19.843156   23.095733 C.3        1 MOL1        -0.1375
      15    H10     19.126736   20.176378   23.270182 H          1 MOL1         0.0976
      16    H11     20.606995   19.695108   24.087610 H          1 MOL1         0.0976
      17    C5      20.909260   20.975057   22.353351 C.3        1 MOL1        -0.1350
      18    H12     20.770253   21.912819   22.909356 H          1 MOL1         0.0976
      19    H13     20.457667   21.135040   21.364313 H          1 MOL1         0.0976
      20    C6      22.424262   20.711096   22.197030 C.3        1 MOL1        -0.2365
      21    H14     22.893536   20.515154   23.169859 H          1 MOL1         0.0987
      22    H15     22.922109   21.583516   21.754350 H          1 MOL1         0.0987
      23    H16     22.619532   19.853551   21.541493 H          1 MOL1         0.0987
@<TRIPOS>BOND
    1     1     2    1
    2     1     3    1
    3     1     4    1
    4     1     5    1
    5     5     6    1
    6     5     7    1
    7     5     8    1
    8     8     9    1
    9     8    10    1
   10     8    11    1
   11    11    12    1
   12    11    13    1
   13    11    14    1
   14    14    15    1
   15    14    16    1
   16    14    17    1
   17    17    18    1
   18    17    19    1
   19    17    20    1
   20    20    21    1
   21    20    22    1
   22    20    23    1
@<TRIPOS>SUBSTRUCTURE
       1 MOL1            1 RESIDUE      1      MOL     
@<SCITEGIC>MOL_PROPERTY
VConf Rank
SciTegic.value.IntegerValue
391

@<SCITEGIC>MOL_PROPERTY
Conf_Id
SciTegic.value.IntegerValue
50

@<SCITEGIC>MOL_PROPERTY
Delta U+W
SciTegic.value.DoubleValue
1.252

@<SCITEGIC>MOL_PROPERTY
U+W
SciTegic.value.DoubleValue
-7.130

@<SCITEGIC>MOL_PROPERTY
Grad RMS
SciTegic.value.DoubleValue
0.000000

@<SCITEGIC>MOL_PROPERTY
U
SciTegic.value.DoubleValue
48.727

@<SCITEGIC>MOL_PROPERTY
W
SciTegic.value.DoubleValue
-55.857

@<SCITEGIC>MOL_PROPERTY
W(PB)
SciTegic.value.DoubleValue
-57.937

@<SCITEGIC>MOL_PROPERTY
W(SA)
SciTegic.value.DoubleValue
2.080

@<SCITEGIC>MOL_PROPERTY
Valence
SciTegic.value.DoubleValue
2.671

@<SCITEGIC>MOL_PROPERTY
Coulomb
SciTegic.value.DoubleValue
45.371

@<SCITEGIC>MOL_PROPERTY
VdW
SciTegic.value.DoubleValue
0.684

@<SCITEGIC>MOL_PROPERTY
VdW6
SciTegic.value.DoubleValue
-6.511

@<SCITEGIC>MOL_PROPERTY
VdW12
SciTegic.value.DoubleValue
7.196

@<SCITEGIC>MOL_PROPERTY
Bond
SciTegic.value.DoubleValue
0.203

@<SCITEGIC>MOL_PROPERTY
Angle
SciTegic.value.DoubleValue
0.915

@<SCITEGIC>MOL_PROPERTY
Pdih
SciTegic.value.DoubleValue
1.554

@<SCITEGIC>MOL_PROPERTY
Idih
SciTegic.value.DoubleValue
0.000

@<SCITEGIC>MOL_PROPERTY
Tether
SciTegic.value.DoubleValue
0.000

@<TRIPOS>MOLECULE
guest-2_confgen4.mol2 : confsearch ligand conformer 392
          23          22           1
SMALL
USER_CHARGES
 
@<TRIPOS>ATOM
       1    N1      17.193166   17.334250   23.274582 N.4        1 MOL1        -0.5940
       2    H1      17.945349   16.744784   23.643747 H          1 MOL1         0.3649
       3    H2      16.469941   16.704338   22.911147 H          1 MOL1         0.3649
       4    H3      16.781946   17.834219   24.069285 H          1 MOL1         0.3649
       5    C1      17.696861   18.287421   22.208281 C.3        1 MOL1         0.0207
       6    H4      16.837326   18.850591   21.834632 H          1 MOL1         0.0950
       7    H5      18.098553   17.692477   21.383601 H          1 MOL1         0.0950
       8    C2      18.772307   19.270542   22.709927 C.3        1 MOL1        -0.1415
       9    H6      18.988882   19.981515   21.904771 H          1 MOL1         0.0976
      10    H7      18.365942   19.861882   23.541162 H          1 MOL1         0.0976
      11    C3      20.072310   18.555492   23.158673 C.3        1 MOL1        -0.1375
      12    H8      20.434618   17.887071   22.365387 H          1 MOL1         0.0976
      13    H9      19.837570   17.911089   24.016361 H          1 MOL1         0.0976
      14    C4      21.197782   19.534692   23.583624 C.3        1 MOL1        -0.1375
      15    H10     20.765801   20.462014   23.984448 H          1 MOL1         0.0976
      16    H11     21.749248   19.080696   24.418647 H          1 MOL1         0.0976
      17    C5      22.225868   19.862809   22.470706 C.3        1 MOL1        -0.1350
      18    H12     22.726160   18.939195   22.147565 H          1 MOL1         0.0976
      19    H13     23.012034   20.499976   22.899397 H          1 MOL1         0.0976
      20    C6      21.626056   20.577570   21.240107 C.3        1 MOL1        -0.2365
      21    H14     21.068284   21.475412   21.536091 H          1 MOL1         0.0987
      22    H15     20.952844   19.914611   20.682841 H          1 MOL1         0.0987
      23    H16     22.422391   20.889001   20.551814 H          1 MOL1         0.0987
@<TRIPOS>BOND
    1     1     2    1
    2     1     3    1
    3     1     4    1
    4     1     5    1
    5     5     6    1
    6     5     7    1
    7     5     8    1
    8     8     9    1
    9     8    10    1
   10     8    11    1
   11    11    12    1
   12    11    13    1
   13    11    14    1
   14    14    15    1
   15    14    16    1
   16    14    17    1
   17    17    18    1
   18    17    19    1
   19    17    20    1
   20    20    21    1
   21    20    22    1
   22    20    23    1
@<TRIPOS>SUBSTRUCTURE
       1 MOL1            1 RESIDUE      1      MOL     
@<SCITEGIC>MOL_PROPERTY
VConf Rank
SciTegic.value.IntegerValue
392

@<SCITEGIC>MOL_PROPERTY
Conf_Id
SciTegic.value.IntegerValue
55

@<SCITEGIC>MOL_PROPERTY
Delta U+W
SciTegic.value.DoubleValue
3.232

@<SCITEGIC>MOL_PROPERTY
U+W
SciTegic.value.DoubleValue
-5.150

@<SCITEGIC>MOL_PROPERTY
Grad RMS
SciTegic.value.DoubleValue
0.000000

@<SCITEGIC>MOL_PROPERTY
U
SciTegic.value.DoubleValue
50.625

@<SCITEGIC>MOL_PROPERTY
W
SciTegic.value.DoubleValue
-55.776

@<SCITEGIC>MOL_PROPERTY
W(PB)
SciTegic.value.DoubleValue
-57.839

@<SCITEGIC>MOL_PROPERTY
W(SA)
SciTegic.value.DoubleValue
2.064

@<SCITEGIC>MOL_PROPERTY
Valence
SciTegic.value.DoubleValue
4.837

@<SCITEGIC>MOL_PROPERTY
Coulomb
SciTegic.value.DoubleValue
45.097

@<SCITEGIC>MOL_PROPERTY
VdW
SciTegic.value.DoubleValue
0.692

@<SCITEGIC>MOL_PROPERTY
VdW6
SciTegic.value.DoubleValue
-6.655

@<SCITEGIC>MOL_PROPERTY
VdW12
SciTegic.value.DoubleValue
7.347

@<SCITEGIC>MOL_PROPERTY
Bond
SciTegic.value.DoubleValue
0.223

@<SCITEGIC>MOL_PROPERTY
Angle
SciTegic.value.DoubleValue
1.167

@<SCITEGIC>MOL_PROPERTY
Pdih
SciTegic.value.DoubleValue
3.447

@<SCITEGIC>MOL_PROPERTY
Idih
SciTegic.value.DoubleValue
0.000

@<SCITEGIC>MOL_PROPERTY
Tether
SciTegic.value.DoubleValue
0.000

@<TRIPOS>MOLECULE
guest-2_confgen4.mol2 : confsearch ligand conformer 393
          23          22           1
SMALL
USER_CHARGES
 
@<TRIPOS>ATOM
       1    N1      18.552552   16.440525   23.824362 N.4        1 MOL1        -0.5940
       2    H1      17.938468   16.473491   24.644509 H          1 MOL1         0.3649
       3    H2      19.086911   15.567335   23.887591 H          1 MOL1         0.3649
       4    H3      17.949348   16.361851   22.999309 H          1 MOL1         0.3649
       5    C1      19.459646   17.651761   23.748621 C.3        1 MOL1         0.0207
       6    H4      20.105411   17.530601   22.877043 H          1 MOL1         0.0950
       7    H5      20.090213   17.655628   24.641801 H          1 MOL1         0.0950
       8    C2      18.683892   18.980705   23.659734 C.3        1 MOL1        -0.1415
       9    H6      18.010769   18.973094   22.792145 H          1 MOL1         0.0976
      10    H7      18.043428   19.060919   24.548211 H          1 MOL1         0.0976
      11    C3      19.609129   20.222667   23.605601 C.3        1 MOL1        -0.1375
      12    H8      20.481040   20.071162   24.257076 H          1 MOL1         0.0976
      13    H9      19.062848   21.074333   24.034251 H          1 MOL1         0.0976
      14    C4      20.071375   20.632810   22.183074 C.3        1 MOL1        -0.1375
      15    H10     19.193805   20.883025   21.571064 H          1 MOL1         0.0976
      16    H11     20.656883   21.558771   22.268027 H          1 MOL1         0.0976
      17    C5      20.920977   19.569084   21.450158 C.3        1 MOL1        -0.1350
      18    H12     20.302707   18.692620   21.216776 H          1 MOL1         0.0976
      19    H13     21.737480   19.228479   22.102069 H          1 MOL1         0.0976
      20    C6      21.511998   20.120017   20.134922 C.3        1 MOL1        -0.2365
      21    H14     22.171052   20.976989   20.325871 H          1 MOL1         0.0987
      22    H15     20.717201   20.445536   19.451119 H          1 MOL1         0.0987
      23    H16     22.102507   19.349386   19.622618 H          1 MOL1         0.0987
@<TRIPOS>BOND
    1     1     2    1
    2     1     3    1
    3     1     4    1
    4     1     5    1
    5     5     6    1
    6     5     7    1
    7     5     8    1
    8     8     9    1
    9     8    10    1
   10     8    11    1
   11    11    12    1
   12    11    13    1
   13    11    14    1
   14    14    15    1
   15    14    16    1
   16    14    17    1
   17    17    18    1
   18    17    19    1
   19    17    20    1
   20    20    21    1
   21    20    22    1
   22    20    23    1
@<TRIPOS>SUBSTRUCTURE
       1 MOL1            1 RESIDUE      1      MOL     
@<SCITEGIC>MOL_PROPERTY
VConf Rank
SciTegic.value.IntegerValue
393

@<SCITEGIC>MOL_PROPERTY
Conf_Id
SciTegic.value.IntegerValue
93

@<SCITEGIC>MOL_PROPERTY
Delta U+W
SciTegic.value.DoubleValue
2.589

@<SCITEGIC>MOL_PROPERTY
U+W
SciTegic.value.DoubleValue
-5.793

@<SCITEGIC>MOL_PROPERTY
Grad RMS
SciTegic.value.DoubleValue
0.000000

@<SCITEGIC>MOL_PROPERTY
U
SciTegic.value.DoubleValue
50.122

@<SCITEGIC>MOL_PROPERTY
W
SciTegic.value.DoubleValue
-55.915

@<SCITEGIC>MOL_PROPERTY
W(PB)
SciTegic.value.DoubleValue
-58.031

@<SCITEGIC>MOL_PROPERTY
W(SA)
SciTegic.value.DoubleValue
2.115

@<SCITEGIC>MOL_PROPERTY
Valence
SciTegic.value.DoubleValue
4.132

@<SCITEGIC>MOL_PROPERTY
Coulomb
SciTegic.value.DoubleValue
45.536

@<SCITEGIC>MOL_PROPERTY
VdW
SciTegic.value.DoubleValue
0.454

@<SCITEGIC>MOL_PROPERTY
VdW6
SciTegic.value.DoubleValue
-6.262

@<SCITEGIC>MOL_PROPERTY
VdW12
SciTegic.value.DoubleValue
6.715

@<SCITEGIC>MOL_PROPERTY
Bond
SciTegic.value.DoubleValue
0.182

@<SCITEGIC>MOL_PROPERTY
Angle
SciTegic.value.DoubleValue
1.157

@<SCITEGIC>MOL_PROPERTY
Pdih
SciTegic.value.DoubleValue
2.794

@<SCITEGIC>MOL_PROPERTY
Idih
SciTegic.value.DoubleValue
0.000

@<SCITEGIC>MOL_PROPERTY
Tether
SciTegic.value.DoubleValue
0.000

@<TRIPOS>MOLECULE
guest-2_confgen4.mol2 : confsearch ligand conformer 394
          23          22           1
SMALL
USER_CHARGES
 
@<TRIPOS>ATOM
       1    N1      16.871993   18.398241   23.806880 N.4        1 MOL1        -0.5940
       2    H1      17.316327   17.992980   24.636993 H          1 MOL1         0.3649
       3    H2      16.268081   17.671933   23.407173 H          1 MOL1         0.3649
       4    H3      16.256740   19.151091   24.131701 H          1 MOL1         0.3649
       5    C1      17.893347   18.896032   22.804539 C.3        1 MOL1         0.0207
       6    H4      17.351754   19.285822   21.938433 H          1 MOL1         0.0950
       7    H5      18.485087   18.038967   22.478007 H          1 MOL1         0.0950
       8    C2      18.811634   19.994595   23.375237 C.3        1 MOL1        -0.1415
       9    H6      18.179635   20.832931   23.697401 H          1 MOL1         0.0976
      10    H7      19.327898   19.632366   24.274194 H          1 MOL1         0.0976
      11    C3      19.842054   20.521960   22.344904 C.3        1 MOL1        -0.1375
      12    H8      20.088920   21.559563   22.609356 H          1 MOL1         0.0976
      13    H9      19.385028   20.570829   21.346734 H          1 MOL1         0.0976
      14    C4      21.172187   19.726665   22.283860 C.3        1 MOL1        -0.1375
      15    H10     21.841576   20.234673   21.575844 H          1 MOL1         0.0976
      16    H11     21.671638   19.773302   23.261441 H          1 MOL1         0.0976
      17    C5      21.019972   18.248730   21.856029 C.3        1 MOL1        -0.1350
      18    H12     20.421346   18.185297   20.936626 H          1 MOL1         0.0976
      19    H13     20.484755   17.687776   22.633068 H          1 MOL1         0.0976
      20    C6      22.391234   17.580041   21.621130 C.3        1 MOL1        -0.2365
      21    H14     22.265138   16.529405   21.329083 H          1 MOL1         0.0987
      22    H15     23.003712   17.605418   22.531885 H          1 MOL1         0.0987
      23    H16     22.946639   18.086982   20.821286 H          1 MOL1         0.0987
@<TRIPOS>BOND
    1     1     2    1
    2     1     3    1
    3     1     4    1
    4     1     5    1
    5     5     6    1
    6     5     7    1
    7     5     8    1
    8     8     9    1
    9     8    10    1
   10     8    11    1
   11    11    12    1
   12    11    13    1
   13    11    14    1
   14    14    15    1
   15    14    16    1
   16    14    17    1
   17    17    18    1
   18    17    19    1
   19    17    20    1
   20    20    21    1
   21    20    22    1
   22    20    23    1
@<TRIPOS>SUBSTRUCTURE
       1 MOL1            1 RESIDUE      1      MOL     
@<SCITEGIC>MOL_PROPERTY
VConf Rank
SciTegic.value.IntegerValue
394

@<SCITEGIC>MOL_PROPERTY
Conf_Id
SciTegic.value.IntegerValue
70

@<SCITEGIC>MOL_PROPERTY
Delta U+W
SciTegic.value.DoubleValue
2.599

@<SCITEGIC>MOL_PROPERTY
U+W
SciTegic.value.DoubleValue
-5.783

@<SCITEGIC>MOL_PROPERTY
Grad RMS
SciTegic.value.DoubleValue
0.000000

@<SCITEGIC>MOL_PROPERTY
U
SciTegic.value.DoubleValue
50.122

@<SCITEGIC>MOL_PROPERTY
W
SciTegic.value.DoubleValue
-55.906

@<SCITEGIC>MOL_PROPERTY
W(PB)
SciTegic.value.DoubleValue
-58.010

@<SCITEGIC>MOL_PROPERTY
W(SA)
SciTegic.value.DoubleValue
2.105

@<SCITEGIC>MOL_PROPERTY
Valence
SciTegic.value.DoubleValue
4.132

@<SCITEGIC>MOL_PROPERTY
Coulomb
SciTegic.value.DoubleValue
45.536

@<SCITEGIC>MOL_PROPERTY
VdW
SciTegic.value.DoubleValue
0.454

@<SCITEGIC>MOL_PROPERTY
VdW6
SciTegic.value.DoubleValue
-6.262

@<SCITEGIC>MOL_PROPERTY
VdW12
SciTegic.value.DoubleValue
6.715

@<SCITEGIC>MOL_PROPERTY
Bond
SciTegic.value.DoubleValue
0.182

@<SCITEGIC>MOL_PROPERTY
Angle
SciTegic.value.DoubleValue
1.157

@<SCITEGIC>MOL_PROPERTY
Pdih
SciTegic.value.DoubleValue
2.794

@<SCITEGIC>MOL_PROPERTY
Idih
SciTegic.value.DoubleValue
0.000

@<SCITEGIC>MOL_PROPERTY
Tether
SciTegic.value.DoubleValue
0.000

@<TRIPOS>MOLECULE
guest-2_confgen4.mol2 : confsearch ligand conformer 395
          23          22           1
SMALL
USER_CHARGES
 
@<TRIPOS>ATOM
       1    N1      21.347076   16.712181   23.335517 N.4        1 MOL1        -0.5940
       2    H1      22.182362   16.385642   22.839354 H          1 MOL1         0.3649
       3    H2      21.075397   15.967665   23.986401 H          1 MOL1         0.3649
       4    H3      21.626833   17.519433   23.900801 H          1 MOL1         0.3649
       5    C1      20.224628   17.061612   22.378312 C.3        1 MOL1         0.0207
       6    H4      19.357549   17.368433   22.969058 H          1 MOL1         0.0950
       7    H5      19.958523   16.153143   21.831167 H          1 MOL1         0.0950
       8    C2      20.591334   18.174539   21.375963 C.3        1 MOL1        -0.1415
       9    H6      21.440894   17.841716   20.765069 H          1 MOL1         0.0976
      10    H7      19.756278   18.310951   20.677043 H          1 MOL1         0.0976
      11    C3      20.942579   19.531369   22.041279 C.3        1 MOL1        -0.1375
      12    H8      21.149318   20.268806   21.253466 H          1 MOL1         0.0976
      13    H9      21.880606   19.427059   22.602934 H          1 MOL1         0.0976
      14    C4      19.852314   20.095724   22.988711 C.3        1 MOL1        -0.1375
      15    H10     19.699274   19.413939   23.835847 H          1 MOL1         0.0976
      16    H11     20.221976   21.036081   23.420471 H          1 MOL1         0.0976
      17    C5      18.500849   20.363597   22.285375 C.3        1 MOL1        -0.1350
      18    H12     18.077672   19.423471   21.907193 H          1 MOL1         0.0976
      19    H13     18.658527   21.015352   21.414705 H          1 MOL1         0.0976
      20    C6      17.482895   21.022399   23.240431 C.3        1 MOL1        -0.2365
      21    H14     16.529843   21.202922   22.726508 H          1 MOL1         0.0987
      22    H15     17.854317   21.987347   23.609367 H          1 MOL1         0.0987
      23    H16     17.281770   20.379375   24.107191 H          1 MOL1         0.0987
@<TRIPOS>BOND
    1     1     2    1
    2     1     3    1
    3     1     4    1
    4     1     5    1
    5     5     6    1
    6     5     7    1
    7     5     8    1
    8     8     9    1
    9     8    10    1
   10     8    11    1
   11    11    12    1
   12    11    13    1
   13    11    14    1
   14    14    15    1
   15    14    16    1
   16    14    17    1
   17    17    18    1
   18    17    19    1
   19    17    20    1
   20    20    21    1
   21    20    22    1
   22    20    23    1
@<TRIPOS>SUBSTRUCTURE
       1 MOL1            1 RESIDUE      1      MOL     
@<SCITEGIC>MOL_PROPERTY
VConf Rank
SciTegic.value.IntegerValue
395

@<SCITEGIC>MOL_PROPERTY
Conf_Id
SciTegic.value.IntegerValue
72

@<SCITEGIC>MOL_PROPERTY
Delta U+W
SciTegic.value.DoubleValue
1.051

@<SCITEGIC>MOL_PROPERTY
U+W
SciTegic.value.DoubleValue
-7.331

@<SCITEGIC>MOL_PROPERTY
Grad RMS
SciTegic.value.DoubleValue
0.000000

@<SCITEGIC>MOL_PROPERTY
U
SciTegic.value.DoubleValue
48.590

@<SCITEGIC>MOL_PROPERTY
W
SciTegic.value.DoubleValue
-55.922

@<SCITEGIC>MOL_PROPERTY
W(PB)
SciTegic.value.DoubleValue
-58.012

@<SCITEGIC>MOL_PROPERTY
W(SA)
SciTegic.value.DoubleValue
2.090

@<SCITEGIC>MOL_PROPERTY
Valence
SciTegic.value.DoubleValue
2.601

@<SCITEGIC>MOL_PROPERTY
Coulomb
SciTegic.value.DoubleValue
45.520

@<SCITEGIC>MOL_PROPERTY
VdW
SciTegic.value.DoubleValue
0.469

@<SCITEGIC>MOL_PROPERTY
VdW6
SciTegic.value.DoubleValue
-6.867

@<SCITEGIC>MOL_PROPERTY
VdW12
SciTegic.value.DoubleValue
7.336

@<SCITEGIC>MOL_PROPERTY
Bond
SciTegic.value.DoubleValue
0.205

@<SCITEGIC>MOL_PROPERTY
Angle
SciTegic.value.DoubleValue
0.962

@<SCITEGIC>MOL_PROPERTY
Pdih
SciTegic.value.DoubleValue
1.434

@<SCITEGIC>MOL_PROPERTY
Idih
SciTegic.value.DoubleValue
0.000

@<SCITEGIC>MOL_PROPERTY
Tether
SciTegic.value.DoubleValue
0.000

@<TRIPOS>MOLECULE
guest-2_confgen4.mol2 : confsearch ligand conformer 396
          23          22           1
SMALL
USER_CHARGES
 
@<TRIPOS>ATOM
       1    N1      18.686345   19.842435   25.426638 N.4        1 MOL1        -0.5940
       2    H1      18.381532   20.763967   25.758037 H          1 MOL1         0.3649
       3    H2      19.124868   19.369726   26.223524 H          1 MOL1         0.3649
       4    H3      17.839436   19.314934   25.191798 H          1 MOL1         0.3649
       5    C1      19.629778   19.952618   24.246200 C.3        1 MOL1         0.0207
       6    H4      20.492306   20.548151   24.557224 H          1 MOL1         0.0950
       7    H5      19.109445   20.490405   23.449348 H          1 MOL1         0.0950
       8    C2      20.106332   18.584410   23.723974 C.3        1 MOL1        -0.1415
       9    H6      20.594121   18.037751   24.541870 H          1 MOL1         0.0976
      10    H7      19.240428   17.980760   23.423558 H          1 MOL1         0.0976
      11    C3      21.100728   18.708818   22.542974 C.3        1 MOL1        -0.1375
      12    H8      21.417962   17.704091   22.233402 H          1 MOL1         0.0976
      13    H9      22.011740   19.210316   22.897752 H          1 MOL1         0.0976
      14    C4      20.556888   19.483498   21.312174 C.3        1 MOL1        -0.1375
      15    H10     20.395939   20.535164   21.584931 H          1 MOL1         0.0976
      16    H11     21.333444   19.496268   20.535020 H          1 MOL1         0.0976
      17    C5      19.249021   18.918023   20.702304 C.3        1 MOL1        -0.1350
      18    H12     18.956737   19.550803   19.852686 H          1 MOL1         0.0976
      19    H13     18.428288   18.992115   21.428269 H          1 MOL1         0.0976
      20    C6      19.382278   17.458310   20.212412 C.3        1 MOL1        -0.2365
      21    H14     20.206023   17.357126   19.493980 H          1 MOL1         0.0987
      22    H15     18.459807   17.134244   19.713543 H          1 MOL1         0.0987
      23    H16     19.566717   16.769407   21.046051 H          1 MOL1         0.0987
@<TRIPOS>BOND
    1     1     2    1
    2     1     3    1
    3     1     4    1
    4     1     5    1
    5     5     6    1
    6     5     7    1
    7     5     8    1
    8     8     9    1
    9     8    10    1
   10     8    11    1
   11    11    12    1
   12    11    13    1
   13    11    14    1
   14    14    15    1
   15    14    16    1
   16    14    17    1
   17    17    18    1
   18    17    19    1
   19    17    20    1
   20    20    21    1
   21    20    22    1
   22    20    23    1
@<TRIPOS>SUBSTRUCTURE
       1 MOL1            1 RESIDUE      1      MOL     
@<SCITEGIC>MOL_PROPERTY
VConf Rank
SciTegic.value.IntegerValue
396

@<SCITEGIC>MOL_PROPERTY
Conf_Id
SciTegic.value.IntegerValue
26

@<SCITEGIC>MOL_PROPERTY
Delta U+W
SciTegic.value.DoubleValue
1.076

@<SCITEGIC>MOL_PROPERTY
U+W
SciTegic.value.DoubleValue
-7.306

@<SCITEGIC>MOL_PROPERTY
Grad RMS
SciTegic.value.DoubleValue
0.000000

@<SCITEGIC>MOL_PROPERTY
U
SciTegic.value.DoubleValue
48.641

@<SCITEGIC>MOL_PROPERTY
W
SciTegic.value.DoubleValue
-55.947

@<SCITEGIC>MOL_PROPERTY
W(PB)
SciTegic.value.DoubleValue
-58.031

@<SCITEGIC>MOL_PROPERTY
W(SA)
SciTegic.value.DoubleValue
2.084

@<SCITEGIC>MOL_PROPERTY
Valence
SciTegic.value.DoubleValue
2.922

@<SCITEGIC>MOL_PROPERTY
Coulomb
SciTegic.value.DoubleValue
45.269

@<SCITEGIC>MOL_PROPERTY
VdW
SciTegic.value.DoubleValue
0.449

@<SCITEGIC>MOL_PROPERTY
VdW6
SciTegic.value.DoubleValue
-7.045

@<SCITEGIC>MOL_PROPERTY
VdW12
SciTegic.value.DoubleValue
7.494

@<SCITEGIC>MOL_PROPERTY
Bond
SciTegic.value.DoubleValue
0.220

@<SCITEGIC>MOL_PROPERTY
Angle
SciTegic.value.DoubleValue
1.205

@<SCITEGIC>MOL_PROPERTY
Pdih
SciTegic.value.DoubleValue
1.497

@<SCITEGIC>MOL_PROPERTY
Idih
SciTegic.value.DoubleValue
0.000

@<SCITEGIC>MOL_PROPERTY
Tether
SciTegic.value.DoubleValue
0.000

@<TRIPOS>MOLECULE
guest-2_confgen4.mol2 : confsearch ligand conformer 397
          23          22           1
SMALL
USER_CHARGES
 
@<TRIPOS>ATOM
       1    N1      17.435560   20.927573   23.256619 N.4        1 MOL1        -0.5940
       2    H1      16.946576   20.737971   24.137374 H          1 MOL1         0.3649
       3    H2      16.755342   21.366679   22.626978 H          1 MOL1         0.3649
       4    H3      18.154371   21.630583   23.455996 H          1 MOL1         0.3649
       5    C1      18.026861   19.668321   22.656387 C.3        1 MOL1         0.0207
       6    H4      18.503402   19.938760   21.710498 H          1 MOL1         0.0950
       7    H5      17.206393   18.977769   22.443501 H          1 MOL1         0.0950
       8    C2      19.053579   18.984201   23.578150 C.3        1 MOL1        -0.1415
       9    H6      19.871162   19.680899   23.803098 H          1 MOL1         0.0976
      10    H7      18.574825   18.750703   24.538360 H          1 MOL1         0.0976
      11    C3      19.622885   17.677226   22.972534 C.3        1 MOL1        -0.1375
      12    H8      18.806182   16.949649   22.867942 H          1 MOL1         0.0976
      13    H9      20.328479   17.229086   23.684755 H          1 MOL1         0.0976
      14    C4      20.314951   17.845861   21.592909 C.3        1 MOL1        -0.1375
      15    H10     20.692529   16.866483   21.268222 H          1 MOL1         0.0976
      16    H11     19.567274   18.136641   20.842757 H          1 MOL1         0.0976
      17    C5      21.480843   18.866578   21.560421 C.3        1 MOL1        -0.1350
      18    H12     21.108073   19.876156   21.779312 H          1 MOL1         0.0976
      19    H13     21.880570   18.909034   20.537626 H          1 MOL1         0.0976
      20    C6      22.631633   18.513599   22.529754 C.3        1 MOL1        -0.2365
      21    H14     22.306450   18.565675   23.576226 H          1 MOL1         0.0987
      22    H15     23.466497   19.215679   22.407589 H          1 MOL1         0.0987
      23    H16     23.012538   17.502137   22.337930 H          1 MOL1         0.0987
@<TRIPOS>BOND
    1     1     2    1
    2     1     3    1
    3     1     4    1
    4     1     5    1
    5     5     6    1
    6     5     7    1
    7     5     8    1
    8     8     9    1
    9     8    10    1
   10     8    11    1
   11    11    12    1
   12    11    13    1
   13    11    14    1
   14    14    15    1
   15    14    16    1
   16    14    17    1
   17    17    18    1
   18    17    19    1
   19    17    20    1
   20    20    21    1
   21    20    22    1
   22    20    23    1
@<TRIPOS>SUBSTRUCTURE
       1 MOL1            1 RESIDUE      1      MOL     
@<SCITEGIC>MOL_PROPERTY
VConf Rank
SciTegic.value.IntegerValue
397

@<SCITEGIC>MOL_PROPERTY
Conf_Id
SciTegic.value.IntegerValue
90

@<SCITEGIC>MOL_PROPERTY
Delta U+W
SciTegic.value.DoubleValue
1.131

@<SCITEGIC>MOL_PROPERTY
U+W
SciTegic.value.DoubleValue
-7.251

@<SCITEGIC>MOL_PROPERTY
Grad RMS
SciTegic.value.DoubleValue
0.000000

@<SCITEGIC>MOL_PROPERTY
U
SciTegic.value.DoubleValue
48.641

@<SCITEGIC>MOL_PROPERTY
W
SciTegic.value.DoubleValue
-55.892

@<SCITEGIC>MOL_PROPERTY
W(PB)
SciTegic.value.DoubleValue
-57.962

@<SCITEGIC>MOL_PROPERTY
W(SA)
SciTegic.value.DoubleValue
2.070

@<SCITEGIC>MOL_PROPERTY
Valence
SciTegic.value.DoubleValue
2.922

@<SCITEGIC>MOL_PROPERTY
Coulomb
SciTegic.value.DoubleValue
45.269

@<SCITEGIC>MOL_PROPERTY
VdW
SciTegic.value.DoubleValue
0.450

@<SCITEGIC>MOL_PROPERTY
VdW6
SciTegic.value.DoubleValue
-7.045

@<SCITEGIC>MOL_PROPERTY
VdW12
SciTegic.value.DoubleValue
7.495

@<SCITEGIC>MOL_PROPERTY
Bond
SciTegic.value.DoubleValue
0.220

@<SCITEGIC>MOL_PROPERTY
Angle
SciTegic.value.DoubleValue
1.205

@<SCITEGIC>MOL_PROPERTY
Pdih
SciTegic.value.DoubleValue
1.497

@<SCITEGIC>MOL_PROPERTY
Idih
SciTegic.value.DoubleValue
0.000

@<SCITEGIC>MOL_PROPERTY
Tether
SciTegic.value.DoubleValue
0.000

@<TRIPOS>MOLECULE
guest-2_confgen4.mol2 : confsearch ligand conformer 398
          23          22           1
SMALL
USER_CHARGES
 
@<TRIPOS>ATOM
       1    N1      18.285264   16.794706   22.327507 N.4        1 MOL1        -0.5940
       2    H1      17.280733   16.598371   22.262525 H          1 MOL1         0.3649
       3    H2      18.430987   17.340062   23.182478 H          1 MOL1         0.3649
       4    H3      18.758191   15.894623   22.456983 H          1 MOL1         0.3649
       5    C1      18.796284   17.528013   21.102961 C.3        1 MOL1         0.0207
       6    H4      18.232405   18.459308   21.005762 H          1 MOL1         0.0950
       7    H5      18.579529   16.907905   20.228888 H          1 MOL1         0.0950
       8    C2      20.306945   17.835509   21.150275 C.3        1 MOL1        -0.1415
       9    H6      20.864884   16.891048   21.200155 H          1 MOL1         0.0976
      10    H7      20.598700   18.313313   20.205592 H          1 MOL1         0.0976
      11    C3      20.728189   18.742854   22.333432 C.3        1 MOL1        -0.1375
      12    H8      21.815977   18.891171   22.290659 H          1 MOL1         0.0976
      13    H9      20.526973   18.226358   23.280452 H          1 MOL1         0.0976
      14    C4      20.026238   20.124343   22.318394 C.3        1 MOL1        -0.1375
      15    H10     20.168178   20.587579   21.332223 H          1 MOL1         0.0976
      16    H11     18.942958   20.000567   22.449219 H          1 MOL1         0.0976
      17    C5      20.559825   21.095407   23.399001 C.3        1 MOL1        -0.1350
      18    H12     20.090576   22.078368   23.252614 H          1 MOL1         0.0976
      19    H13     21.639655   21.247315   23.262360 H          1 MOL1         0.0976
      20    C6      20.280041   20.619942   24.842881 C.3        1 MOL1        -0.2365
      21    H14     19.209081   20.435387   24.997548 H          1 MOL1         0.0987
      22    H15     20.596575   21.382555   25.566182 H          1 MOL1         0.0987
      23    H16     20.826059   19.697700   25.076855 H          1 MOL1         0.0987
@<TRIPOS>BOND
    1     1     2    1
    2     1     3    1
    3     1     4    1
    4     1     5    1
    5     5     6    1
    6     5     7    1
    7     5     8    1
    8     8     9    1
    9     8    10    1
   10     8    11    1
   11    11    12    1
   12    11    13    1
   13    11    14    1
   14    14    15    1
   15    14    16    1
   16    14    17    1
   17    17    18    1
   18    17    19    1
   19    17    20    1
   20    20    21    1
   21    20    22    1
   22    20    23    1
@<TRIPOS>SUBSTRUCTURE
       1 MOL1            1 RESIDUE      1      MOL     
@<SCITEGIC>MOL_PROPERTY
VConf Rank
SciTegic.value.IntegerValue
398

@<SCITEGIC>MOL_PROPERTY
Conf_Id
SciTegic.value.IntegerValue
85

@<SCITEGIC>MOL_PROPERTY
Delta U+W
SciTegic.value.DoubleValue
1.193

@<SCITEGIC>MOL_PROPERTY
U+W
SciTegic.value.DoubleValue
-7.189

@<SCITEGIC>MOL_PROPERTY
Grad RMS
SciTegic.value.DoubleValue
0.000000

@<SCITEGIC>MOL_PROPERTY
U
SciTegic.value.DoubleValue
48.775

@<SCITEGIC>MOL_PROPERTY
W
SciTegic.value.DoubleValue
-55.965

@<SCITEGIC>MOL_PROPERTY
W(PB)
SciTegic.value.DoubleValue
-58.038

@<SCITEGIC>MOL_PROPERTY
W(SA)
SciTegic.value.DoubleValue
2.073

@<SCITEGIC>MOL_PROPERTY
Valence
SciTegic.value.DoubleValue
2.602

@<SCITEGIC>MOL_PROPERTY
Coulomb
SciTegic.value.DoubleValue
45.581

@<SCITEGIC>MOL_PROPERTY
VdW
SciTegic.value.DoubleValue
0.592

@<SCITEGIC>MOL_PROPERTY
VdW6
SciTegic.value.DoubleValue
-6.616

@<SCITEGIC>MOL_PROPERTY
VdW12
SciTegic.value.DoubleValue
7.208

@<SCITEGIC>MOL_PROPERTY
Bond
SciTegic.value.DoubleValue
0.196

@<SCITEGIC>MOL_PROPERTY
Angle
SciTegic.value.DoubleValue
0.832

@<SCITEGIC>MOL_PROPERTY
Pdih
SciTegic.value.DoubleValue
1.574

@<SCITEGIC>MOL_PROPERTY
Idih
SciTegic.value.DoubleValue
0.000

@<SCITEGIC>MOL_PROPERTY
Tether
SciTegic.value.DoubleValue
0.000

@<TRIPOS>MOLECULE
guest-2_confgen4.mol2 : confsearch ligand conformer 399
          23          22           1
SMALL
USER_CHARGES
 
@<TRIPOS>ATOM
       1    N1      20.810328   17.190845   22.250445 N.4        1 MOL1        -0.5940
       2    H1      20.992750   18.194861   22.153781 H          1 MOL1         0.3649
       3    H2      21.156966   16.732143   21.400894 H          1 MOL1         0.3649
       4    H3      21.383100   16.849317   23.029101 H          1 MOL1         0.3649
       5    C1      19.336010   16.917057   22.476475 C.3        1 MOL1         0.0207
       6    H4      19.223236   15.833576   22.570616 H          1 MOL1         0.0950
       7    H5      18.780078   17.240319   21.592410 H          1 MOL1         0.0950
       8    C2      18.758104   17.594522   23.735754 C.3        1 MOL1        -0.1415
       9    H6      17.855426   17.041523   24.027650 H          1 MOL1         0.0976
      10    H7      19.460208   17.482569   24.572646 H          1 MOL1         0.0976
      11    C3      18.364737   19.086440   23.563846 C.3        1 MOL1        -0.1375
      12    H8      17.920526   19.420163   24.511903 H          1 MOL1         0.0976
      13    H9      17.564733   19.179611   22.816328 H          1 MOL1         0.0976
      14    C4      19.533191   20.044727   23.217925 C.3        1 MOL1        -0.1375
      15    H10     19.359538   21.003963   23.725319 H          1 MOL1         0.0976
      16    H11     20.474836   19.658892   23.630432 H          1 MOL1         0.0976
      17    C5      19.661744   20.326386   21.700941 C.3        1 MOL1        -0.1350
      18    H12     18.767941   20.864950   21.355688 H          1 MOL1         0.0976
      19    H13     19.692079   19.392840   21.126616 H          1 MOL1         0.0976
      20    C6      20.915407   21.167674   21.380956 C.3        1 MOL1        -0.2365
      21    H14     20.885133   22.133279   21.902549 H          1 MOL1         0.0987
      22    H15     20.981767   21.369884   20.303976 H          1 MOL1         0.0987
      23    H16     21.832967   20.646295   21.682642 H          1 MOL1         0.0987
@<TRIPOS>BOND
    1     1     2    1
    2     1     3    1
    3     1     4    1
    4     1     5    1
    5     5     6    1
    6     5     7    1
    7     5     8    1
    8     8     9    1
    9     8    10    1
   10     8    11    1
   11    11    12    1
   12    11    13    1
   13    11    14    1
   14    14    15    1
   15    14    16    1
   16    14    17    1
   17    17    18    1
   18    17    19    1
   19    17    20    1
   20    20    21    1
   21    20    22    1
   22    20    23    1
@<TRIPOS>SUBSTRUCTURE
       1 MOL1            1 RESIDUE      1      MOL     
@<SCITEGIC>MOL_PROPERTY
VConf Rank
SciTegic.value.IntegerValue
399

@<SCITEGIC>MOL_PROPERTY
Conf_Id
SciTegic.value.IntegerValue
82

@<SCITEGIC>MOL_PROPERTY
Delta U+W
SciTegic.value.DoubleValue
5.994

@<SCITEGIC>MOL_PROPERTY
U+W
SciTegic.value.DoubleValue
-2.388

@<SCITEGIC>MOL_PROPERTY
Grad RMS
SciTegic.value.DoubleValue
0.000000

@<SCITEGIC>MOL_PROPERTY
U
SciTegic.value.DoubleValue
52.836

@<SCITEGIC>MOL_PROPERTY
W
SciTegic.value.DoubleValue
-55.224

@<SCITEGIC>MOL_PROPERTY
W(PB)
SciTegic.value.DoubleValue
-57.261

@<SCITEGIC>MOL_PROPERTY
W(SA)
SciTegic.value.DoubleValue
2.037

@<SCITEGIC>MOL_PROPERTY
Valence
SciTegic.value.DoubleValue
5.785

@<SCITEGIC>MOL_PROPERTY
Coulomb
SciTegic.value.DoubleValue
46.744

@<SCITEGIC>MOL_PROPERTY
VdW
SciTegic.value.DoubleValue
0.307

@<SCITEGIC>MOL_PROPERTY
VdW6
SciTegic.value.DoubleValue
-7.672

@<SCITEGIC>MOL_PROPERTY
VdW12
SciTegic.value.DoubleValue
7.979

@<SCITEGIC>MOL_PROPERTY
Bond
SciTegic.value.DoubleValue
0.217

@<SCITEGIC>MOL_PROPERTY
Angle
SciTegic.value.DoubleValue
1.470

@<SCITEGIC>MOL_PROPERTY
Pdih
SciTegic.value.DoubleValue
4.098

@<SCITEGIC>MOL_PROPERTY
Idih
SciTegic.value.DoubleValue
0.000

@<SCITEGIC>MOL_PROPERTY
Tether
SciTegic.value.DoubleValue
0.000

@<TRIPOS>MOLECULE
guest-2_confgen4.mol2 : confsearch ligand conformer 400
          23          22           1
SMALL
USER_CHARGES
 
@<TRIPOS>ATOM
       1    N1      19.828445   19.370541   20.525274 N.4        1 MOL1        -0.5940
       2    H1      20.338927   18.725211   19.913740 H          1 MOL1         0.3649
       3    H2      19.172449   19.889235   19.931198 H          1 MOL1         0.3649
       4    H3      19.273131   18.803036   21.173532 H          1 MOL1         0.3649
       5    C1      20.768113   20.298811   21.270254 C.3        1 MOL1         0.0207
       6    H4      20.172481   21.005214   21.854502 H          1 MOL1         0.0950
       7    H5      21.322151   20.864633   20.516333 H          1 MOL1         0.0950
       8    C2      21.769681   19.571292   22.190197 C.3        1 MOL1        -0.1415
       9    H6      22.179418   18.693913   21.672324 H          1 MOL1         0.0976
      10    H7      22.621109   20.244833   22.355272 H          1 MOL1         0.0976
      11    C3      21.214260   19.160435   23.580456 C.3        1 MOL1        -0.1375
      12    H8      20.927141   20.055788   24.149117 H          1 MOL1         0.0976
      13    H9      22.042031   18.708040   24.144049 H          1 MOL1         0.0976
      14    C4      20.041931   18.146457   23.552973 C.3        1 MOL1        -0.1375
      15    H10     20.112376   17.509443   22.661360 H          1 MOL1         0.0976
      16    H11     20.148007   17.467228   24.410372 H          1 MOL1         0.0976
      17    C5      18.651186   18.819909   23.649905 C.3        1 MOL1        -0.1350
      18    H12     18.544158   19.615460   22.902959 H          1 MOL1         0.0976
      19    H13     18.553427   19.309390   24.629183 H          1 MOL1         0.0976
      20    C6      17.508522   17.796800   23.478470 C.3        1 MOL1        -0.2365
      21    H14     17.553842   17.309565   22.495965 H          1 MOL1         0.0987
      22    H15     16.531239   18.289326   23.565169 H          1 MOL1         0.0987
      23    H16     17.560416   17.016027   24.248580 H          1 MOL1         0.0987
@<TRIPOS>BOND
    1     1     2    1
    2     1     3    1
    3     1     4    1
    4     1     5    1
    5     5     6    1
    6     5     7    1
    7     5     8    1
    8     8     9    1
    9     8    10    1
   10     8    11    1
   11    11    12    1
   12    11    13    1
   13    11    14    1
   14    14    15    1
   15    14    16    1
   16    14    17    1
   17    17    18    1
   18    17    19    1
   19    17    20    1
   20    20    21    1
   21    20    22    1
   22    20    23    1
@<TRIPOS>SUBSTRUCTURE
       1 MOL1            1 RESIDUE      1      MOL     
@<SCITEGIC>MOL_PROPERTY
VConf Rank
SciTegic.value.IntegerValue
400

@<SCITEGIC>MOL_PROPERTY
Conf_Id
SciTegic.value.IntegerValue
5

@<SCITEGIC>MOL_PROPERTY
Delta U+W
SciTegic.value.DoubleValue
6.087

@<SCITEGIC>MOL_PROPERTY
U+W
SciTegic.value.DoubleValue
-2.295

@<SCITEGIC>MOL_PROPERTY
Grad RMS
SciTegic.value.DoubleValue
0.000000

@<SCITEGIC>MOL_PROPERTY
U
SciTegic.value.DoubleValue
52.836

@<SCITEGIC>MOL_PROPERTY
W
SciTegic.value.DoubleValue
-55.131

@<SCITEGIC>MOL_PROPERTY
W(PB)
SciTegic.value.DoubleValue
-57.202

@<SCITEGIC>MOL_PROPERTY
W(SA)
SciTegic.value.DoubleValue
2.071

@<SCITEGIC>MOL_PROPERTY
Valence
SciTegic.value.DoubleValue
5.785

@<SCITEGIC>MOL_PROPERTY
Coulomb
SciTegic.value.DoubleValue
46.744

@<SCITEGIC>MOL_PROPERTY
VdW
SciTegic.value.DoubleValue
0.307

@<SCITEGIC>MOL_PROPERTY
VdW6
SciTegic.value.DoubleValue
-7.672

@<SCITEGIC>MOL_PROPERTY
VdW12
SciTegic.value.DoubleValue
7.980

@<SCITEGIC>MOL_PROPERTY
Bond
SciTegic.value.DoubleValue
0.217

@<SCITEGIC>MOL_PROPERTY
Angle
SciTegic.value.DoubleValue
1.470

@<SCITEGIC>MOL_PROPERTY
Pdih
SciTegic.value.DoubleValue
4.098

@<SCITEGIC>MOL_PROPERTY
Idih
SciTegic.value.DoubleValue
0.000

@<SCITEGIC>MOL_PROPERTY
Tether
SciTegic.value.DoubleValue
0.000

@<TRIPOS>MOLECULE
guest-2_confgen4.mol2 : confsearch ligand conformer 401
          23          22           1
SMALL
USER_CHARGES
 
@<TRIPOS>ATOM
       1    N1      22.263385   18.642728   25.502308 N.4        1 MOL1        -0.5940
       2    H1      22.965428   18.105789   24.982965 H          1 MOL1         0.3649
       3    H2      22.294273   18.312866   26.473045 H          1 MOL1         0.3649
       4    H3      22.575306   19.619219   25.509651 H          1 MOL1         0.3649
       5    C1      20.880193   18.495247   24.901535 C.3        1 MOL1         0.0207
       6    H4      20.181428   19.066160   25.519015 H          1 MOL1         0.0950
       7    H5      20.600746   17.439424   24.952948 H          1 MOL1         0.0950
       8    C2      20.800132   18.981906   23.443684 C.3        1 MOL1        -0.1415
       9    H6      21.097204   20.038051   23.394625 H          1 MOL1         0.0976
      10    H7      21.515128   18.417119   22.830581 H          1 MOL1         0.0976
      11    C3      19.376034   18.814666   22.869091 C.3        1 MOL1        -0.1375
      12    H8      18.663020   19.376809   23.488290 H          1 MOL1         0.0976
      13    H9      19.080534   17.757605   22.924807 H          1 MOL1         0.0976
      14    C4      19.284106   19.300571   21.404697 C.3        1 MOL1        -0.1375
      15    H10     19.579406   20.357544   21.348841 H          1 MOL1         0.0976
      16    H11     19.996971   18.738573   20.785427 H          1 MOL1         0.0976
      17    C5      17.859747   19.133084   20.830322 C.3        1 MOL1        -0.1350
      18    H12     17.143068   19.695572   21.445100 H          1 MOL1         0.0976
      19    H13     17.560606   18.076748   20.881725 H          1 MOL1         0.0976
      20    C6      17.771847   19.619319   19.368009 C.3        1 MOL1        -0.2365
      21    H14     16.753645   19.492494   18.977848 H          1 MOL1         0.0987
      22    H15     18.453447   19.051333   18.721447 H          1 MOL1         0.0987
      23    H16     18.032675   20.682799   19.289219 H          1 MOL1         0.0987
@<TRIPOS>BOND
    1     1     2    1
    2     1     3    1
    3     1     4    1
    4     1     5    1
    5     5     6    1
    6     5     7    1
    7     5     8    1
    8     8     9    1
    9     8    10    1
   10     8    11    1
   11    11    12    1
   12    11    13    1
   13    11    14    1
   14    14    15    1
   15    14    16    1
   16    14    17    1
   17    17    18    1
   18    17    19    1
   19    17    20    1
   20    20    21    1
   21    20    22    1
   22    20    23    1
@<TRIPOS>SUBSTRUCTURE
       1 MOL1            1 RESIDUE      1      MOL     
@<SCITEGIC>MOL_PROPERTY
VConf Rank
SciTegic.value.IntegerValue
401

@<SCITEGIC>MOL_PROPERTY
Conf_Id
SciTegic.value.IntegerValue
40

@<SCITEGIC>MOL_PROPERTY
Delta U+W
SciTegic.value.DoubleValue
0.000

@<SCITEGIC>MOL_PROPERTY
U+W
SciTegic.value.DoubleValue
-8.382

@<SCITEGIC>MOL_PROPERTY
Grad RMS
SciTegic.value.DoubleValue
0.000000

@<SCITEGIC>MOL_PROPERTY
U
SciTegic.value.DoubleValue
46.604

@<SCITEGIC>MOL_PROPERTY
W
SciTegic.value.DoubleValue
-54.986

@<SCITEGIC>MOL_PROPERTY
W(PB)
SciTegic.value.DoubleValue
-57.162

@<SCITEGIC>MOL_PROPERTY
W(SA)
SciTegic.value.DoubleValue
2.176

@<SCITEGIC>MOL_PROPERTY
Valence
SciTegic.value.DoubleValue
1.727

@<SCITEGIC>MOL_PROPERTY
Coulomb
SciTegic.value.DoubleValue
44.434

@<SCITEGIC>MOL_PROPERTY
VdW
SciTegic.value.DoubleValue
0.443

@<SCITEGIC>MOL_PROPERTY
VdW6
SciTegic.value.DoubleValue
-4.623

@<SCITEGIC>MOL_PROPERTY
VdW12
SciTegic.value.DoubleValue
5.066

@<SCITEGIC>MOL_PROPERTY
Bond
SciTegic.value.DoubleValue
0.112

@<SCITEGIC>MOL_PROPERTY
Angle
SciTegic.value.DoubleValue
0.386

@<SCITEGIC>MOL_PROPERTY
Pdih
SciTegic.value.DoubleValue
1.228

@<SCITEGIC>MOL_PROPERTY
Idih
SciTegic.value.DoubleValue
0.000

@<SCITEGIC>MOL_PROPERTY
Tether
SciTegic.value.DoubleValue
0.000

@<TRIPOS>MOLECULE
guest-2_confgen4.mol2 : confsearch ligand conformer 402
          23          22           1
SMALL
USER_CHARGES
 
@<TRIPOS>ATOM
       1    N1      21.094643   19.170341   25.925398 N.4        1 MOL1        -0.5940
       2    H1      21.570059   18.292611   26.158659 H          1 MOL1         0.3649
       3    H2      20.197040   19.167825   26.420509 H          1 MOL1         0.3649
       4    H3      21.655219   19.928880   26.328389 H          1 MOL1         0.3649
       5    C1      20.915172   19.336085   24.430038 C.3        1 MOL1         0.0207
       6    H4      21.907470   19.358989   23.971528 H          1 MOL1         0.0950
       7    H5      20.433030   20.301323   24.255758 H          1 MOL1         0.0950
       8    C2      20.076779   18.210704   23.794629 C.3        1 MOL1        -0.1415
       9    H6      20.547757   17.244283   24.018590 H          1 MOL1         0.0976
      10    H7      19.079538   18.188007   24.253953 H          1 MOL1         0.0976
      11    C3      19.939551   18.357201   22.260572 C.3        1 MOL1        -0.1375
      12    H8      19.431550   17.463945   21.874580 H          1 MOL1         0.0976
      13    H9      20.938464   18.369867   21.802988 H          1 MOL1         0.0976
      14    C4      19.154123   19.625096   21.838529 C.3        1 MOL1        -0.1375
      15    H10     18.148049   19.601642   22.279534 H          1 MOL1         0.0976
      16    H11     19.649165   20.516491   22.245782 H          1 MOL1         0.0976
      17    C5      19.040712   19.797039   20.304221 C.3        1 MOL1        -0.1350
      18    H12     20.044733   19.831717   19.858647 H          1 MOL1         0.0976
      19    H13     18.577408   20.770948   20.092739 H          1 MOL1         0.0976
      20    C6      18.205404   18.691222   19.619518 C.3        1 MOL1        -0.2365
      21    H14     18.693396   17.711639   19.693940 H          1 MOL1         0.0987
      22    H15     18.075477   18.913675   18.552475 H          1 MOL1         0.0987
      23    H16     17.207257   18.614146   20.069821 H          1 MOL1         0.0987
@<TRIPOS>BOND
    1     1     2    1
    2     1     3    1
    3     1     4    1
    4     1     5    1
    5     5     6    1
    6     5     7    1
    7     5     8    1
    8     8     9    1
    9     8    10    1
   10     8    11    1
   11    11    12    1
   12    11    13    1
   13    11    14    1
   14    14    15    1
   15    14    16    1
   16    14    17    1
   17    17    18    1
   18    17    19    1
   19    17    20    1
   20    20    21    1
   21    20    22    1
   22    20    23    1
@<TRIPOS>SUBSTRUCTURE
       1 MOL1            1 RESIDUE      1      MOL     
@<SCITEGIC>MOL_PROPERTY
VConf Rank
SciTegic.value.IntegerValue
402

@<SCITEGIC>MOL_PROPERTY
Conf_Id
SciTegic.value.IntegerValue
65

@<SCITEGIC>MOL_PROPERTY
Delta U+W
SciTegic.value.DoubleValue
1.004

@<SCITEGIC>MOL_PROPERTY
U+W
SciTegic.value.DoubleValue
-7.378

@<SCITEGIC>MOL_PROPERTY
Grad RMS
SciTegic.value.DoubleValue
0.000000

@<SCITEGIC>MOL_PROPERTY
U
SciTegic.value.DoubleValue
48.047

@<SCITEGIC>MOL_PROPERTY
W
SciTegic.value.DoubleValue
-55.425

@<SCITEGIC>MOL_PROPERTY
W(PB)
SciTegic.value.DoubleValue
-57.542

@<SCITEGIC>MOL_PROPERTY
W(SA)
SciTegic.value.DoubleValue
2.116

@<SCITEGIC>MOL_PROPERTY
Valence
SciTegic.value.DoubleValue
2.583

@<SCITEGIC>MOL_PROPERTY
Coulomb
SciTegic.value.DoubleValue
44.791

@<SCITEGIC>MOL_PROPERTY
VdW
SciTegic.value.DoubleValue
0.673

@<SCITEGIC>MOL_PROPERTY
VdW6
SciTegic.value.DoubleValue
-5.788

@<SCITEGIC>MOL_PROPERTY
VdW12
SciTegic.value.DoubleValue
6.462

@<SCITEGIC>MOL_PROPERTY
Bond
SciTegic.value.DoubleValue
0.177

@<SCITEGIC>MOL_PROPERTY
Angle
SciTegic.value.DoubleValue
0.787

@<SCITEGIC>MOL_PROPERTY
Pdih
SciTegic.value.DoubleValue
1.619

@<SCITEGIC>MOL_PROPERTY
Idih
SciTegic.value.DoubleValue
0.000

@<SCITEGIC>MOL_PROPERTY
Tether
SciTegic.value.DoubleValue
0.000

@<TRIPOS>MOLECULE
guest-2_confgen4.mol2 : confsearch ligand conformer 403
          23          22           1
SMALL
USER_CHARGES
 
@<TRIPOS>ATOM
       1    N1      22.116982   16.607222   23.805857 N.4        1 MOL1        -0.5940
       2    H1      21.958011   15.701008   23.353815 H          1 MOL1         0.3649
       3    H2      22.355050   16.414092   24.784659 H          1 MOL1         0.3649
       4    H3      22.949877   17.018431   23.372237 H          1 MOL1         0.3649
       5    C1      20.910901   17.516844   23.688679 C.3        1 MOL1         0.0207
       6    H4      21.139962   18.446054   24.216523 H          1 MOL1         0.0950
       7    H5      20.071718   17.031448   24.194221 H          1 MOL1         0.0950
       8    C2      20.527760   17.825707   22.228904 C.3        1 MOL1        -0.1415
       9    H6      21.369898   18.314352   21.720954 H          1 MOL1         0.0976
      10    H7      20.347095   16.880794   21.699332 H          1 MOL1         0.0976
      11    C3      19.265598   18.713080   22.114313 C.3        1 MOL1        -0.1375
      12    H8      18.422457   18.217131   22.614830 H          1 MOL1         0.0976
      13    H9      18.995790   18.790659   21.053112 H          1 MOL1         0.0976
      14    C4      19.464147   20.132184   22.705326 C.3        1 MOL1        -0.1375
      15    H10     19.758048   20.053031   23.760249 H          1 MOL1         0.0976
      16    H11     20.294024   20.635333   22.190189 H          1 MOL1         0.0976
      17    C5      18.195651   21.015899   22.624797 C.3        1 MOL1        -0.1350
      18    H12     18.385145   21.953357   23.166217 H          1 MOL1         0.0976
      19    H13     17.364630   20.522201   23.147736 H          1 MOL1         0.0976
      20    C6      17.771368   21.355825   21.177792 C.3        1 MOL1        -0.2365
      21    H14     17.449391   20.461422   20.630406 H          1 MOL1         0.0987
      22    H15     18.596567   21.820959   20.623079 H          1 MOL1         0.0987
      23    H16     16.929820   22.060620   21.180199 H          1 MOL1         0.0987
@<TRIPOS>BOND
    1     1     2    1
    2     1     3    1
    3     1     4    1
    4     1     5    1
    5     5     6    1
    6     5     7    1
    7     5     8    1
    8     8     9    1
    9     8    10    1
   10     8    11    1
   11    11    12    1
   12    11    13    1
   13    11    14    1
   14    14    15    1
   15    14    16    1
   16    14    17    1
   17    17    18    1
   18    17    19    1
   19    17    20    1
   20    20    21    1
   21    20    22    1
   22    20    23    1
@<TRIPOS>SUBSTRUCTURE
       1 MOL1            1 RESIDUE      1      MOL     
@<SCITEGIC>MOL_PROPERTY
VConf Rank
SciTegic.value.IntegerValue
403

@<SCITEGIC>MOL_PROPERTY
Conf_Id
SciTegic.value.IntegerValue
92

@<SCITEGIC>MOL_PROPERTY
Delta U+W
SciTegic.value.DoubleValue
0.973

@<SCITEGIC>MOL_PROPERTY
U+W
SciTegic.value.DoubleValue
-7.409

@<SCITEGIC>MOL_PROPERTY
Grad RMS
SciTegic.value.DoubleValue
0.000000

@<SCITEGIC>MOL_PROPERTY
U
SciTegic.value.DoubleValue
48.047

@<SCITEGIC>MOL_PROPERTY
W
SciTegic.value.DoubleValue
-55.456

@<SCITEGIC>MOL_PROPERTY
W(PB)
SciTegic.value.DoubleValue
-57.595

@<SCITEGIC>MOL_PROPERTY
W(SA)
SciTegic.value.DoubleValue
2.138

@<SCITEGIC>MOL_PROPERTY
Valence
SciTegic.value.DoubleValue
2.583

@<SCITEGIC>MOL_PROPERTY
Coulomb
SciTegic.value.DoubleValue
44.791

@<SCITEGIC>MOL_PROPERTY
VdW
SciTegic.value.DoubleValue
0.674

@<SCITEGIC>MOL_PROPERTY
VdW6
SciTegic.value.DoubleValue
-5.789

@<SCITEGIC>MOL_PROPERTY
VdW12
SciTegic.value.DoubleValue
6.462

@<SCITEGIC>MOL_PROPERTY
Bond
SciTegic.value.DoubleValue
0.177

@<SCITEGIC>MOL_PROPERTY
Angle
SciTegic.value.DoubleValue
0.787

@<SCITEGIC>MOL_PROPERTY
Pdih
SciTegic.value.DoubleValue
1.619

@<SCITEGIC>MOL_PROPERTY
Idih
SciTegic.value.DoubleValue
0.000

@<SCITEGIC>MOL_PROPERTY
Tether
SciTegic.value.DoubleValue
0.000

@<TRIPOS>MOLECULE
guest-2_confgen4.mol2 : confsearch ligand conformer 404
          23          22           1
SMALL
USER_CHARGES
 
@<TRIPOS>ATOM
       1    N1      21.259385   15.780597   22.749250 N.4        1 MOL1        -0.5940
       2    H1      21.223934   15.214510   23.603838 H          1 MOL1         0.3649
       3    H2      22.216262   15.713947   22.387589 H          1 MOL1         0.3649
       4    H3      20.646191   15.325906   22.065080 H          1 MOL1         0.3649
       5    C1      20.851422   17.216730   23.007833 C.3        1 MOL1         0.0207
       6    H4      21.525847   17.628405   23.763540 H          1 MOL1         0.0950
       7    H5      19.838409   17.208624   23.418238 H          1 MOL1         0.0950
       8    C2      20.894635   18.093574   21.742079 C.3        1 MOL1        -0.1415
       9    H6      21.905728   18.057371   21.315080 H          1 MOL1         0.0976
      10    H7      20.217841   17.679547   20.982786 H          1 MOL1         0.0976
      11    C3      20.521028   19.568203   22.023007 C.3        1 MOL1        -0.1375
      12    H8      20.662966   20.149161   21.101166 H          1 MOL1         0.0976
      13    H9      21.215823   19.987354   22.764102 H          1 MOL1         0.0976
      14    C4      19.064156   19.743232   22.515300 C.3        1 MOL1        -0.1375
      15    H10     18.374152   19.293699   21.787816 H          1 MOL1         0.0976
      16    H11     18.920966   19.207236   23.463067 H          1 MOL1         0.0976
      17    C5      18.701238   21.231477   22.715774 C.3        1 MOL1        -0.1350
      18    H12     18.832881   21.776616   21.770547 H          1 MOL1         0.0976
      19    H13     19.389052   21.686444   23.442337 H          1 MOL1         0.0976
      20    C6      17.248586   21.404791   23.208042 C.3        1 MOL1        -0.2365
      21    H14     16.534561   20.988817   22.485296 H          1 MOL1         0.0987
      22    H15     17.009589   22.467541   23.344013 H          1 MOL1         0.0987
      23    H16     17.094749   20.899245   24.170320 H          1 MOL1         0.0987
@<TRIPOS>BOND
    1     1     2    1
    2     1     3    1
    3     1     4    1
    4     1     5    1
    5     5     6    1
    6     5     7    1
    7     5     8    1
    8     8     9    1
    9     8    10    1
   10     8    11    1
   11    11    12    1
   12    11    13    1
   13    11    14    1
   14    14    15    1
   15    14    16    1
   16    14    17    1
   17    17    18    1
   18    17    19    1
   19    17    20    1
   20    20    21    1
   21    20    22    1
   22    20    23    1
@<TRIPOS>SUBSTRUCTURE
       1 MOL1            1 RESIDUE      1      MOL     
@<SCITEGIC>MOL_PROPERTY
VConf Rank
SciTegic.value.IntegerValue
404

@<SCITEGIC>MOL_PROPERTY
Conf_Id
SciTegic.value.IntegerValue
42

@<SCITEGIC>MOL_PROPERTY
Delta U+W
SciTegic.value.DoubleValue
0.365

@<SCITEGIC>MOL_PROPERTY
U+W
SciTegic.value.DoubleValue
-8.017

@<SCITEGIC>MOL_PROPERTY
Grad RMS
SciTegic.value.DoubleValue
0.000000

@<SCITEGIC>MOL_PROPERTY
U
SciTegic.value.DoubleValue
47.375

@<SCITEGIC>MOL_PROPERTY
W
SciTegic.value.DoubleValue
-55.392

@<SCITEGIC>MOL_PROPERTY
W(PB)
SciTegic.value.DoubleValue
-57.543

@<SCITEGIC>MOL_PROPERTY
W(SA)
SciTegic.value.DoubleValue
2.152

@<SCITEGIC>MOL_PROPERTY
Valence
SciTegic.value.DoubleValue
2.032

@<SCITEGIC>MOL_PROPERTY
Coulomb
SciTegic.value.DoubleValue
44.843

@<SCITEGIC>MOL_PROPERTY
VdW
SciTegic.value.DoubleValue
0.499

@<SCITEGIC>MOL_PROPERTY
VdW6
SciTegic.value.DoubleValue
-5.218

@<SCITEGIC>MOL_PROPERTY
VdW12
SciTegic.value.DoubleValue
5.717

@<SCITEGIC>MOL_PROPERTY
Bond
SciTegic.value.DoubleValue
0.135

@<SCITEGIC>MOL_PROPERTY
Angle
SciTegic.value.DoubleValue
0.514

@<SCITEGIC>MOL_PROPERTY
Pdih
SciTegic.value.DoubleValue
1.383

@<SCITEGIC>MOL_PROPERTY
Idih
SciTegic.value.DoubleValue
0.000

@<SCITEGIC>MOL_PROPERTY
Tether
SciTegic.value.DoubleValue
0.000

@<TRIPOS>MOLECULE
guest-2_confgen4.mol2 : confsearch ligand conformer 405
          23          22           1
SMALL
USER_CHARGES
 
@<TRIPOS>ATOM
       1    N1      20.551924   16.628674   20.646798 N.4        1 MOL1        -0.5940
       2    H1      20.854451   17.270420   19.907019 H          1 MOL1         0.3649
       3    H2      20.426520   15.708579   20.211313 H          1 MOL1         0.3649
       4    H3      21.328547   16.542492   21.309241 H          1 MOL1         0.3649
       5    C1      19.282916   17.107841   21.324738 C.3        1 MOL1         0.0207
       6    H4      19.002793   16.370965   22.082343 H          1 MOL1         0.0950
       7    H5      18.494295   17.134235   20.567802 H          1 MOL1         0.0950
       8    C2      19.410676   18.498888   21.975812 C.3        1 MOL1        -0.1415
       9    H6      19.718881   19.231999   21.218707 H          1 MOL1         0.0976
      10    H7      18.414804   18.798138   22.324820 H          1 MOL1         0.0976
      11    C3      20.399344   18.513689   23.167081 C.3        1 MOL1        -0.1375
      12    H8      21.369252   18.115182   22.841810 H          1 MOL1         0.0976
      13    H9      20.036337   17.832965   23.949544 H          1 MOL1         0.0976
      14    C4      20.642352   19.917860   23.778889 C.3        1 MOL1        -0.1375
      15    H10     21.388081   19.804946   24.578029 H          1 MOL1         0.0976
      16    H11     21.106276   20.579104   23.034069 H          1 MOL1         0.0976
      17    C5      19.384723   20.592216   24.385562 C.3        1 MOL1        -0.1350
      18    H12     19.686961   21.157638   25.278267 H          1 MOL1         0.0976
      19    H13     18.674488   19.830931   24.737143 H          1 MOL1         0.0976
      20    C6      18.685920   21.573163   23.415160 C.3        1 MOL1        -0.2365
      21    H14     19.366924   22.381120   23.117675 H          1 MOL1         0.0987
      22    H15     17.813953   22.033998   23.897051 H          1 MOL1         0.0987
      23    H16     18.336837   21.074777   22.504187 H          1 MOL1         0.0987
@<TRIPOS>BOND
    1     1     2    1
    2     1     3    1
    3     1     4    1
    4     1     5    1
    5     5     6    1
    6     5     7    1
    7     5     8    1
    8     8     9    1
    9     8    10    1
   10     8    11    1
   11    11    12    1
   12    11    13    1
   13    11    14    1
   14    14    15    1
   15    14    16    1
   16    14    17    1
   17    17    18    1
   18    17    19    1
   19    17    20    1
   20    20    21    1
   21    20    22    1
   22    20    23    1
@<TRIPOS>SUBSTRUCTURE
       1 MOL1            1 RESIDUE      1      MOL     
@<SCITEGIC>MOL_PROPERTY
VConf Rank
SciTegic.value.IntegerValue
405

@<SCITEGIC>MOL_PROPERTY
Conf_Id
SciTegic.value.IntegerValue
3

@<SCITEGIC>MOL_PROPERTY
Delta U+W
SciTegic.value.DoubleValue
3.283

@<SCITEGIC>MOL_PROPERTY
U+W
SciTegic.value.DoubleValue
-5.099

@<SCITEGIC>MOL_PROPERTY
Grad RMS
SciTegic.value.DoubleValue
0.000000

@<SCITEGIC>MOL_PROPERTY
U
SciTegic.value.DoubleValue
50.701

@<SCITEGIC>MOL_PROPERTY
W
SciTegic.value.DoubleValue
-55.800

@<SCITEGIC>MOL_PROPERTY
W(PB)
SciTegic.value.DoubleValue
-57.867

@<SCITEGIC>MOL_PROPERTY
W(SA)
SciTegic.value.DoubleValue
2.067

@<SCITEGIC>MOL_PROPERTY
Valence
SciTegic.value.DoubleValue
4.880

@<SCITEGIC>MOL_PROPERTY
Coulomb
SciTegic.value.DoubleValue
45.095

@<SCITEGIC>MOL_PROPERTY
VdW
SciTegic.value.DoubleValue
0.726

@<SCITEGIC>MOL_PROPERTY
VdW6
SciTegic.value.DoubleValue
-6.620

@<SCITEGIC>MOL_PROPERTY
VdW12
SciTegic.value.DoubleValue
7.346

@<SCITEGIC>MOL_PROPERTY
Bond
SciTegic.value.DoubleValue
0.222

@<SCITEGIC>MOL_PROPERTY
Angle
SciTegic.value.DoubleValue
1.260

@<SCITEGIC>MOL_PROPERTY
Pdih
SciTegic.value.DoubleValue
3.398

@<SCITEGIC>MOL_PROPERTY
Idih
SciTegic.value.DoubleValue
0.000

@<SCITEGIC>MOL_PROPERTY
Tether
SciTegic.value.DoubleValue
0.000

@<TRIPOS>MOLECULE
guest-2_confgen4.mol2 : confsearch ligand conformer 406
          23          22           1
SMALL
USER_CHARGES
 
@<TRIPOS>ATOM
       1    N1      21.052742   21.677246   22.801790 N.4        1 MOL1        -0.5940
       2    H1      20.991371   22.234295   21.943603 H          1 MOL1         0.3649
       3    H2      21.520329   22.260190   23.504196 H          1 MOL1         0.3649
       4    H3      20.095226   21.519921   23.130439 H          1 MOL1         0.3649
       5    C1      21.787698   20.371039   22.573852 C.3        1 MOL1         0.0207
       6    H4      21.844782   19.842812   23.528948 H          1 MOL1         0.0950
       7    H5      22.806723   20.613176   22.260029 H          1 MOL1         0.0950
       8    C2      21.128254   19.465272   21.513665 C.3        1 MOL1        -0.1415
       9    H6      21.124524   19.988726   20.548374 H          1 MOL1         0.0976
      10    H7      21.753127   18.573034   21.374728 H          1 MOL1         0.0976
      11    C3      19.683349   19.027078   21.862781 C.3        1 MOL1        -0.1375
      12    H8      19.299699   18.425909   21.028345 H          1 MOL1         0.0976
      13    H9      19.031219   19.907972   21.929867 H          1 MOL1         0.0976
      14    C4      19.594762   18.207521   23.175376 C.3        1 MOL1        -0.1375
      15    H10     20.226364   17.312004   23.096030 H          1 MOL1         0.0976
      16    H11     20.000669   18.798968   24.006510 H          1 MOL1         0.0976
      17    C5      18.150637   17.789263   23.544175 C.3        1 MOL1        -0.1350
      18    H12     17.516450   18.682102   23.635661 H          1 MOL1         0.0976
      19    H13     18.163587   17.319107   24.537477 H          1 MOL1         0.0976
      20    C6      17.517712   16.802525   22.536653 C.3        1 MOL1        -0.2365
      21    H14     18.150067   15.915358   22.402233 H          1 MOL1         0.0987
      22    H15     17.365544   17.268865   21.555522 H          1 MOL1         0.0987
      23    H16     16.537123   16.463982   22.895495 H          1 MOL1         0.0987
@<TRIPOS>BOND
    1     1     2    1
    2     1     3    1
    3     1     4    1
    4     1     5    1
    5     5     6    1
    6     5     7    1
    7     5     8    1
    8     8     9    1
    9     8    10    1
   10     8    11    1
   11    11    12    1
   12    11    13    1
   13    11    14    1
   14    14    15    1
   15    14    16    1
   16    14    17    1
   17    17    18    1
   18    17    19    1
   19    17    20    1
   20    20    21    1
   21    20    22    1
   22    20    23    1
@<TRIPOS>SUBSTRUCTURE
       1 MOL1            1 RESIDUE      1      MOL     
@<SCITEGIC>MOL_PROPERTY
VConf Rank
SciTegic.value.IntegerValue
406

@<SCITEGIC>MOL_PROPERTY
Conf_Id
SciTegic.value.IntegerValue
83

@<SCITEGIC>MOL_PROPERTY
Delta U+W
SciTegic.value.DoubleValue
1.229

@<SCITEGIC>MOL_PROPERTY
U+W
SciTegic.value.DoubleValue
-7.154

@<SCITEGIC>MOL_PROPERTY
Grad RMS
SciTegic.value.DoubleValue
0.000000

@<SCITEGIC>MOL_PROPERTY
U
SciTegic.value.DoubleValue
48.727

@<SCITEGIC>MOL_PROPERTY
W
SciTegic.value.DoubleValue
-55.880

@<SCITEGIC>MOL_PROPERTY
W(PB)
SciTegic.value.DoubleValue
-57.960

@<SCITEGIC>MOL_PROPERTY
W(SA)
SciTegic.value.DoubleValue
2.080

@<SCITEGIC>MOL_PROPERTY
Valence
SciTegic.value.DoubleValue
2.671

@<SCITEGIC>MOL_PROPERTY
Coulomb
SciTegic.value.DoubleValue
45.371

@<SCITEGIC>MOL_PROPERTY
VdW
SciTegic.value.DoubleValue
0.684

@<SCITEGIC>MOL_PROPERTY
VdW6
SciTegic.value.DoubleValue
-6.511

@<SCITEGIC>MOL_PROPERTY
VdW12
SciTegic.value.DoubleValue
7.195

@<SCITEGIC>MOL_PROPERTY
Bond
SciTegic.value.DoubleValue
0.203

@<SCITEGIC>MOL_PROPERTY
Angle
SciTegic.value.DoubleValue
0.915

@<SCITEGIC>MOL_PROPERTY
Pdih
SciTegic.value.DoubleValue
1.554

@<SCITEGIC>MOL_PROPERTY
Idih
SciTegic.value.DoubleValue
0.000

@<SCITEGIC>MOL_PROPERTY
Tether
SciTegic.value.DoubleValue
0.000

@<TRIPOS>MOLECULE
guest-2_confgen4.mol2 : confsearch ligand conformer 407
          23          22           1
SMALL
USER_CHARGES
 
@<TRIPOS>ATOM
       1    N1      19.729516   17.996702   19.860401 N.4        1 MOL1        -0.5940
       2    H1      19.619566   16.978963   19.808708 H          1 MOL1         0.3649
       3    H2      20.603611   18.182316   20.361505 H          1 MOL1         0.3649
       4    H3      19.855662   18.333277   18.899860 H          1 MOL1         0.3649
       5    C1      18.545110   18.657297   20.537965 C.3        1 MOL1         0.0207
       6    H4      17.657577   18.448121   19.934594 H          1 MOL1         0.0950
       7    H5      18.710433   19.737635   20.532585 H          1 MOL1         0.0950
       8    C2      18.306892   18.171698   21.982514 C.3        1 MOL1        -0.1415
       9    H6      17.403479   18.658488   22.373336 H          1 MOL1         0.0976
      10    H7      18.091176   17.095116   21.966969 H          1 MOL1         0.0976
      11    C3      19.489823   18.441819   22.946546 C.3        1 MOL1        -0.1375
      12    H8      20.380999   17.897648   22.606793 H          1 MOL1         0.0976
      13    H9      19.231313   18.022325   23.927399 H          1 MOL1         0.0976
      14    C4      19.821187   19.948319   23.098486 C.3        1 MOL1        -0.1375
      15    H10     20.056244   20.374408   22.114336 H          1 MOL1         0.0976
      16    H11     18.936435   20.486867   23.465023 H          1 MOL1         0.0976
      17    C5      21.019255   20.223669   24.039367 C.3        1 MOL1        -0.1350
      18    H12     21.259001   21.295466   23.998905 H          1 MOL1         0.0976
      19    H13     21.910293   19.695944   23.671557 H          1 MOL1         0.0976
      20    C6      20.751807   19.830485   25.510157 C.3        1 MOL1        -0.2365
      21    H14     19.846168   20.319821   25.891439 H          1 MOL1         0.0987
      22    H15     21.591540   20.135826   26.147770 H          1 MOL1         0.0987
      23    H16     20.630851   18.746105   25.622991 H          1 MOL1         0.0987
@<TRIPOS>BOND
    1     1     2    1
    2     1     3    1
    3     1     4    1
    4     1     5    1
    5     5     6    1
    6     5     7    1
    7     5     8    1
    8     8     9    1
    9     8    10    1
   10     8    11    1
   11    11    12    1
   12    11    13    1
   13    11    14    1
   14    14    15    1
   15    14    16    1
   16    14    17    1
   17    17    18    1
   18    17    19    1
   19    17    20    1
   20    20    21    1
   21    20    22    1
   22    20    23    1
@<TRIPOS>SUBSTRUCTURE
       1 MOL1            1 RESIDUE      1      MOL     
@<SCITEGIC>MOL_PROPERTY
VConf Rank
SciTegic.value.IntegerValue
407

@<SCITEGIC>MOL_PROPERTY
Conf_Id
SciTegic.value.IntegerValue
50

@<SCITEGIC>MOL_PROPERTY
Delta U+W
SciTegic.value.DoubleValue
1.252

@<SCITEGIC>MOL_PROPERTY
U+W
SciTegic.value.DoubleValue
-7.130

@<SCITEGIC>MOL_PROPERTY
Grad RMS
SciTegic.value.DoubleValue
0.000000

@<SCITEGIC>MOL_PROPERTY
U
SciTegic.value.DoubleValue
48.727

@<SCITEGIC>MOL_PROPERTY
W
SciTegic.value.DoubleValue
-55.857

@<SCITEGIC>MOL_PROPERTY
W(PB)
SciTegic.value.DoubleValue
-57.937

@<SCITEGIC>MOL_PROPERTY
W(SA)
SciTegic.value.DoubleValue
2.080

@<SCITEGIC>MOL_PROPERTY
Valence
SciTegic.value.DoubleValue
2.671

@<SCITEGIC>MOL_PROPERTY
Coulomb
SciTegic.value.DoubleValue
45.371

@<SCITEGIC>MOL_PROPERTY
VdW
SciTegic.value.DoubleValue
0.684

@<SCITEGIC>MOL_PROPERTY
VdW6
SciTegic.value.DoubleValue
-6.511

@<SCITEGIC>MOL_PROPERTY
VdW12
SciTegic.value.DoubleValue
7.196

@<SCITEGIC>MOL_PROPERTY
Bond
SciTegic.value.DoubleValue
0.203

@<SCITEGIC>MOL_PROPERTY
Angle
SciTegic.value.DoubleValue
0.915

@<SCITEGIC>MOL_PROPERTY
Pdih
SciTegic.value.DoubleValue
1.554

@<SCITEGIC>MOL_PROPERTY
Idih
SciTegic.value.DoubleValue
0.000

@<SCITEGIC>MOL_PROPERTY
Tether
SciTegic.value.DoubleValue
0.000

@<TRIPOS>MOLECULE
guest-2_confgen4.mol2 : confsearch ligand conformer 408
          23          22           1
SMALL
USER_CHARGES
 
@<TRIPOS>ATOM
       1    N1      21.662084   19.224165   25.199744 N.4        1 MOL1        -0.5940
       2    H1      20.958523   18.535552   25.483199 H          1 MOL1         0.3649
       3    H2      21.918064   19.754022   26.039777 H          1 MOL1         0.3649
       4    H3      22.495965   18.703721   24.909219 H          1 MOL1         0.3649
       5    C1      21.150384   20.130418   24.096970 C.3        1 MOL1         0.0207
       6    H4      21.934593   20.859995   23.877184 H          1 MOL1         0.0950
       7    H5      20.279869   20.670894   24.478414 H          1 MOL1         0.0950
       8    C2      20.770851   19.383667   22.803495 C.3        1 MOL1        -0.1415
       9    H6      20.521087   20.127831   22.038968 H          1 MOL1         0.0976
      10    H7      21.646643   18.838468   22.427311 H          1 MOL1         0.0976
      11    C3      19.587208   18.403393   23.005306 C.3        1 MOL1        -0.1375
      12    H8      18.736868   18.921001   23.470450 H          1 MOL1         0.0976
      13    H9      19.896090   17.625395   23.716151 H          1 MOL1         0.0976
      14    C4      19.133835   17.708212   21.694855 C.3        1 MOL1        -0.1375
      15    H10     19.981333   17.608230   21.002798 H          1 MOL1         0.0976
      16    H11     18.829743   16.681066   21.939785 H          1 MOL1         0.0976
      17    C5      17.938860   18.389273   20.979735 C.3        1 MOL1        -0.1350
      18    H12     17.064585   18.392753   21.645621 H          1 MOL1         0.0976
      19    H13     17.657089   17.776770   20.111830 H          1 MOL1         0.0976
      20    C6      18.221360   19.829202   20.498248 C.3        1 MOL1        -0.2365
      21    H14     19.125120   19.869086   19.876587 H          1 MOL1         0.0987
      22    H15     18.347833   20.515098   21.344904 H          1 MOL1         0.0987
      23    H16     17.383251   20.203435   19.896242 H          1 MOL1         0.0987
@<TRIPOS>BOND
    1     1     2    1
    2     1     3    1
    3     1     4    1
    4     1     5    1
    5     5     6    1
    6     5     7    1
    7     5     8    1
    8     8     9    1
    9     8    10    1
   10     8    11    1
   11    11    12    1
   12    11    13    1
   13    11    14    1
   14    14    15    1
   15    14    16    1
   16    14    17    1
   17    17    18    1
   18    17    19    1
   19    17    20    1
   20    20    21    1
   21    20    22    1
   22    20    23    1
@<TRIPOS>SUBSTRUCTURE
       1 MOL1            1 RESIDUE      1      MOL     
@<SCITEGIC>MOL_PROPERTY
VConf Rank
SciTegic.value.IntegerValue
408

@<SCITEGIC>MOL_PROPERTY
Conf_Id
SciTegic.value.IntegerValue
55

@<SCITEGIC>MOL_PROPERTY
Delta U+W
SciTegic.value.DoubleValue
3.232

@<SCITEGIC>MOL_PROPERTY
U+W
SciTegic.value.DoubleValue
-5.150

@<SCITEGIC>MOL_PROPERTY
Grad RMS
SciTegic.value.DoubleValue
0.000000

@<SCITEGIC>MOL_PROPERTY
U
SciTegic.value.DoubleValue
50.625

@<SCITEGIC>MOL_PROPERTY
W
SciTegic.value.DoubleValue
-55.776

@<SCITEGIC>MOL_PROPERTY
W(PB)
SciTegic.value.DoubleValue
-57.839

@<SCITEGIC>MOL_PROPERTY
W(SA)
SciTegic.value.DoubleValue
2.064

@<SCITEGIC>MOL_PROPERTY
Valence
SciTegic.value.DoubleValue
4.837

@<SCITEGIC>MOL_PROPERTY
Coulomb
SciTegic.value.DoubleValue
45.097

@<SCITEGIC>MOL_PROPERTY
VdW
SciTegic.value.DoubleValue
0.692

@<SCITEGIC>MOL_PROPERTY
VdW6
SciTegic.value.DoubleValue
-6.655

@<SCITEGIC>MOL_PROPERTY
VdW12
SciTegic.value.DoubleValue
7.347

@<SCITEGIC>MOL_PROPERTY
Bond
SciTegic.value.DoubleValue
0.223

@<SCITEGIC>MOL_PROPERTY
Angle
SciTegic.value.DoubleValue
1.167

@<SCITEGIC>MOL_PROPERTY
Pdih
SciTegic.value.DoubleValue
3.447

@<SCITEGIC>MOL_PROPERTY
Idih
SciTegic.value.DoubleValue
0.000

@<SCITEGIC>MOL_PROPERTY
Tether
SciTegic.value.DoubleValue
0.000

@<TRIPOS>MOLECULE
guest-2_confgen4.mol2 : confsearch ligand conformer 409
          23          22           1
SMALL
USER_CHARGES
 
@<TRIPOS>ATOM
       1    N1      18.978239   16.285159   23.862055 N.4        1 MOL1        -0.5940
       2    H1      19.646699   15.661247   24.325437 H          1 MOL1         0.3649
       3    H2      18.290030   15.687494   23.391775 H          1 MOL1         0.3649
       4    H3      18.478337   16.792226   24.599440 H          1 MOL1         0.3649
       5    C1      19.662799   17.226654   22.892203 C.3        1 MOL1         0.0207
       6    H4      18.890467   17.830933   22.412943 H          1 MOL1         0.0950
       7    H5      20.148194   16.621071   22.122098 H          1 MOL1         0.0950
       8    C2      20.708729   18.133639   23.569841 C.3        1 MOL1        -0.1415
       9    H6      20.244640   18.714805   24.377758 H          1 MOL1         0.0976
      10    H7      21.461307   17.489670   24.044128 H          1 MOL1         0.0976
      11    C3      21.426989   19.081416   22.576218 C.3        1 MOL1        -0.1375
      12    H8      21.598480   18.565624   21.621152 H          1 MOL1         0.0976
      13    H9      22.425748   19.303169   22.977222 H          1 MOL1         0.0976
      14    C4      20.711632   20.435337   22.329976 C.3        1 MOL1        -0.1375
      15    H10     20.639440   20.988559   23.276563 H          1 MOL1         0.0976
      16    H11     21.347354   21.042457   21.670655 H          1 MOL1         0.0976
      17    C5      19.305734   20.315437   21.697856 C.3        1 MOL1        -0.1350
      18    H12     18.613940   19.848165   22.410591 H          1 MOL1         0.0976
      19    H13     19.348304   19.667343   20.811380 H          1 MOL1         0.0976
      20    C6      18.742558   21.695430   21.296444 C.3        1 MOL1        -0.2365
      21    H14     19.385215   22.183615   20.552211 H          1 MOL1         0.0987
      22    H15     18.664247   22.358288   22.168073 H          1 MOL1         0.0987
      23    H16     17.740558   21.593048   20.859930 H          1 MOL1         0.0987
@<TRIPOS>BOND
    1     1     2    1
    2     1     3    1
    3     1     4    1
    4     1     5    1
    5     5     6    1
    6     5     7    1
    7     5     8    1
    8     8     9    1
    9     8    10    1
   10     8    11    1
   11    11    12    1
   12    11    13    1
   13    11    14    1
   14    14    15    1
   15    14    16    1
   16    14    17    1
   17    17    18    1
   18    17    19    1
   19    17    20    1
   20    20    21    1
   21    20    22    1
   22    20    23    1
@<TRIPOS>SUBSTRUCTURE
       1 MOL1            1 RESIDUE      1      MOL     
@<SCITEGIC>MOL_PROPERTY
VConf Rank
SciTegic.value.IntegerValue
409

@<SCITEGIC>MOL_PROPERTY
Conf_Id
SciTegic.value.IntegerValue
93

@<SCITEGIC>MOL_PROPERTY
Delta U+W
SciTegic.value.DoubleValue
2.589

@<SCITEGIC>MOL_PROPERTY
U+W
SciTegic.value.DoubleValue
-5.793

@<SCITEGIC>MOL_PROPERTY
Grad RMS
SciTegic.value.DoubleValue
0.000000

@<SCITEGIC>MOL_PROPERTY
U
SciTegic.value.DoubleValue
50.122

@<SCITEGIC>MOL_PROPERTY
W
SciTegic.value.DoubleValue
-55.915

@<SCITEGIC>MOL_PROPERTY
W(PB)
SciTegic.value.DoubleValue
-58.031

@<SCITEGIC>MOL_PROPERTY
W(SA)
SciTegic.value.DoubleValue
2.115

@<SCITEGIC>MOL_PROPERTY
Valence
SciTegic.value.DoubleValue
4.132

@<SCITEGIC>MOL_PROPERTY
Coulomb
SciTegic.value.DoubleValue
45.536

@<SCITEGIC>MOL_PROPERTY
VdW
SciTegic.value.DoubleValue
0.454

@<SCITEGIC>MOL_PROPERTY
VdW6
SciTegic.value.DoubleValue
-6.262

@<SCITEGIC>MOL_PROPERTY
VdW12
SciTegic.value.DoubleValue
6.715

@<SCITEGIC>MOL_PROPERTY
Bond
SciTegic.value.DoubleValue
0.182

@<SCITEGIC>MOL_PROPERTY
Angle
SciTegic.value.DoubleValue
1.157

@<SCITEGIC>MOL_PROPERTY
Pdih
SciTegic.value.DoubleValue
2.794

@<SCITEGIC>MOL_PROPERTY
Idih
SciTegic.value.DoubleValue
0.000

@<SCITEGIC>MOL_PROPERTY
Tether
SciTegic.value.DoubleValue
0.000

@<TRIPOS>MOLECULE
guest-2_confgen4.mol2 : confsearch ligand conformer 410
          23          22           1
SMALL
USER_CHARGES
 
@<TRIPOS>ATOM
       1    N1      21.007807   16.126171   22.887379 N.4        1 MOL1        -0.5940
       2    H1      20.370920   15.923410   23.664565 H          1 MOL1         0.3649
       3    H2      21.962051   16.022021   23.248723 H          1 MOL1         0.3649
       4    H3      20.872839   15.389674   22.187247 H          1 MOL1         0.3649
       5    C1      20.772329   17.506312   22.308235 C.3        1 MOL1         0.0207
       6    H4      21.501176   17.663951   21.508653 H          1 MOL1         0.0950
       7    H5      20.968394   18.236165   23.095771 H          1 MOL1         0.0950
       8    C2      19.347354   17.690357   21.750239 C.3        1 MOL1        -0.1415
       9    H6      19.187992   16.935788   20.968415 H          1 MOL1         0.0976
      10    H7      18.602085   17.489492   22.531323 H          1 MOL1         0.0976
      11    C3      19.111047   19.093447   21.136267 C.3        1 MOL1        -0.1375
      12    H8      18.337765   19.001072   20.361026 H          1 MOL1         0.0976
      13    H9      20.016154   19.432901   20.613623 H          1 MOL1         0.0976
      14    C4      18.637871   20.176134   22.140940 C.3        1 MOL1        -0.1375
      15    H10     18.437596   21.099034   21.579169 H          1 MOL1         0.0976
      16    H11     17.677402   19.873024   22.580161 H          1 MOL1         0.0976
      17    C5      19.643615   20.487833   23.273116 C.3        1 MOL1        -0.1350
      18    H12     20.638168   20.680660   22.847254 H          1 MOL1         0.0976
      19    H13     19.736764   19.620701   23.939690 H          1 MOL1         0.0976
      20    C6      19.199635   21.707100   24.109148 C.3        1 MOL1        -0.2365
      21    H14     19.918431   21.907434   24.914274 H          1 MOL1         0.0987
      22    H15     18.218060   21.533652   24.569231 H          1 MOL1         0.0987
      23    H16     19.131241   22.609266   23.487350 H          1 MOL1         0.0987
@<TRIPOS>BOND
    1     1     2    1
    2     1     3    1
    3     1     4    1
    4     1     5    1
    5     5     6    1
    6     5     7    1
    7     5     8    1
    8     8     9    1
    9     8    10    1
   10     8    11    1
   11    11    12    1
   12    11    13    1
   13    11    14    1
   14    14    15    1
   15    14    16    1
   16    14    17    1
   17    17    18    1
   18    17    19    1
   19    17    20    1
   20    20    21    1
   21    20    22    1
   22    20    23    1
@<TRIPOS>SUBSTRUCTURE
       1 MOL1            1 RESIDUE      1      MOL     
@<SCITEGIC>MOL_PROPERTY
VConf Rank
SciTegic.value.IntegerValue
410

@<SCITEGIC>MOL_PROPERTY
Conf_Id
SciTegic.value.IntegerValue
70

@<SCITEGIC>MOL_PROPERTY
Delta U+W
SciTegic.value.DoubleValue
2.599

@<SCITEGIC>MOL_PROPERTY
U+W
SciTegic.value.DoubleValue
-5.783

@<SCITEGIC>MOL_PROPERTY
Grad RMS
SciTegic.value.DoubleValue
0.000000

@<SCITEGIC>MOL_PROPERTY
U
SciTegic.value.DoubleValue
50.122

@<SCITEGIC>MOL_PROPERTY
W
SciTegic.value.DoubleValue
-55.906

@<SCITEGIC>MOL_PROPERTY
W(PB)
SciTegic.value.DoubleValue
-58.010

@<SCITEGIC>MOL_PROPERTY
W(SA)
SciTegic.value.DoubleValue
2.105

@<SCITEGIC>MOL_PROPERTY
Valence
SciTegic.value.DoubleValue
4.132

@<SCITEGIC>MOL_PROPERTY
Coulomb
SciTegic.value.DoubleValue
45.536

@<SCITEGIC>MOL_PROPERTY
VdW
SciTegic.value.DoubleValue
0.454

@<SCITEGIC>MOL_PROPERTY
VdW6
SciTegic.value.DoubleValue
-6.262

@<SCITEGIC>MOL_PROPERTY
VdW12
SciTegic.value.DoubleValue
6.715

@<SCITEGIC>MOL_PROPERTY
Bond
SciTegic.value.DoubleValue
0.182

@<SCITEGIC>MOL_PROPERTY
Angle
SciTegic.value.DoubleValue
1.157

@<SCITEGIC>MOL_PROPERTY
Pdih
SciTegic.value.DoubleValue
2.794

@<SCITEGIC>MOL_PROPERTY
Idih
SciTegic.value.DoubleValue
0.000

@<SCITEGIC>MOL_PROPERTY
Tether
SciTegic.value.DoubleValue
0.000

@<TRIPOS>MOLECULE
guest-2_confgen4.mol2 : confsearch ligand conformer 411
          23          22           1
SMALL
USER_CHARGES
 
@<TRIPOS>ATOM
       1    N1      19.817728   16.859506   24.474241 N.4        1 MOL1        -0.5940
       2    H1      20.468440   16.067825   24.456272 H          1 MOL1         0.3649
       3    H2      19.078772   16.624379   25.145375 H          1 MOL1         0.3649
       4    H3      20.327478   17.661892   24.856077 H          1 MOL1         0.3649
       5    C1      19.255683   17.157274   23.098132 C.3        1 MOL1         0.0207
       6    H4      18.547722   17.984862   23.192119 H          1 MOL1         0.0950
       7    H5      18.703488   16.274097   22.765605 H          1 MOL1         0.0950
       8    C2      20.333585   17.510891   22.053687 C.3        1 MOL1        -0.1415
       9    H6      21.018393   16.659796   21.942369 H          1 MOL1         0.0976
      10    H7      19.851573   17.636190   21.075740 H          1 MOL1         0.0976
      11    C3      21.152771   18.782389   22.398987 C.3        1 MOL1        -0.1375
      12    H8      21.863639   18.977471   21.584241 H          1 MOL1         0.0976
      13    H9      21.767416   18.586696   23.287890 H          1 MOL1         0.0976
      14    C4      20.305785   20.057451   22.647247 C.3        1 MOL1        -0.1375
      15    H10     19.654551   19.913553   23.519645 H          1 MOL1         0.0976
      16    H11     20.986198   20.879170   22.910219 H          1 MOL1         0.0976
      17    C5      19.455027   20.481475   21.426875 C.3        1 MOL1        -0.1350
      18    H12     18.717931   19.702711   21.189908 H          1 MOL1         0.0976
      19    H13     20.100509   20.588855   20.543962 H          1 MOL1         0.0976
      20    C6      18.713835   21.810733   21.683954 C.3        1 MOL1        -0.2365
      21    H14     18.113680   22.095200   20.809937 H          1 MOL1         0.0987
      22    H15     19.421655   22.625284   21.885672 H          1 MOL1         0.0987
      23    H16     18.036956   21.725057   22.544012 H          1 MOL1         0.0987
@<TRIPOS>BOND
    1     1     2    1
    2     1     3    1
    3     1     4    1
    4     1     5    1
    5     5     6    1
    6     5     7    1
    7     5     8    1
    8     8     9    1
    9     8    10    1
   10     8    11    1
   11    11    12    1
   12    11    13    1
   13    11    14    1
   14    14    15    1
   15    14    16    1
   16    14    17    1
   17    17    18    1
   18    17    19    1
   19    17    20    1
   20    20    21    1
   21    20    22    1
   22    20    23    1
@<TRIPOS>SUBSTRUCTURE
       1 MOL1            1 RESIDUE      1      MOL     
@<SCITEGIC>MOL_PROPERTY
VConf Rank
SciTegic.value.IntegerValue
411

@<SCITEGIC>MOL_PROPERTY
Conf_Id
SciTegic.value.IntegerValue
72

@<SCITEGIC>MOL_PROPERTY
Delta U+W
SciTegic.value.DoubleValue
1.051

@<SCITEGIC>MOL_PROPERTY
U+W
SciTegic.value.DoubleValue
-7.331

@<SCITEGIC>MOL_PROPERTY
Grad RMS
SciTegic.value.DoubleValue
0.000000

@<SCITEGIC>MOL_PROPERTY
U
SciTegic.value.DoubleValue
48.590

@<SCITEGIC>MOL_PROPERTY
W
SciTegic.value.DoubleValue
-55.922

@<SCITEGIC>MOL_PROPERTY
W(PB)
SciTegic.value.DoubleValue
-58.012

@<SCITEGIC>MOL_PROPERTY
W(SA)
SciTegic.value.DoubleValue
2.090

@<SCITEGIC>MOL_PROPERTY
Valence
SciTegic.value.DoubleValue
2.601

@<SCITEGIC>MOL_PROPERTY
Coulomb
SciTegic.value.DoubleValue
45.520

@<SCITEGIC>MOL_PROPERTY
VdW
SciTegic.value.DoubleValue
0.469

@<SCITEGIC>MOL_PROPERTY
VdW6
SciTegic.value.DoubleValue
-6.867

@<SCITEGIC>MOL_PROPERTY
VdW12
SciTegic.value.DoubleValue
7.336

@<SCITEGIC>MOL_PROPERTY
Bond
SciTegic.value.DoubleValue
0.205

@<SCITEGIC>MOL_PROPERTY
Angle
SciTegic.value.DoubleValue
0.962

@<SCITEGIC>MOL_PROPERTY
Pdih
SciTegic.value.DoubleValue
1.434

@<SCITEGIC>MOL_PROPERTY
Idih
SciTegic.value.DoubleValue
0.000

@<SCITEGIC>MOL_PROPERTY
Tether
SciTegic.value.DoubleValue
0.000

@<TRIPOS>MOLECULE
guest-2_confgen4.mol2 : confsearch ligand conformer 412
          23          22           1
SMALL
USER_CHARGES
 
@<TRIPOS>ATOM
       1    N1      17.190724   17.360532   21.782578 N.4        1 MOL1        -0.5940
       2    H1      17.095717   16.390569   21.463045 H          1 MOL1         0.3649
       3    H2      16.475963   17.907003   21.291385 H          1 MOL1         0.3649
       4    H3      16.947502   17.371605   22.778260 H          1 MOL1         0.3649
       5    C1      18.584357   17.900829   21.534577 C.3        1 MOL1         0.0207
       6    H4      18.787338   17.833143   20.462399 H          1 MOL1         0.0950
       7    H5      19.293190   17.255944   22.060517 H          1 MOL1         0.0950
       8    C2      18.760103   19.357049   22.003998 C.3        1 MOL1        -0.1415
       9    H6      18.018983   19.989630   21.497726 H          1 MOL1         0.0976
      10    H7      18.543969   19.428585   23.077590 H          1 MOL1         0.0976
      11    C3      20.175701   19.912895   21.710438 C.3        1 MOL1        -0.1375
      12    H8      20.228443   20.956815   22.047187 H          1 MOL1         0.0976
      13    H9      20.325385   19.945285   20.622385 H          1 MOL1         0.0976
      14    C4      21.338255   19.103305   22.345884 C.3        1 MOL1        -0.1375
      15    H10     21.385043   18.108025   21.883789 H          1 MOL1         0.0976
      16    H11     22.287727   19.592558   22.088385 H          1 MOL1         0.0976
      17    C5      21.262649   18.938251   23.885124 C.3        1 MOL1        -0.1350
      18    H12     22.124479   18.342069   24.216041 H          1 MOL1         0.0976
      19    H13     20.372155   18.358028   24.161672 H          1 MOL1         0.0976
      20    C6      21.266541   20.283081   24.646658 C.3        1 MOL1        -0.2365
      21    H14     22.142555   20.886786   24.376325 H          1 MOL1         0.0987
      22    H15     21.298396   20.111407   25.730335 H          1 MOL1         0.0987
      23    H16     20.364990   20.869950   24.431375 H          1 MOL1         0.0987
@<TRIPOS>BOND
    1     1     2    1
    2     1     3    1
    3     1     4    1
    4     1     5    1
    5     5     6    1
    6     5     7    1
    7     5     8    1
    8     8     9    1
    9     8    10    1
   10     8    11    1
   11    11    12    1
   12    11    13    1
   13    11    14    1
   14    14    15    1
   15    14    16    1
   16    14    17    1
   17    17    18    1
   18    17    19    1
   19    17    20    1
   20    20    21    1
   21    20    22    1
   22    20    23    1
@<TRIPOS>SUBSTRUCTURE
       1 MOL1            1 RESIDUE      1      MOL     
@<SCITEGIC>MOL_PROPERTY
VConf Rank
SciTegic.value.IntegerValue
412

@<SCITEGIC>MOL_PROPERTY
Conf_Id
SciTegic.value.IntegerValue
26

@<SCITEGIC>MOL_PROPERTY
Delta U+W
SciTegic.value.DoubleValue
1.076

@<SCITEGIC>MOL_PROPERTY
U+W
SciTegic.value.DoubleValue
-7.306

@<SCITEGIC>MOL_PROPERTY
Grad RMS
SciTegic.value.DoubleValue
0.000000

@<SCITEGIC>MOL_PROPERTY
U
SciTegic.value.DoubleValue
48.641

@<SCITEGIC>MOL_PROPERTY
W
SciTegic.value.DoubleValue
-55.947

@<SCITEGIC>MOL_PROPERTY
W(PB)
SciTegic.value.DoubleValue
-58.031

@<SCITEGIC>MOL_PROPERTY
W(SA)
SciTegic.value.DoubleValue
2.084

@<SCITEGIC>MOL_PROPERTY
Valence
SciTegic.value.DoubleValue
2.922

@<SCITEGIC>MOL_PROPERTY
Coulomb
SciTegic.value.DoubleValue
45.269

@<SCITEGIC>MOL_PROPERTY
VdW
SciTegic.value.DoubleValue
0.449

@<SCITEGIC>MOL_PROPERTY
VdW6
SciTegic.value.DoubleValue
-7.045

@<SCITEGIC>MOL_PROPERTY
VdW12
SciTegic.value.DoubleValue
7.494

@<SCITEGIC>MOL_PROPERTY
Bond
SciTegic.value.DoubleValue
0.220

@<SCITEGIC>MOL_PROPERTY
Angle
SciTegic.value.DoubleValue
1.205

@<SCITEGIC>MOL_PROPERTY
Pdih
SciTegic.value.DoubleValue
1.497

@<SCITEGIC>MOL_PROPERTY
Idih
SciTegic.value.DoubleValue
0.000

@<SCITEGIC>MOL_PROPERTY
Tether
SciTegic.value.DoubleValue
0.000

@<TRIPOS>MOLECULE
guest-2_confgen4.mol2 : confsearch ligand conformer 413
          23          22           1
SMALL
USER_CHARGES
 
@<TRIPOS>ATOM
       1    N1      19.846820   18.936842   25.748738 N.4        1 MOL1        -0.5940
       2    H1      19.376533   19.726983   26.201827 H          1 MOL1         0.3649
       3    H2      20.574766   18.613371   26.394819 H          1 MOL1         0.3649
       4    H3      19.159235   18.180583   25.671516 H          1 MOL1         0.3649
       5    C1      20.421049   19.319305   24.399806 C.3        1 MOL1         0.0207
       6    H4      20.930531   18.442872   23.990872 H          1 MOL1         0.0950
       7    H5      21.163439   20.105953   24.559155 H          1 MOL1         0.0950
       8    C2      19.352242   19.809668   23.405315 C.3        1 MOL1        -0.1415
       9    H6      18.599315   19.025569   23.254574 H          1 MOL1         0.0976
      10    H7      18.821746   20.666407   23.841549 H          1 MOL1         0.0976
      11    C3      19.953932   20.235219   22.042987 C.3        1 MOL1        -0.1375
      12    H8      20.612820   21.100215   22.200976 H          1 MOL1         0.0976
      13    H9      19.146824   20.593840   21.390362 H          1 MOL1         0.0976
      14    C4      20.758959   19.127128   21.311670 C.3        1 MOL1        -0.1375
      15    H10     21.123017   19.530764   20.356837 H          1 MOL1         0.0976
      16    H11     21.659713   18.886983   21.892423 H          1 MOL1         0.0976
      17    C5      19.977108   17.817795   21.034943 C.3        1 MOL1        -0.1350
      18    H12     19.692326   17.338226   21.981004 H          1 MOL1         0.0976
      19    H13     20.648132   17.109599   20.529100 H          1 MOL1         0.0976
      20    C6      18.722225   18.027095   20.157457 C.3        1 MOL1        -0.2365
      21    H14     17.971554   18.642141   20.669092 H          1 MOL1         0.0987
      22    H15     18.253838   17.063245   19.919872 H          1 MOL1         0.0987
      23    H16     18.980854   18.517463   19.210044 H          1 MOL1         0.0987
@<TRIPOS>BOND
    1     1     2    1
    2     1     3    1
    3     1     4    1
    4     1     5    1
    5     5     6    1
    6     5     7    1
    7     5     8    1
    8     8     9    1
    9     8    10    1
   10     8    11    1
   11    11    12    1
   12    11    13    1
   13    11    14    1
   14    14    15    1
   15    14    16    1
   16    14    17    1
   17    17    18    1
   18    17    19    1
   19    17    20    1
   20    20    21    1
   21    20    22    1
   22    20    23    1
@<TRIPOS>SUBSTRUCTURE
       1 MOL1            1 RESIDUE      1      MOL     
@<SCITEGIC>MOL_PROPERTY
VConf Rank
SciTegic.value.IntegerValue
413

@<SCITEGIC>MOL_PROPERTY
Conf_Id
SciTegic.value.IntegerValue
90

@<SCITEGIC>MOL_PROPERTY
Delta U+W
SciTegic.value.DoubleValue
1.131

@<SCITEGIC>MOL_PROPERTY
U+W
SciTegic.value.DoubleValue
-7.251

@<SCITEGIC>MOL_PROPERTY
Grad RMS
SciTegic.value.DoubleValue
0.000000

@<SCITEGIC>MOL_PROPERTY
U
SciTegic.value.DoubleValue
48.641

@<SCITEGIC>MOL_PROPERTY
W
SciTegic.value.DoubleValue
-55.892

@<SCITEGIC>MOL_PROPERTY
W(PB)
SciTegic.value.DoubleValue
-57.962

@<SCITEGIC>MOL_PROPERTY
W(SA)
SciTegic.value.DoubleValue
2.070

@<SCITEGIC>MOL_PROPERTY
Valence
SciTegic.value.DoubleValue
2.922

@<SCITEGIC>MOL_PROPERTY
Coulomb
SciTegic.value.DoubleValue
45.269

@<SCITEGIC>MOL_PROPERTY
VdW
SciTegic.value.DoubleValue
0.450

@<SCITEGIC>MOL_PROPERTY
VdW6
SciTegic.value.DoubleValue
-7.045

@<SCITEGIC>MOL_PROPERTY
VdW12
SciTegic.value.DoubleValue
7.495

@<SCITEGIC>MOL_PROPERTY
Bond
SciTegic.value.DoubleValue
0.220

@<SCITEGIC>MOL_PROPERTY
Angle
SciTegic.value.DoubleValue
1.205

@<SCITEGIC>MOL_PROPERTY
Pdih
SciTegic.value.DoubleValue
1.497

@<SCITEGIC>MOL_PROPERTY
Idih
SciTegic.value.DoubleValue
0.000

@<SCITEGIC>MOL_PROPERTY
Tether
SciTegic.value.DoubleValue
0.000

@<TRIPOS>MOLECULE
guest-2_confgen4.mol2 : confsearch ligand conformer 414
          23          22           1
SMALL
USER_CHARGES
 
@<TRIPOS>ATOM
       1    N1      17.876527   20.521004   23.473253 N.4        1 MOL1        -0.5940
       2    H1      17.791645   21.501281   23.762571 H          1 MOL1         0.3649
       3    H2      18.630563   20.106860   24.029613 H          1 MOL1         0.3649
       4    H3      17.006194   20.052591   23.744697 H          1 MOL1         0.3649
       5    C1      18.144237   20.393633   21.986476 C.3        1 MOL1         0.0207
       6    H4      19.064658   20.937922   21.760002 H          1 MOL1         0.0950
       7    H5      17.322234   20.882989   21.456984 H          1 MOL1         0.0950
       8    C2      18.268432   18.934641   21.501907 C.3        1 MOL1        -0.1415
       9    H6      17.322137   18.410849   21.691529 H          1 MOL1         0.0976
      10    H7      18.404002   18.935949   20.412200 H          1 MOL1         0.0976
      11    C3      19.430131   18.149011   22.160560 C.3        1 MOL1        -0.1375
      12    H8      19.427412   17.123760   21.765638 H          1 MOL1         0.0976
      13    H9      19.247768   18.061766   23.239094 H          1 MOL1         0.0976
      14    C4      20.817902   18.788776   21.903139 C.3        1 MOL1        -0.1375
      15    H10     20.945256   18.945700   20.823129 H          1 MOL1         0.0976
      16    H11     20.869592   19.782112   22.368482 H          1 MOL1         0.0976
      17    C5      21.995869   17.926260   22.416805 C.3        1 MOL1        -0.1350
      18    H12     22.939191   18.394409   22.102457 H          1 MOL1         0.0976
      19    H13     21.969494   16.937328   21.938164 H          1 MOL1         0.0976
      20    C6      22.010034   17.760174   23.953474 C.3        1 MOL1        -0.2365
      21    H14     22.009810   18.735903   24.456357 H          1 MOL1         0.0987
      22    H15     22.910023   17.218834   24.272700 H          1 MOL1         0.0987
      23    H16     21.141137   17.190651   24.305713 H          1 MOL1         0.0987
@<TRIPOS>BOND
    1     1     2    1
    2     1     3    1
    3     1     4    1
    4     1     5    1
    5     5     6    1
    6     5     7    1
    7     5     8    1
    8     8     9    1
    9     8    10    1
   10     8    11    1
   11    11    12    1
   12    11    13    1
   13    11    14    1
   14    14    15    1
   15    14    16    1
   16    14    17    1
   17    17    18    1
   18    17    19    1
   19    17    20    1
   20    20    21    1
   21    20    22    1
   22    20    23    1
@<TRIPOS>SUBSTRUCTURE
       1 MOL1            1 RESIDUE      1      MOL     
@<SCITEGIC>MOL_PROPERTY
VConf Rank
SciTegic.value.IntegerValue
414

@<SCITEGIC>MOL_PROPERTY
Conf_Id
SciTegic.value.IntegerValue
85

@<SCITEGIC>MOL_PROPERTY
Delta U+W
SciTegic.value.DoubleValue
1.193

@<SCITEGIC>MOL_PROPERTY
U+W
SciTegic.value.DoubleValue
-7.189

@<SCITEGIC>MOL_PROPERTY
Grad RMS
SciTegic.value.DoubleValue
0.000000

@<SCITEGIC>MOL_PROPERTY
U
SciTegic.value.DoubleValue
48.775

@<SCITEGIC>MOL_PROPERTY
W
SciTegic.value.DoubleValue
-55.965

@<SCITEGIC>MOL_PROPERTY
W(PB)
SciTegic.value.DoubleValue
-58.038

@<SCITEGIC>MOL_PROPERTY
W(SA)
SciTegic.value.DoubleValue
2.073

@<SCITEGIC>MOL_PROPERTY
Valence
SciTegic.value.DoubleValue
2.602

@<SCITEGIC>MOL_PROPERTY
Coulomb
SciTegic.value.DoubleValue
45.581

@<SCITEGIC>MOL_PROPERTY
VdW
SciTegic.value.DoubleValue
0.592

@<SCITEGIC>MOL_PROPERTY
VdW6
SciTegic.value.DoubleValue
-6.616

@<SCITEGIC>MOL_PROPERTY
VdW12
SciTegic.value.DoubleValue
7.208

@<SCITEGIC>MOL_PROPERTY
Bond
SciTegic.value.DoubleValue
0.196

@<SCITEGIC>MOL_PROPERTY
Angle
SciTegic.value.DoubleValue
0.832

@<SCITEGIC>MOL_PROPERTY
Pdih
SciTegic.value.DoubleValue
1.574

@<SCITEGIC>MOL_PROPERTY
Idih
SciTegic.value.DoubleValue
0.000

@<SCITEGIC>MOL_PROPERTY
Tether
SciTegic.value.DoubleValue
0.000

@<TRIPOS>MOLECULE
guest-2_confgen4.mol2 : confsearch ligand conformer 415
          23          22           1
SMALL
USER_CHARGES
 
@<TRIPOS>ATOM
       1    N1      18.559477   20.612154   22.859861 N.4        1 MOL1        -0.5940
       2    H1      19.406397   20.220088   23.283750 H          1 MOL1         0.3649
       3    H2      17.933010   20.888621   23.623673 H          1 MOL1         0.3649
       4    H3      18.831482   21.471238   22.370983 H          1 MOL1         0.3649
       5    C1      17.900436   19.618407   21.922953 C.3        1 MOL1         0.0207
       6    H4      17.012467   20.106926   21.512622 H          1 MOL1         0.0950
       7    H5      17.572917   18.752627   22.504575 H          1 MOL1         0.0950
       8    C2      18.803786   19.157815   20.760829 C.3        1 MOL1        -0.1415
       9    H6      18.152090   18.789527   19.957402 H          1 MOL1         0.0976
      10    H7      19.336753   20.021050   20.340539 H          1 MOL1         0.0976
      11    C3      19.808888   18.027653   21.110991 C.3        1 MOL1        -0.1375
      12    H8      20.341049   17.763560   20.186564 H          1 MOL1         0.0976
      13    H9      19.264566   17.119694   21.405600 H          1 MOL1         0.0976
      14    C4      20.865471   18.389489   22.186149 C.3        1 MOL1        -0.1375
      15    H10     21.813834   17.901351   21.921445 H          1 MOL1         0.0976
      16    H11     21.072857   19.467598   22.166259 H          1 MOL1         0.0976
      17    C5      20.471937   17.922490   23.608873 C.3        1 MOL1        -0.1350
      18    H12     20.436928   16.824153   23.632655 H          1 MOL1         0.0976
      19    H13     19.463079   18.262248   23.871642 H          1 MOL1         0.0976
      20    C6      21.474916   18.420612   24.670822 C.3        1 MOL1        -0.2365
      21    H14     22.486763   18.049663   24.461220 H          1 MOL1         0.0987
      22    H15     21.188342   18.067692   25.670072 H          1 MOL1         0.0987
      23    H16     21.513359   19.517184   24.699413 H          1 MOL1         0.0987
@<TRIPOS>BOND
    1     1     2    1
    2     1     3    1
    3     1     4    1
    4     1     5    1
    5     5     6    1
    6     5     7    1
    7     5     8    1
    8     8     9    1
    9     8    10    1
   10     8    11    1
   11    11    12    1
   12    11    13    1
   13    11    14    1
   14    14    15    1
   15    14    16    1
   16    14    17    1
   17    17    18    1
   18    17    19    1
   19    17    20    1
   20    20    21    1
   21    20    22    1
   22    20    23    1
@<TRIPOS>SUBSTRUCTURE
       1 MOL1            1 RESIDUE      1      MOL     
@<SCITEGIC>MOL_PROPERTY
VConf Rank
SciTegic.value.IntegerValue
415

@<SCITEGIC>MOL_PROPERTY
Conf_Id
SciTegic.value.IntegerValue
82

@<SCITEGIC>MOL_PROPERTY
Delta U+W
SciTegic.value.DoubleValue
5.994

@<SCITEGIC>MOL_PROPERTY
U+W
SciTegic.value.DoubleValue
-2.388

@<SCITEGIC>MOL_PROPERTY
Grad RMS
SciTegic.value.DoubleValue
0.000000

@<SCITEGIC>MOL_PROPERTY
U
SciTegic.value.DoubleValue
52.836

@<SCITEGIC>MOL_PROPERTY
W
SciTegic.value.DoubleValue
-55.224

@<SCITEGIC>MOL_PROPERTY
W(PB)
SciTegic.value.DoubleValue
-57.261

@<SCITEGIC>MOL_PROPERTY
W(SA)
SciTegic.value.DoubleValue
2.037

@<SCITEGIC>MOL_PROPERTY
Valence
SciTegic.value.DoubleValue
5.785

@<SCITEGIC>MOL_PROPERTY
Coulomb
SciTegic.value.DoubleValue
46.744

@<SCITEGIC>MOL_PROPERTY
VdW
SciTegic.value.DoubleValue
0.307

@<SCITEGIC>MOL_PROPERTY
VdW6
SciTegic.value.DoubleValue
-7.672

@<SCITEGIC>MOL_PROPERTY
VdW12
SciTegic.value.DoubleValue
7.979

@<SCITEGIC>MOL_PROPERTY
Bond
SciTegic.value.DoubleValue
0.217

@<SCITEGIC>MOL_PROPERTY
Angle
SciTegic.value.DoubleValue
1.470

@<SCITEGIC>MOL_PROPERTY
Pdih
SciTegic.value.DoubleValue
4.098

@<SCITEGIC>MOL_PROPERTY
Idih
SciTegic.value.DoubleValue
0.000

@<SCITEGIC>MOL_PROPERTY
Tether
SciTegic.value.DoubleValue
0.000

@<TRIPOS>MOLECULE
guest-2_confgen4.mol2 : confsearch ligand conformer 416
          23          22           1
SMALL
USER_CHARGES
 
@<TRIPOS>ATOM
       1    N1      19.863510   20.880786   23.394114 N.4        1 MOL1        -0.5940
       2    H1      20.722820   21.192007   23.858596 H          1 MOL1         0.3649
       3    H2      19.306916   21.720694   23.201605 H          1 MOL1         0.3649
       4    H3      20.132734   20.476991   22.491261 H          1 MOL1         0.3649
       5    C1      19.099379   19.880721   24.240062 C.3        1 MOL1         0.0207
       6    H4      18.164572   19.632642   23.730434 H          1 MOL1         0.0950
       7    H5      18.850845   20.381372   25.179791 H          1 MOL1         0.0950
       8    C2      19.885868   18.590667   24.549761 C.3        1 MOL1        -0.1415
       9    H6      20.920540   18.842279   24.818122 H          1 MOL1         0.0976
      10    H7      19.445810   18.139335   25.448920 H          1 MOL1         0.0976
      11    C3      19.870378   17.519582   23.426084 C.3        1 MOL1        -0.1375
      12    H8      18.842116   17.173285   23.252230 H          1 MOL1         0.0976
      13    H9      20.415751   16.642416   23.801122 H          1 MOL1         0.0976
      14    C4      20.521434   17.953127   22.087642 C.3        1 MOL1        -0.1375
      15    H10     21.306859   18.698056   22.271795 H          1 MOL1         0.0976
      16    H11     21.034542   17.084500   21.651813 H          1 MOL1         0.0976
      17    C5      19.495054   18.468544   21.049378 C.3        1 MOL1        -0.1350
      18    H12     18.851339   19.244132   21.481095 H          1 MOL1         0.0976
      19    H13     18.825762   17.645231   20.762433 H          1 MOL1         0.0976
      20    C6      20.189155   19.020941   19.786482 C.3        1 MOL1        -0.2365
      21    H14     20.842907   19.868498   20.029426 H          1 MOL1         0.0987
      22    H15     19.446248   19.367390   19.056248 H          1 MOL1         0.0987
      23    H16     20.799901   18.247392   19.302768 H          1 MOL1         0.0987
@<TRIPOS>BOND
    1     1     2    1
    2     1     3    1
    3     1     4    1
    4     1     5    1
    5     5     6    1
    6     5     7    1
    7     5     8    1
    8     8     9    1
    9     8    10    1
   10     8    11    1
   11    11    12    1
   12    11    13    1
   13    11    14    1
   14    14    15    1
   15    14    16    1
   16    14    17    1
   17    17    18    1
   18    17    19    1
   19    17    20    1
   20    20    21    1
   21    20    22    1
   22    20    23    1
@<TRIPOS>SUBSTRUCTURE
       1 MOL1            1 RESIDUE      1      MOL     
@<SCITEGIC>MOL_PROPERTY
VConf Rank
SciTegic.value.IntegerValue
416

@<SCITEGIC>MOL_PROPERTY
Conf_Id
SciTegic.value.IntegerValue
5

@<SCITEGIC>MOL_PROPERTY
Delta U+W
SciTegic.value.DoubleValue
6.087

@<SCITEGIC>MOL_PROPERTY
U+W
SciTegic.value.DoubleValue
-2.295

@<SCITEGIC>MOL_PROPERTY
Grad RMS
SciTegic.value.DoubleValue
0.000000

@<SCITEGIC>MOL_PROPERTY
U
SciTegic.value.DoubleValue
52.836

@<SCITEGIC>MOL_PROPERTY
W
SciTegic.value.DoubleValue
-55.131

@<SCITEGIC>MOL_PROPERTY
W(PB)
SciTegic.value.DoubleValue
-57.202

@<SCITEGIC>MOL_PROPERTY
W(SA)
SciTegic.value.DoubleValue
2.071

@<SCITEGIC>MOL_PROPERTY
Valence
SciTegic.value.DoubleValue
5.785

@<SCITEGIC>MOL_PROPERTY
Coulomb
SciTegic.value.DoubleValue
46.744

@<SCITEGIC>MOL_PROPERTY
VdW
SciTegic.value.DoubleValue
0.307

@<SCITEGIC>MOL_PROPERTY
VdW6
SciTegic.value.DoubleValue
-7.672

@<SCITEGIC>MOL_PROPERTY
VdW12
SciTegic.value.DoubleValue
7.980

@<SCITEGIC>MOL_PROPERTY
Bond
SciTegic.value.DoubleValue
0.217

@<SCITEGIC>MOL_PROPERTY
Angle
SciTegic.value.DoubleValue
1.470

@<SCITEGIC>MOL_PROPERTY
Pdih
SciTegic.value.DoubleValue
4.098

@<SCITEGIC>MOL_PROPERTY
Idih
SciTegic.value.DoubleValue
0.000

@<SCITEGIC>MOL_PROPERTY
Tether
SciTegic.value.DoubleValue
0.000

@<TRIPOS>MOLECULE
guest-2_confgen4.mol2 : confsearch ligand conformer 417
          23          22           1
SMALL
USER_CHARGES
 
@<TRIPOS>ATOM
       1    N1      21.348220   17.287943   25.652838 N.4        1 MOL1        -0.5940
       2    H1      21.109946   18.017727   26.332194 H          1 MOL1         0.3649
       3    H2      22.243255   16.884828   25.950333 H          1 MOL1         0.3649
       4    H3      20.643727   16.548918   25.744569 H          1 MOL1         0.3649
       5    C1      21.417509   17.831171   24.240039 C.3        1 MOL1         0.0207
       6    H4      21.703605   17.010523   23.576577 H          1 MOL1         0.0950
       7    H5      22.204768   18.589265   24.208196 H          1 MOL1         0.0950
       8    C2      20.088761   18.443855   23.762940 C.3        1 MOL1        -0.1415
       9    H6      19.297808   17.683537   23.812037 H          1 MOL1         0.0976
      10    H7      19.797155   19.256640   24.441500 H          1 MOL1         0.0976
      11    C3      20.201324   18.985277   22.320589 C.3        1 MOL1        -0.1375
      12    H8      20.498388   18.170343   21.645728 H          1 MOL1         0.0976
      13    H9      20.997163   19.741796   22.274545 H          1 MOL1         0.0976
      14    C4      18.871852   19.603166   21.830978 C.3        1 MOL1        -0.1375
      15    H10     18.076026   18.846811   21.876820 H          1 MOL1         0.0976
      16    H11     18.574689   20.418043   22.505651 H          1 MOL1         0.0976
      17    C5      18.984804   20.144633   20.388475 C.3        1 MOL1        -0.1350
      18    H12     19.279559   19.332480   19.709137 H          1 MOL1         0.0976
      19    H13     19.778164   20.903577   20.337918 H          1 MOL1         0.0976
      20    C6      17.655431   20.760794   19.903066 C.3        1 MOL1        -0.2365
      21    H14     17.755301   21.139508   18.877567 H          1 MOL1         0.0987
      22    H15     17.351692   21.599077   20.543577 H          1 MOL1         0.0987
      23    H16     16.849184   20.015712   19.909909 H          1 MOL1         0.0987
@<TRIPOS>BOND
    1     1     2    1
    2     1     3    1
    3     1     4    1
    4     1     5    1
    5     5     6    1
    6     5     7    1
    7     5     8    1
    8     8     9    1
    9     8    10    1
   10     8    11    1
   11    11    12    1
   12    11    13    1
   13    11    14    1
   14    14    15    1
   15    14    16    1
   16    14    17    1
   17    17    18    1
   18    17    19    1
   19    17    20    1
   20    20    21    1
   21    20    22    1
   22    20    23    1
@<TRIPOS>SUBSTRUCTURE
       1 MOL1            1 RESIDUE      1      MOL     
@<SCITEGIC>MOL_PROPERTY
VConf Rank
SciTegic.value.IntegerValue
417

@<SCITEGIC>MOL_PROPERTY
Conf_Id
SciTegic.value.IntegerValue
40

@<SCITEGIC>MOL_PROPERTY
Delta U+W
SciTegic.value.DoubleValue
0.000

@<SCITEGIC>MOL_PROPERTY
U+W
SciTegic.value.DoubleValue
-8.382

@<SCITEGIC>MOL_PROPERTY
Grad RMS
SciTegic.value.DoubleValue
0.000000

@<SCITEGIC>MOL_PROPERTY
U
SciTegic.value.DoubleValue
46.604

@<SCITEGIC>MOL_PROPERTY
W
SciTegic.value.DoubleValue
-54.986

@<SCITEGIC>MOL_PROPERTY
W(PB)
SciTegic.value.DoubleValue
-57.162

@<SCITEGIC>MOL_PROPERTY
W(SA)
SciTegic.value.DoubleValue
2.176

@<SCITEGIC>MOL_PROPERTY
Valence
SciTegic.value.DoubleValue
1.727

@<SCITEGIC>MOL_PROPERTY
Coulomb
SciTegic.value.DoubleValue
44.434

@<SCITEGIC>MOL_PROPERTY
VdW
SciTegic.value.DoubleValue
0.443

@<SCITEGIC>MOL_PROPERTY
VdW6
SciTegic.value.DoubleValue
-4.623

@<SCITEGIC>MOL_PROPERTY
VdW12
SciTegic.value.DoubleValue
5.066

@<SCITEGIC>MOL_PROPERTY
Bond
SciTegic.value.DoubleValue
0.112

@<SCITEGIC>MOL_PROPERTY
Angle
SciTegic.value.DoubleValue
0.386

@<SCITEGIC>MOL_PROPERTY
Pdih
SciTegic.value.DoubleValue
1.228

@<SCITEGIC>MOL_PROPERTY
Idih
SciTegic.value.DoubleValue
0.000

@<SCITEGIC>MOL_PROPERTY
Tether
SciTegic.value.DoubleValue
0.000

@<TRIPOS>MOLECULE
guest-2_confgen4.mol2 : confsearch ligand conformer 418
          23          22           1
SMALL
USER_CHARGES
 
@<TRIPOS>ATOM
       1    N1      23.307585   19.376883   22.299920 N.4        1 MOL1        -0.5940
       2    H1      23.593059   19.259823   21.322351 H          1 MOL1         0.3649
       3    H2      23.563687   18.515952   22.793928 H          1 MOL1         0.3649
       4    H3      23.885862   20.128282   22.691102 H          1 MOL1         0.3649
       5    C1      21.828613   19.681711   22.424434 C.3        1 MOL1         0.0207
       6    H4      21.632684   20.621979   21.902017 H          1 MOL1         0.0950
       7    H5      21.604242   19.823684   23.484632 H          1 MOL1         0.0950
       8    C2      20.932737   18.570619   21.844768 C.3        1 MOL1        -0.1415
       9    H6      21.202287   18.406656   20.792910 H          1 MOL1         0.0976
      10    H7      21.128242   17.626193   22.369954 H          1 MOL1         0.0976
      11    C3      19.425557   18.909802   21.928339 C.3        1 MOL1        -0.1375
      12    H8      18.867869   18.128286   21.396193 H          1 MOL1         0.0976
      13    H9      19.231488   19.850026   21.393841 H          1 MOL1         0.0976
      14    C4      18.906492   19.018660   23.384806 C.3        1 MOL1        -0.1375
      15    H10     19.082052   18.071082   23.912533 H          1 MOL1         0.0976
      16    H11     19.481398   19.783343   23.923554 H          1 MOL1         0.0976
      17    C5      17.406642   19.390553   23.477925 C.3        1 MOL1        -0.1350
      18    H12     17.226895   20.343329   22.960520 H          1 MOL1         0.0976
      19    H13     17.151547   19.561605   24.533170 H          1 MOL1         0.0976
      20    C6      16.465169   18.304151   22.909815 C.3        1 MOL1        -0.2365
      21    H14     16.593522   18.184150   21.827049 H          1 MOL1         0.0987
      22    H15     15.416213   18.573628   23.088757 H          1 MOL1         0.0987
      23    H16     16.648153   17.333275   23.388281 H          1 MOL1         0.0987
@<TRIPOS>BOND
    1     1     2    1
    2     1     3    1
    3     1     4    1
    4     1     5    1
    5     5     6    1
    6     5     7    1
    7     5     8    1
    8     8     9    1
    9     8    10    1
   10     8    11    1
   11    11    12    1
   12    11    13    1
   13    11    14    1
   14    14    15    1
   15    14    16    1
   16    14    17    1
   17    17    18    1
   18    17    19    1
   19    17    20    1
   20    20    21    1
   21    20    22    1
   22    20    23    1
@<TRIPOS>SUBSTRUCTURE
       1 MOL1            1 RESIDUE      1      MOL     
@<SCITEGIC>MOL_PROPERTY
VConf Rank
SciTegic.value.IntegerValue
418

@<SCITEGIC>MOL_PROPERTY
Conf_Id
SciTegic.value.IntegerValue
65

@<SCITEGIC>MOL_PROPERTY
Delta U+W
SciTegic.value.DoubleValue
1.004

@<SCITEGIC>MOL_PROPERTY
U+W
SciTegic.value.DoubleValue
-7.378

@<SCITEGIC>MOL_PROPERTY
Grad RMS
SciTegic.value.DoubleValue
0.000000

@<SCITEGIC>MOL_PROPERTY
U
SciTegic.value.DoubleValue
48.047

@<SCITEGIC>MOL_PROPERTY
W
SciTegic.value.DoubleValue
-55.425

@<SCITEGIC>MOL_PROPERTY
W(PB)
SciTegic.value.DoubleValue
-57.542

@<SCITEGIC>MOL_PROPERTY
W(SA)
SciTegic.value.DoubleValue
2.116

@<SCITEGIC>MOL_PROPERTY
Valence
SciTegic.value.DoubleValue
2.583

@<SCITEGIC>MOL_PROPERTY
Coulomb
SciTegic.value.DoubleValue
44.791

@<SCITEGIC>MOL_PROPERTY
VdW
SciTegic.value.DoubleValue
0.673

@<SCITEGIC>MOL_PROPERTY
VdW6
SciTegic.value.DoubleValue
-5.788

@<SCITEGIC>MOL_PROPERTY
VdW12
SciTegic.value.DoubleValue
6.462

@<SCITEGIC>MOL_PROPERTY
Bond
SciTegic.value.DoubleValue
0.177

@<SCITEGIC>MOL_PROPERTY
Angle
SciTegic.value.DoubleValue
0.787

@<SCITEGIC>MOL_PROPERTY
Pdih
SciTegic.value.DoubleValue
1.619

@<SCITEGIC>MOL_PROPERTY
Idih
SciTegic.value.DoubleValue
0.000

@<SCITEGIC>MOL_PROPERTY
Tether
SciTegic.value.DoubleValue
0.000

@<TRIPOS>MOLECULE
guest-2_confgen4.mol2 : confsearch ligand conformer 419
          23          22           1
SMALL
USER_CHARGES
 
@<TRIPOS>ATOM
       1    N1      19.529294   17.259926   25.712471 N.4        1 MOL1        -0.5940
       2    H1      18.686817   17.546452   26.221365 H          1 MOL1         0.3649
       3    H2      20.272213   17.140801   26.409543 H          1 MOL1         0.3649
       4    H3      19.341501   16.333463   25.315942 H          1 MOL1         0.3649
       5    C1      19.914280   18.264318   24.645345 C.3        1 MOL1         0.0207
       6    H4      20.832142   17.910972   24.168695 H          1 MOL1         0.0950
       7    H5      20.127062   19.216382   25.139014 H          1 MOL1         0.0950
       8    C2      18.817446   18.465655   23.582541 C.3        1 MOL1        -0.1415
       9    H6      18.604147   17.509905   23.085521 H          1 MOL1         0.0976
      10    H7      17.889038   18.774349   24.081253 H          1 MOL1         0.0976
      11    C3      19.194820   19.529292   22.524297 C.3        1 MOL1        -0.1375
      12    H8      19.398048   20.486776   23.023590 H          1 MOL1         0.0976
      13    H9      18.323358   19.694203   21.877518 H          1 MOL1         0.0976
      14    C4      20.414336   19.120596   21.659242 C.3        1 MOL1        -0.1375
      15    H10     21.279006   18.931872   22.309038 H          1 MOL1         0.0976
      16    H11     20.202414   18.173606   21.143956 H          1 MOL1         0.0976
      17    C5      20.819453   20.193844   20.619752 C.3        1 MOL1        -0.1350
      18    H12     21.754138   19.878825   20.134986 H          1 MOL1         0.0976
      19    H13     21.042897   21.140837   21.130706 H          1 MOL1         0.0976
      20    C6      19.750256   20.430781   19.528850 C.3        1 MOL1        -0.2365
      21    H14     18.835233   20.867164   19.947849 H          1 MOL1         0.0987
      22    H15     19.485134   19.492208   19.025063 H          1 MOL1         0.0987
      23    H16     20.126858   21.125426   18.766889 H          1 MOL1         0.0987
@<TRIPOS>BOND
    1     1     2    1
    2     1     3    1
    3     1     4    1
    4     1     5    1
    5     5     6    1
    6     5     7    1
    7     5     8    1
    8     8     9    1
    9     8    10    1
   10     8    11    1
   11    11    12    1
   12    11    13    1
   13    11    14    1
   14    14    15    1
   15    14    16    1
   16    14    17    1
   17    17    18    1
   18    17    19    1
   19    17    20    1
   20    20    21    1
   21    20    22    1
   22    20    23    1
@<TRIPOS>SUBSTRUCTURE
       1 MOL1            1 RESIDUE      1      MOL     
@<SCITEGIC>MOL_PROPERTY
VConf Rank
SciTegic.value.IntegerValue
419

@<SCITEGIC>MOL_PROPERTY
Conf_Id
SciTegic.value.IntegerValue
92

@<SCITEGIC>MOL_PROPERTY
Delta U+W
SciTegic.value.DoubleValue
0.973

@<SCITEGIC>MOL_PROPERTY
U+W
SciTegic.value.DoubleValue
-7.409

@<SCITEGIC>MOL_PROPERTY
Grad RMS
SciTegic.value.DoubleValue
0.000000

@<SCITEGIC>MOL_PROPERTY
U
SciTegic.value.DoubleValue
48.047

@<SCITEGIC>MOL_PROPERTY
W
SciTegic.value.DoubleValue
-55.456

@<SCITEGIC>MOL_PROPERTY
W(PB)
SciTegic.value.DoubleValue
-57.595

@<SCITEGIC>MOL_PROPERTY
W(SA)
SciTegic.value.DoubleValue
2.138

@<SCITEGIC>MOL_PROPERTY
Valence
SciTegic.value.DoubleValue
2.583

@<SCITEGIC>MOL_PROPERTY
Coulomb
SciTegic.value.DoubleValue
44.791

@<SCITEGIC>MOL_PROPERTY
VdW
SciTegic.value.DoubleValue
0.674

@<SCITEGIC>MOL_PROPERTY
VdW6
SciTegic.value.DoubleValue
-5.789

@<SCITEGIC>MOL_PROPERTY
VdW12
SciTegic.value.DoubleValue
6.462

@<SCITEGIC>MOL_PROPERTY
Bond
SciTegic.value.DoubleValue
0.177

@<SCITEGIC>MOL_PROPERTY
Angle
SciTegic.value.DoubleValue
0.787

@<SCITEGIC>MOL_PROPERTY
Pdih
SciTegic.value.DoubleValue
1.619

@<SCITEGIC>MOL_PROPERTY
Idih
SciTegic.value.DoubleValue
0.000

@<SCITEGIC>MOL_PROPERTY
Tether
SciTegic.value.DoubleValue
0.000

@<TRIPOS>MOLECULE
guest-2_confgen4.mol2 : confsearch ligand conformer 420
          23          22           1
SMALL
USER_CHARGES
 
@<TRIPOS>ATOM
       1    N1      19.844164   15.665482   23.848537 N.4        1 MOL1        -0.5940
       2    H1      20.281584   14.907953   23.312956 H          1 MOL1         0.3649
       3    H2      18.965601   15.294989   24.224990 H          1 MOL1         0.3649
       4    H3      20.457040   15.857917   24.647406 H          1 MOL1         0.3649
       5    C1      19.619253   16.899211   22.998182 C.3        1 MOL1         0.0207
       6    H4      18.984634   16.616263   22.154015 H          1 MOL1         0.0950
       7    H5      20.589005   17.218604   22.607971 H          1 MOL1         0.0950
       8    C2      18.962674   18.056060   23.775008 C.3        1 MOL1        -0.1415
       9    H6      18.011028   17.708795   24.198947 H          1 MOL1         0.0976
      10    H7      19.599750   18.339639   24.623367 H          1 MOL1         0.0976
      11    C3      18.694757   19.295422   22.888871 C.3        1 MOL1        -0.1375
      12    H8      18.144794   20.039678   23.481387 H          1 MOL1         0.0976
      13    H9      18.036251   19.014271   22.055221 H          1 MOL1         0.0976
      14    C4      19.989316   19.940038   22.337465 C.3        1 MOL1        -0.1375
      15    H10     20.659471   20.189642   23.171735 H          1 MOL1         0.0976
      16    H11     20.525395   19.222125   21.702423 H          1 MOL1         0.0976
      17    C5      19.691195   21.215772   21.518687 C.3        1 MOL1        -0.1350
      18    H12     19.161717   21.945459   22.147313 H          1 MOL1         0.0976
      19    H13     19.020407   20.971868   20.682905 H          1 MOL1         0.0976
      20    C6      20.982793   21.857030   20.968119 C.3        1 MOL1        -0.2365
      21    H14     21.660189   22.142858   21.783389 H          1 MOL1         0.0987
      22    H15     20.750857   22.761168   20.390378 H          1 MOL1         0.0987
      23    H16     21.517522   21.162785   20.306825 H          1 MOL1         0.0987
@<TRIPOS>BOND
    1     1     2    1
    2     1     3    1
    3     1     4    1
    4     1     5    1
    5     5     6    1
    6     5     7    1
    7     5     8    1
    8     8     9    1
    9     8    10    1
   10     8    11    1
   11    11    12    1
   12    11    13    1
   13    11    14    1
   14    14    15    1
   15    14    16    1
   16    14    17    1
   17    17    18    1
   18    17    19    1
   19    17    20    1
   20    20    21    1
   21    20    22    1
   22    20    23    1
@<TRIPOS>SUBSTRUCTURE
       1 MOL1            1 RESIDUE      1      MOL     
@<SCITEGIC>MOL_PROPERTY
VConf Rank
SciTegic.value.IntegerValue
420

@<SCITEGIC>MOL_PROPERTY
Conf_Id
SciTegic.value.IntegerValue
42

@<SCITEGIC>MOL_PROPERTY
Delta U+W
SciTegic.value.DoubleValue
0.365

@<SCITEGIC>MOL_PROPERTY
U+W
SciTegic.value.DoubleValue
-8.017

@<SCITEGIC>MOL_PROPERTY
Grad RMS
SciTegic.value.DoubleValue
0.000000

@<SCITEGIC>MOL_PROPERTY
U
SciTegic.value.DoubleValue
47.375

@<SCITEGIC>MOL_PROPERTY
W
SciTegic.value.DoubleValue
-55.392

@<SCITEGIC>MOL_PROPERTY
W(PB)
SciTegic.value.DoubleValue
-57.543

@<SCITEGIC>MOL_PROPERTY
W(SA)
SciTegic.value.DoubleValue
2.152

@<SCITEGIC>MOL_PROPERTY
Valence
SciTegic.value.DoubleValue
2.032

@<SCITEGIC>MOL_PROPERTY
Coulomb
SciTegic.value.DoubleValue
44.843

@<SCITEGIC>MOL_PROPERTY
VdW
SciTegic.value.DoubleValue
0.499

@<SCITEGIC>MOL_PROPERTY
VdW6
SciTegic.value.DoubleValue
-5.218

@<SCITEGIC>MOL_PROPERTY
VdW12
SciTegic.value.DoubleValue
5.717

@<SCITEGIC>MOL_PROPERTY
Bond
SciTegic.value.DoubleValue
0.135

@<SCITEGIC>MOL_PROPERTY
Angle
SciTegic.value.DoubleValue
0.514

@<SCITEGIC>MOL_PROPERTY
Pdih
SciTegic.value.DoubleValue
1.383

@<SCITEGIC>MOL_PROPERTY
Idih
SciTegic.value.DoubleValue
0.000

@<SCITEGIC>MOL_PROPERTY
Tether
SciTegic.value.DoubleValue
0.000

@<TRIPOS>MOLECULE
guest-2_confgen4.mol2 : confsearch ligand conformer 421
          23          22           1
SMALL
USER_CHARGES
 
@<TRIPOS>ATOM
       1    N1      20.599335   16.755621   20.522747 N.4        1 MOL1        -0.5940
       2    H1      21.575222   16.746361   20.836101 H          1 MOL1         0.3649
       3    H2      20.575196   16.294370   19.606988 H          1 MOL1         0.3649
       4    H3      20.068065   16.164643   21.169198 H          1 MOL1         0.3649
       5    C1      20.041261   18.164149   20.458056 C.3        1 MOL1         0.0207
       6    H4      19.011186   18.105744   20.096176 H          1 MOL1         0.0950
       7    H5      20.629600   18.718606   19.721847 H          1 MOL1         0.0950
       8    C2      20.076516   18.911484   21.805453 C.3        1 MOL1        -0.1415
       9    H6      21.108046   18.944721   22.180273 H          1 MOL1         0.0976
      10    H7      19.768861   19.948157   21.621671 H          1 MOL1         0.0976
      11    C3      19.143182   18.278059   22.865862 C.3        1 MOL1        -0.1375
      12    H8      19.383510   17.212290   22.974079 H          1 MOL1         0.0976
      13    H9      18.104738   18.322325   22.509377 H          1 MOL1         0.0976
      14    C4      19.233660   18.931582   24.269350 C.3        1 MOL1        -0.1375
      15    H10     18.564872   18.371658   24.937701 H          1 MOL1         0.0976
      16    H11     20.242755   18.798897   24.683292 H          1 MOL1         0.0976
      17    C5      18.824958   20.426485   24.320999 C.3        1 MOL1        -0.1350
      18    H12     18.309793   20.615824   25.273222 H          1 MOL1         0.0976
      19    H13     18.092927   20.650358   23.532576 H          1 MOL1         0.0976
      20    C6      20.027455   21.394972   24.229921 C.3        1 MOL1        -0.2365
      21    H14     20.727652   21.228595   25.058837 H          1 MOL1         0.0987
      22    H15     19.686468   22.436793   24.286935 H          1 MOL1         0.0987
      23    H16     20.581997   21.278128   23.292397 H          1 MOL1         0.0987
@<TRIPOS>BOND
    1     1     2    1
    2     1     3    1
    3     1     4    1
    4     1     5    1
    5     5     6    1
    6     5     7    1
    7     5     8    1
    8     8     9    1
    9     8    10    1
   10     8    11    1
   11    11    12    1
   12    11    13    1
   13    11    14    1
   14    14    15    1
   15    14    16    1
   16    14    17    1
   17    17    18    1
   18    17    19    1
   19    17    20    1
   20    20    21    1
   21    20    22    1
   22    20    23    1
@<TRIPOS>SUBSTRUCTURE
       1 MOL1            1 RESIDUE      1      MOL     
@<SCITEGIC>MOL_PROPERTY
VConf Rank
SciTegic.value.IntegerValue
421

@<SCITEGIC>MOL_PROPERTY
Conf_Id
SciTegic.value.IntegerValue
3

@<SCITEGIC>MOL_PROPERTY
Delta U+W
SciTegic.value.DoubleValue
3.283

@<SCITEGIC>MOL_PROPERTY
U+W
SciTegic.value.DoubleValue
-5.099

@<SCITEGIC>MOL_PROPERTY
Grad RMS
SciTegic.value.DoubleValue
0.000000

@<SCITEGIC>MOL_PROPERTY
U
SciTegic.value.DoubleValue
50.701

@<SCITEGIC>MOL_PROPERTY
W
SciTegic.value.DoubleValue
-55.800

@<SCITEGIC>MOL_PROPERTY
W(PB)
SciTegic.value.DoubleValue
-57.867

@<SCITEGIC>MOL_PROPERTY
W(SA)
SciTegic.value.DoubleValue
2.067

@<SCITEGIC>MOL_PROPERTY
Valence
SciTegic.value.DoubleValue
4.880

@<SCITEGIC>MOL_PROPERTY
Coulomb
SciTegic.value.DoubleValue
45.095

@<SCITEGIC>MOL_PROPERTY
VdW
SciTegic.value.DoubleValue
0.726

@<SCITEGIC>MOL_PROPERTY
VdW6
SciTegic.value.DoubleValue
-6.620

@<SCITEGIC>MOL_PROPERTY
VdW12
SciTegic.value.DoubleValue
7.346

@<SCITEGIC>MOL_PROPERTY
Bond
SciTegic.value.DoubleValue
0.222

@<SCITEGIC>MOL_PROPERTY
Angle
SciTegic.value.DoubleValue
1.260

@<SCITEGIC>MOL_PROPERTY
Pdih
SciTegic.value.DoubleValue
3.398

@<SCITEGIC>MOL_PROPERTY
Idih
SciTegic.value.DoubleValue
0.000

@<SCITEGIC>MOL_PROPERTY
Tether
SciTegic.value.DoubleValue
0.000

@<TRIPOS>MOLECULE
guest-2_confgen4.mol2 : confsearch ligand conformer 422
          23          22           1
SMALL
USER_CHARGES
 
@<TRIPOS>ATOM
       1    N1      21.997590   19.516496   24.428301 N.4        1 MOL1        -0.5940
       2    H1      22.318772   18.664586   24.899093 H          1 MOL1         0.3649
       3    H2      22.607083   20.279513   24.741601 H          1 MOL1         0.3649
       4    H3      22.164787   19.390287   23.425447 H          1 MOL1         0.3649
       5    C1      20.538191   19.805021   24.720191 C.3        1 MOL1         0.0207
       6    H4      20.269411   20.737095   24.216716 H          1 MOL1         0.0950
       7    H5      20.439290   19.962153   25.797713 H          1 MOL1         0.0950
       8    C2      19.582757   18.677483   24.278512 C.3        1 MOL1        -0.1415
       9    H6      19.831573   17.761223   24.830202 H          1 MOL1         0.0976
      10    H7      18.560322   18.945185   24.576543 H          1 MOL1         0.0976
      11    C3      19.610005   18.381368   22.757585 C.3        1 MOL1        -0.1375
      12    H8      18.929911   17.542112   22.562659 H          1 MOL1         0.0976
      13    H9      20.610356   18.039206   22.460984 H          1 MOL1         0.0976
      14    C4      19.193375   19.597586   21.891754 C.3        1 MOL1        -0.1375
      15    H10     18.181214   19.921342   22.170826 H          1 MOL1         0.0976
      16    H11     19.858135   20.445201   22.103880 H          1 MOL1         0.0976
      17    C5      19.244063   19.316824   20.370225 C.3        1 MOL1        -0.1350
      18    H12     20.257392   19.002930   20.083240 H          1 MOL1         0.0976
      19    H13     19.049997   20.255645   19.832808 H          1 MOL1         0.0976
      20    C6      18.219563   18.257485   19.903807 C.3        1 MOL1        -0.2365
      21    H14     17.201203   18.531969   20.208123 H          1 MOL1         0.0987
      22    H15     18.446847   17.266602   20.315802 H          1 MOL1         0.0987
      23    H16     18.230124   18.169057   18.809731 H          1 MOL1         0.0987
@<TRIPOS>BOND
    1     1     2    1
    2     1     3    1
    3     1     4    1
    4     1     5    1
    5     5     6    1
    6     5     7    1
    7     5     8    1
    8     8     9    1
    9     8    10    1
   10     8    11    1
   11    11    12    1
   12    11    13    1
   13    11    14    1
   14    14    15    1
   15    14    16    1
   16    14    17    1
   17    17    18    1
   18    17    19    1
   19    17    20    1
   20    20    21    1
   21    20    22    1
   22    20    23    1
@<TRIPOS>SUBSTRUCTURE
       1 MOL1            1 RESIDUE      1      MOL     
@<SCITEGIC>MOL_PROPERTY
VConf Rank
SciTegic.value.IntegerValue
422

@<SCITEGIC>MOL_PROPERTY
Conf_Id
SciTegic.value.IntegerValue
83

@<SCITEGIC>MOL_PROPERTY
Delta U+W
SciTegic.value.DoubleValue
1.229

@<SCITEGIC>MOL_PROPERTY
U+W
SciTegic.value.DoubleValue
-7.154

@<SCITEGIC>MOL_PROPERTY
Grad RMS
SciTegic.value.DoubleValue
0.000000

@<SCITEGIC>MOL_PROPERTY
U
SciTegic.value.DoubleValue
48.727

@<SCITEGIC>MOL_PROPERTY
W
SciTegic.value.DoubleValue
-55.880

@<SCITEGIC>MOL_PROPERTY
W(PB)
SciTegic.value.DoubleValue
-57.960

@<SCITEGIC>MOL_PROPERTY
W(SA)
SciTegic.value.DoubleValue
2.080

@<SCITEGIC>MOL_PROPERTY
Valence
SciTegic.value.DoubleValue
2.671

@<SCITEGIC>MOL_PROPERTY
Coulomb
SciTegic.value.DoubleValue
45.371

@<SCITEGIC>MOL_PROPERTY
VdW
SciTegic.value.DoubleValue
0.684

@<SCITEGIC>MOL_PROPERTY
VdW6
SciTegic.value.DoubleValue
-6.511

@<SCITEGIC>MOL_PROPERTY
VdW12
SciTegic.value.DoubleValue
7.195

@<SCITEGIC>MOL_PROPERTY
Bond
SciTegic.value.DoubleValue
0.203

@<SCITEGIC>MOL_PROPERTY
Angle
SciTegic.value.DoubleValue
0.915

@<SCITEGIC>MOL_PROPERTY
Pdih
SciTegic.value.DoubleValue
1.554

@<SCITEGIC>MOL_PROPERTY
Idih
SciTegic.value.DoubleValue
0.000

@<SCITEGIC>MOL_PROPERTY
Tether
SciTegic.value.DoubleValue
0.000

@<TRIPOS>MOLECULE
guest-2_confgen4.mol2 : confsearch ligand conformer 423
          23          22           1
SMALL
USER_CHARGES
 
@<TRIPOS>ATOM
       1    N1      18.135799   19.766573   24.905429 N.4        1 MOL1        -0.5940
       2    H1      18.650195   19.693661   25.788963 H          1 MOL1         0.3649
       3    H2      18.083586   18.824512   24.506184 H          1 MOL1         0.3649
       4    H3      17.177741   20.048153   25.139250 H          1 MOL1         0.3649
       5    C1      18.792953   20.743342   23.950251 C.3        1 MOL1         0.0207
       6    H4      18.783573   21.728862   24.423737 H          1 MOL1         0.0950
       7    H5      18.181366   20.797043   23.046056 H          1 MOL1         0.0950
       8    C2      20.242576   20.368309   23.579814 C.3        1 MOL1        -0.1415
       9    H6      20.655416   21.153934   22.933118 H          1 MOL1         0.0976
      10    H7      20.856048   20.368876   24.490559 H          1 MOL1         0.0976
      11    C3      20.382469   18.997566   22.870490 C.3        1 MOL1        -0.1375
      12    H8      20.042566   18.194606   23.537924 H          1 MOL1         0.0976
      13    H9      21.449989   18.814862   22.691896 H          1 MOL1         0.0976
      14    C4      19.612587   18.924407   21.527225 C.3        1 MOL1        -0.1375
      15    H10     18.548470   19.131040   21.701327 H          1 MOL1         0.0976
      16    H11     19.973397   19.711094   20.850387 H          1 MOL1         0.0976
      17    C5      19.726065   17.548796   20.826324 C.3        1 MOL1        -0.1350
      18    H12     19.062405   17.544730   19.950309 H          1 MOL1         0.0976
      19    H13     19.356365   16.758818   21.494893 H          1 MOL1         0.0976
      20    C6      21.161030   17.208908   20.362973 C.3        1 MOL1        -0.2365
      21    H14     21.566128   18.000374   19.719168 H          1 MOL1         0.0987
      22    H15     21.167356   16.273514   19.788574 H          1 MOL1         0.0987
      23    H16     21.839860   17.076334   21.214358 H          1 MOL1         0.0987
@<TRIPOS>BOND
    1     1     2    1
    2     1     3    1
    3     1     4    1
    4     1     5    1
    5     5     6    1
    6     5     7    1
    7     5     8    1
    8     8     9    1
    9     8    10    1
   10     8    11    1
   11    11    12    1
   12    11    13    1
   13    11    14    1
   14    14    15    1
   15    14    16    1
   16    14    17    1
   17    17    18    1
   18    17    19    1
   19    17    20    1
   20    20    21    1
   21    20    22    1
   22    20    23    1
@<TRIPOS>SUBSTRUCTURE
       1 MOL1            1 RESIDUE      1      MOL     
@<SCITEGIC>MOL_PROPERTY
VConf Rank
SciTegic.value.IntegerValue
423

@<SCITEGIC>MOL_PROPERTY
Conf_Id
SciTegic.value.IntegerValue
50

@<SCITEGIC>MOL_PROPERTY
Delta U+W
SciTegic.value.DoubleValue
1.252

@<SCITEGIC>MOL_PROPERTY
U+W
SciTegic.value.DoubleValue
-7.130

@<SCITEGIC>MOL_PROPERTY
Grad RMS
SciTegic.value.DoubleValue
0.000000

@<SCITEGIC>MOL_PROPERTY
U
SciTegic.value.DoubleValue
48.727

@<SCITEGIC>MOL_PROPERTY
W
SciTegic.value.DoubleValue
-55.857

@<SCITEGIC>MOL_PROPERTY
W(PB)
SciTegic.value.DoubleValue
-57.937

@<SCITEGIC>MOL_PROPERTY
W(SA)
SciTegic.value.DoubleValue
2.080

@<SCITEGIC>MOL_PROPERTY
Valence
SciTegic.value.DoubleValue
2.671

@<SCITEGIC>MOL_PROPERTY
Coulomb
SciTegic.value.DoubleValue
45.371

@<SCITEGIC>MOL_PROPERTY
VdW
SciTegic.value.DoubleValue
0.684

@<SCITEGIC>MOL_PROPERTY
VdW6
SciTegic.value.DoubleValue
-6.511

@<SCITEGIC>MOL_PROPERTY
VdW12
SciTegic.value.DoubleValue
7.196

@<SCITEGIC>MOL_PROPERTY
Bond
SciTegic.value.DoubleValue
0.203

@<SCITEGIC>MOL_PROPERTY
Angle
SciTegic.value.DoubleValue
0.915

@<SCITEGIC>MOL_PROPERTY
Pdih
SciTegic.value.DoubleValue
1.554

@<SCITEGIC>MOL_PROPERTY
Idih
SciTegic.value.DoubleValue
0.000

@<SCITEGIC>MOL_PROPERTY
Tether
SciTegic.value.DoubleValue
0.000

@<TRIPOS>MOLECULE
guest-2_confgen4.mol2 : confsearch ligand conformer 424
          23          22           1
SMALL
USER_CHARGES
 
@<TRIPOS>ATOM
       1    N1      17.167923   18.035277   24.113656 N.4        1 MOL1        -0.5940
       2    H1      17.872115   17.357027   24.419635 H          1 MOL1         0.3649
       3    H2      16.279437   17.529178   24.033751 H          1 MOL1         0.3649
       4    H3      17.055800   18.718043   24.869887 H          1 MOL1         0.3649
       5    C1      17.556602   18.699621   22.807205 C.3        1 MOL1         0.0207
       6    H4      16.744285   19.374683   22.524352 H          1 MOL1         0.0950
       7    H5      17.635745   17.922840   22.041855 H          1 MOL1         0.0950
       8    C2      18.876506   19.491637   22.880164 C.3        1 MOL1        -0.1415
       9    H6      19.012199   20.019694   21.929686 H          1 MOL1         0.0976
      10    H7      18.793865   20.266850   23.653457 H          1 MOL1         0.0976
      11    C3      20.100777   18.586462   23.170843 C.3        1 MOL1        -0.1375
      12    H8      20.137102   17.751442   22.457556 H          1 MOL1         0.0976
      13    H9      19.972142   18.134028   24.163187 H          1 MOL1         0.0976
      14    C4      21.449124   19.353245   23.160410 C.3        1 MOL1        -0.1375
      15    H10     21.296390   20.398237   23.463490 H          1 MOL1         0.0976
      16    H11     22.098512   18.914249   23.930520 H          1 MOL1         0.0976
      17    C5      22.217532   19.294981   21.815284 C.3        1 MOL1        -0.1350
      18    H12     22.454945   18.249948   21.571738 H          1 MOL1         0.0976
      19    H13     23.183178   19.803864   21.943263 H          1 MOL1         0.0976
      20    C6      21.471655   19.940770   20.627154 C.3        1 MOL1        -0.2365
      21    H14     21.168296   20.969310   20.861492 H          1 MOL1         0.0987
      22    H15     20.578085   19.364806   20.356835 H          1 MOL1         0.0987
      23    H16     22.119023   19.975456   19.741377 H          1 MOL1         0.0987
@<TRIPOS>BOND
    1     1     2    1
    2     1     3    1
    3     1     4    1
    4     1     5    1
    5     5     6    1
    6     5     7    1
    7     5     8    1
    8     8     9    1
    9     8    10    1
   10     8    11    1
   11    11    12    1
   12    11    13    1
   13    11    14    1
   14    14    15    1
   15    14    16    1
   16    14    17    1
   17    17    18    1
   18    17    19    1
   19    17    20    1
   20    20    21    1
   21    20    22    1
   22    20    23    1
@<TRIPOS>SUBSTRUCTURE
       1 MOL1            1 RESIDUE      1      MOL     
@<SCITEGIC>MOL_PROPERTY
VConf Rank
SciTegic.value.IntegerValue
424

@<SCITEGIC>MOL_PROPERTY
Conf_Id
SciTegic.value.IntegerValue
55

@<SCITEGIC>MOL_PROPERTY
Delta U+W
SciTegic.value.DoubleValue
3.232

@<SCITEGIC>MOL_PROPERTY
U+W
SciTegic.value.DoubleValue
-5.150

@<SCITEGIC>MOL_PROPERTY
Grad RMS
SciTegic.value.DoubleValue
0.000000

@<SCITEGIC>MOL_PROPERTY
U
SciTegic.value.DoubleValue
50.625

@<SCITEGIC>MOL_PROPERTY
W
SciTegic.value.DoubleValue
-55.776

@<SCITEGIC>MOL_PROPERTY
W(PB)
SciTegic.value.DoubleValue
-57.839

@<SCITEGIC>MOL_PROPERTY
W(SA)
SciTegic.value.DoubleValue
2.064

@<SCITEGIC>MOL_PROPERTY
Valence
SciTegic.value.DoubleValue
4.837

@<SCITEGIC>MOL_PROPERTY
Coulomb
SciTegic.value.DoubleValue
45.097

@<SCITEGIC>MOL_PROPERTY
VdW
SciTegic.value.DoubleValue
0.692

@<SCITEGIC>MOL_PROPERTY
VdW6
SciTegic.value.DoubleValue
-6.655

@<SCITEGIC>MOL_PROPERTY
VdW12
SciTegic.value.DoubleValue
7.347

@<SCITEGIC>MOL_PROPERTY
Bond
SciTegic.value.DoubleValue
0.223

@<SCITEGIC>MOL_PROPERTY
Angle
SciTegic.value.DoubleValue
1.167

@<SCITEGIC>MOL_PROPERTY
Pdih
SciTegic.value.DoubleValue
3.447

@<SCITEGIC>MOL_PROPERTY
Idih
SciTegic.value.DoubleValue
0.000

@<SCITEGIC>MOL_PROPERTY
Tether
SciTegic.value.DoubleValue
0.000

@<TRIPOS>MOLECULE
guest-2_confgen4.mol2 : confsearch ligand conformer 425
          23          22           1
SMALL
USER_CHARGES
 
@<TRIPOS>ATOM
       1    N1      21.342847   20.814638   20.508409 N.4        1 MOL1        -0.5940
       2    H1      21.156007   21.818353   20.416352 H          1 MOL1         0.3649
       3    H2      21.544169   20.461795   19.566618 H          1 MOL1         0.3649
       4    H3      22.205291   20.717509   21.053856 H          1 MOL1         0.3649
       5    C1      20.182595   20.080328   21.148918 C.3        1 MOL1         0.0207
       6    H4      20.436314   19.019210   21.180486 H          1 MOL1         0.0950
       7    H5      19.309492   20.202662   20.502291 H          1 MOL1         0.0950
       8    C2      19.851899   20.594185   22.563972 C.3        1 MOL1        -0.1415
       9    H6      20.734429   20.520676   23.213278 H          1 MOL1         0.0976
      10    H7      19.609723   21.662779   22.489965 H          1 MOL1         0.0976
      11    C3      18.650660   19.860521   23.212221 C.3        1 MOL1        -0.1375
      12    H8      17.887790   19.642681   22.451842 H          1 MOL1         0.0976
      13    H9      18.173077   20.549249   23.922902 H          1 MOL1         0.0976
      14    C4      19.014643   18.567716   23.987879 C.3        1 MOL1        -0.1375
      15    H10     19.697733   18.815507   24.812063 H          1 MOL1         0.0976
      16    H11     18.099070   18.181945   24.457291 H          1 MOL1         0.0976
      17    C5      19.641108   17.451217   23.121002 C.3        1 MOL1        -0.1350
      18    H12     20.633584   17.762583   22.770350 H          1 MOL1         0.0976
      19    H13     19.020517   17.276032   22.231139 H          1 MOL1         0.0976
      20    C6      19.788118   16.132768   23.910153 C.3        1 MOL1        -0.2365
      21    H14     18.811176   15.762828   24.247707 H          1 MOL1         0.0987
      22    H15     20.425387   16.270617   24.793407 H          1 MOL1         0.0987
      23    H16     20.244008   15.354988   23.283851 H          1 MOL1         0.0987
@<TRIPOS>BOND
    1     1     2    1
    2     1     3    1
    3     1     4    1
    4     1     5    1
    5     5     6    1
    6     5     7    1
    7     5     8    1
    8     8     9    1
    9     8    10    1
   10     8    11    1
   11    11    12    1
   12    11    13    1
   13    11    14    1
   14    14    15    1
   15    14    16    1
   16    14    17    1
   17    17    18    1
   18    17    19    1
   19    17    20    1
   20    20    21    1
   21    20    22    1
   22    20    23    1
@<TRIPOS>SUBSTRUCTURE
       1 MOL1            1 RESIDUE      1      MOL     
@<SCITEGIC>MOL_PROPERTY
VConf Rank
SciTegic.value.IntegerValue
425

@<SCITEGIC>MOL_PROPERTY
Conf_Id
SciTegic.value.IntegerValue
93

@<SCITEGIC>MOL_PROPERTY
Delta U+W
SciTegic.value.DoubleValue
2.589

@<SCITEGIC>MOL_PROPERTY
U+W
SciTegic.value.DoubleValue
-5.793

@<SCITEGIC>MOL_PROPERTY
Grad RMS
SciTegic.value.DoubleValue
0.000000

@<SCITEGIC>MOL_PROPERTY
U
SciTegic.value.DoubleValue
50.122

@<SCITEGIC>MOL_PROPERTY
W
SciTegic.value.DoubleValue
-55.915

@<SCITEGIC>MOL_PROPERTY
W(PB)
SciTegic.value.DoubleValue
-58.031

@<SCITEGIC>MOL_PROPERTY
W(SA)
SciTegic.value.DoubleValue
2.115

@<SCITEGIC>MOL_PROPERTY
Valence
SciTegic.value.DoubleValue
4.132

@<SCITEGIC>MOL_PROPERTY
Coulomb
SciTegic.value.DoubleValue
45.536

@<SCITEGIC>MOL_PROPERTY
VdW
SciTegic.value.DoubleValue
0.454

@<SCITEGIC>MOL_PROPERTY
VdW6
SciTegic.value.DoubleValue
-6.262

@<SCITEGIC>MOL_PROPERTY
VdW12
SciTegic.value.DoubleValue
6.715

@<SCITEGIC>MOL_PROPERTY
Bond
SciTegic.value.DoubleValue
0.182

@<SCITEGIC>MOL_PROPERTY
Angle
SciTegic.value.DoubleValue
1.157

@<SCITEGIC>MOL_PROPERTY
Pdih
SciTegic.value.DoubleValue
2.794

@<SCITEGIC>MOL_PROPERTY
Idih
SciTegic.value.DoubleValue
0.000

@<SCITEGIC>MOL_PROPERTY
Tether
SciTegic.value.DoubleValue
0.000

@<TRIPOS>MOLECULE
guest-2_confgen4.mol2 : confsearch ligand conformer 426
          23          22           1
SMALL
USER_CHARGES
 
@<TRIPOS>ATOM
       1    N1      16.888361   18.103123   21.529154 N.4        1 MOL1        -0.5940
       2    H1      17.107796   18.533078   20.624862 H          1 MOL1         0.3649
       3    H2      16.036505   18.556801   21.876310 H          1 MOL1         0.3649
       4    H3      16.650142   17.122902   21.346820 H          1 MOL1         0.3649
       5    C1      18.035474   18.232705   22.510473 C.3        1 MOL1         0.0207
       6    H4      17.721896   17.780836   23.455398 H          1 MOL1         0.0950
       7    H5      18.207934   19.296575   22.683042 H          1 MOL1         0.0950
       8    C2      19.328691   17.553447   22.018555 C.3        1 MOL1        -0.1415
       9    H6      19.111881   16.490018   21.850832 H          1 MOL1         0.0976
      10    H7      19.630781   17.965218   21.046419 H          1 MOL1         0.0976
      11    C3      20.496943   17.664419   23.030651 C.3        1 MOL1        -0.1375
      12    H8      21.160471   16.801180   22.882172 H          1 MOL1         0.0976
      13    H9      20.115640   17.572512   24.057181 H          1 MOL1         0.0976
      14    C4      21.360437   18.945654   22.895408 C.3        1 MOL1        -0.1375
      15    H10     22.190457   18.875238   23.612031 H          1 MOL1         0.0976
      16    H11     21.821122   18.972903   21.898253 H          1 MOL1         0.0976
      17    C5      20.596178   20.266638   23.143217 C.3        1 MOL1        -0.1350
      18    H12     20.038012   20.204231   24.087798 H          1 MOL1         0.0976
      19    H13     19.864082   20.430997   22.342007 H          1 MOL1         0.0976
      20    C6      21.552860   21.476994   23.193010 C.3        1 MOL1        -0.2365
      21    H14     20.993257   22.406773   23.358493 H          1 MOL1         0.0987
      22    H15     22.107388   21.580562   22.251192 H          1 MOL1         0.0987
      23    H16     22.280386   21.372798   24.008525 H          1 MOL1         0.0987
@<TRIPOS>BOND
    1     1     2    1
    2     1     3    1
    3     1     4    1
    4     1     5    1
    5     5     6    1
    6     5     7    1
    7     5     8    1
    8     8     9    1
    9     8    10    1
   10     8    11    1
   11    11    12    1
   12    11    13    1
   13    11    14    1
   14    14    15    1
   15    14    16    1
   16    14    17    1
   17    17    18    1
   18    17    19    1
   19    17    20    1
   20    20    21    1
   21    20    22    1
   22    20    23    1
@<TRIPOS>SUBSTRUCTURE
       1 MOL1            1 RESIDUE      1      MOL     
@<SCITEGIC>MOL_PROPERTY
VConf Rank
SciTegic.value.IntegerValue
426

@<SCITEGIC>MOL_PROPERTY
Conf_Id
SciTegic.value.IntegerValue
70

@<SCITEGIC>MOL_PROPERTY
Delta U+W
SciTegic.value.DoubleValue
2.599

@<SCITEGIC>MOL_PROPERTY
U+W
SciTegic.value.DoubleValue
-5.783

@<SCITEGIC>MOL_PROPERTY
Grad RMS
SciTegic.value.DoubleValue
0.000000

@<SCITEGIC>MOL_PROPERTY
U
SciTegic.value.DoubleValue
50.122

@<SCITEGIC>MOL_PROPERTY
W
SciTegic.value.DoubleValue
-55.906

@<SCITEGIC>MOL_PROPERTY
W(PB)
SciTegic.value.DoubleValue
-58.010

@<SCITEGIC>MOL_PROPERTY
W(SA)
SciTegic.value.DoubleValue
2.105

@<SCITEGIC>MOL_PROPERTY
Valence
SciTegic.value.DoubleValue
4.132

@<SCITEGIC>MOL_PROPERTY
Coulomb
SciTegic.value.DoubleValue
45.536

@<SCITEGIC>MOL_PROPERTY
VdW
SciTegic.value.DoubleValue
0.454

@<SCITEGIC>MOL_PROPERTY
VdW6
SciTegic.value.DoubleValue
-6.262

@<SCITEGIC>MOL_PROPERTY
VdW12
SciTegic.value.DoubleValue
6.715

@<SCITEGIC>MOL_PROPERTY
Bond
SciTegic.value.DoubleValue
0.182

@<SCITEGIC>MOL_PROPERTY
Angle
SciTegic.value.DoubleValue
1.157

@<SCITEGIC>MOL_PROPERTY
Pdih
SciTegic.value.DoubleValue
2.794

@<SCITEGIC>MOL_PROPERTY
Idih
SciTegic.value.DoubleValue
0.000

@<SCITEGIC>MOL_PROPERTY
Tether
SciTegic.value.DoubleValue
0.000

@<TRIPOS>MOLECULE
guest-2_confgen4.mol2 : confsearch ligand conformer 427
          23          22           1
SMALL
USER_CHARGES
 
@<TRIPOS>ATOM
       1    N1      17.574442   19.168341   20.843377 N.4        1 MOL1        -0.5940
       2    H1      16.633059   18.831525   21.068897 H          1 MOL1         0.3649
       3    H2      17.586059   19.373953   19.838711 H          1 MOL1         0.3649
       4    H3      17.703529   20.058009   21.334593 H          1 MOL1         0.3649
       5    C1      18.639517   18.159167   21.224713 C.3        1 MOL1         0.0207
       6    H4      19.611371   18.562686   20.928709 H          1 MOL1         0.0950
       7    H5      18.458928   17.249412   20.645724 H          1 MOL1         0.0950
       8    C2      18.655013   17.815273   22.727803 C.3        1 MOL1        -0.1415
       9    H6      17.686539   17.379078   23.006205 H          1 MOL1         0.0976
      10    H7      19.398764   17.027580   22.903275 H          1 MOL1         0.0976
      11    C3      18.951400   19.028036   23.648870 C.3        1 MOL1        -0.1375
      12    H8      18.982143   18.681678   24.691125 H          1 MOL1         0.0976
      13    H9      18.113175   19.735757   23.596503 H          1 MOL1         0.0976
      14    C4      20.266243   19.785296   23.328640 C.3        1 MOL1        -0.1375
      15    H10     20.215170   20.220231   22.321608 H          1 MOL1         0.0976
      16    H11     20.353946   20.634377   24.020526 H          1 MOL1         0.0976
      17    C5      21.532138   18.904822   23.451795 C.3        1 MOL1        -0.1350
      18    H12     21.498580   18.088339   22.718196 H          1 MOL1         0.0976
      19    H13     21.564480   18.438682   24.446472 H          1 MOL1         0.0976
      20    C6      22.820202   19.725534   23.228847 C.3        1 MOL1        -0.2365
      21    H14     23.707713   19.085580   23.317145 H          1 MOL1         0.0987
      22    H15     22.909911   20.529556   23.970935 H          1 MOL1         0.0987
      23    H16     22.830491   20.179844   22.229497 H          1 MOL1         0.0987
@<TRIPOS>BOND
    1     1     2    1
    2     1     3    1
    3     1     4    1
    4     1     5    1
    5     5     6    1
    6     5     7    1
    7     5     8    1
    8     8     9    1
    9     8    10    1
   10     8    11    1
   11    11    12    1
   12    11    13    1
   13    11    14    1
   14    14    15    1
   15    14    16    1
   16    14    17    1
   17    17    18    1
   18    17    19    1
   19    17    20    1
   20    20    21    1
   21    20    22    1
   22    20    23    1
@<TRIPOS>SUBSTRUCTURE
       1 MOL1            1 RESIDUE      1      MOL     
@<SCITEGIC>MOL_PROPERTY
VConf Rank
SciTegic.value.IntegerValue
427

@<SCITEGIC>MOL_PROPERTY
Conf_Id
SciTegic.value.IntegerValue
72

@<SCITEGIC>MOL_PROPERTY
Delta U+W
SciTegic.value.DoubleValue
1.051

@<SCITEGIC>MOL_PROPERTY
U+W
SciTegic.value.DoubleValue
-7.331

@<SCITEGIC>MOL_PROPERTY
Grad RMS
SciTegic.value.DoubleValue
0.000000

@<SCITEGIC>MOL_PROPERTY
U
SciTegic.value.DoubleValue
48.590

@<SCITEGIC>MOL_PROPERTY
W
SciTegic.value.DoubleValue
-55.922

@<SCITEGIC>MOL_PROPERTY
W(PB)
SciTegic.value.DoubleValue
-58.012

@<SCITEGIC>MOL_PROPERTY
W(SA)
SciTegic.value.DoubleValue
2.090

@<SCITEGIC>MOL_PROPERTY
Valence
SciTegic.value.DoubleValue
2.601

@<SCITEGIC>MOL_PROPERTY
Coulomb
SciTegic.value.DoubleValue
45.520

@<SCITEGIC>MOL_PROPERTY
VdW
SciTegic.value.DoubleValue
0.469

@<SCITEGIC>MOL_PROPERTY
VdW6
SciTegic.value.DoubleValue
-6.867

@<SCITEGIC>MOL_PROPERTY
VdW12
SciTegic.value.DoubleValue
7.336

@<SCITEGIC>MOL_PROPERTY
Bond
SciTegic.value.DoubleValue
0.205

@<SCITEGIC>MOL_PROPERTY
Angle
SciTegic.value.DoubleValue
0.962

@<SCITEGIC>MOL_PROPERTY
Pdih
SciTegic.value.DoubleValue
1.434

@<SCITEGIC>MOL_PROPERTY
Idih
SciTegic.value.DoubleValue
0.000

@<SCITEGIC>MOL_PROPERTY
Tether
SciTegic.value.DoubleValue
0.000

@<TRIPOS>MOLECULE
guest-2_confgen4.mol2 : confsearch ligand conformer 428
          23          22           1
SMALL
USER_CHARGES
 
@<TRIPOS>ATOM
       1    N1      16.697187   18.276059   22.751543 N.4        1 MOL1        -0.5940
       2    H1      16.224654   17.366408   22.716840 H          1 MOL1         0.3649
       3    H2      16.078364   18.950626   22.290241 H          1 MOL1         0.3649
       4    H3      16.753939   18.545063   23.739004 H          1 MOL1         0.3649
       5    C1      18.063902   18.225532   22.099487 C.3        1 MOL1         0.0207
       6    H4      17.932000   17.906023   21.062247 H          1 MOL1         0.0950
       7    H5      18.656704   17.468867   22.620042 H          1 MOL1         0.0950
       8    C2      18.800637   19.577479   22.135217 C.3        1 MOL1        -0.1415
       9    H6      18.180081   20.337902   21.642878 H          1 MOL1         0.0976
      10    H7      18.922131   19.905509   23.175442 H          1 MOL1         0.0976
      11    C3      20.179553   19.525449   21.431694 C.3        1 MOL1        -0.1375
      12    H8      20.641051   20.521104   21.472201 H          1 MOL1         0.0976
      13    H9      20.025452   19.314184   20.364486 H          1 MOL1         0.0976
      14    C4      21.165262   18.472818   22.007111 C.3        1 MOL1        -0.1375
      15    H10     20.774743   17.464279   21.815675 H          1 MOL1         0.0976
      16    H11     22.109147   18.534232   21.448113 H          1 MOL1         0.0976
      17    C5      21.470661   18.613245   23.520132 C.3        1 MOL1        -0.1350
      18    H12     22.163924   17.812482   23.813142 H          1 MOL1         0.0976
      19    H13     20.557822   18.450427   24.108632 H          1 MOL1         0.0976
      20    C6      22.097319   19.975320   23.895055 C.3        1 MOL1        -0.2365
      21    H14     23.005895   20.165958   23.309318 H          1 MOL1         0.0987
      22    H15     22.372794   19.992624   24.957437 H          1 MOL1         0.0987
      23    H16     21.396943   20.801753   23.721736 H          1 MOL1         0.0987
@<TRIPOS>BOND
    1     1     2    1
    2     1     3    1
    3     1     4    1
    4     1     5    1
    5     5     6    1
    6     5     7    1
    7     5     8    1
    8     8     9    1
    9     8    10    1
   10     8    11    1
   11    11    12    1
   12    11    13    1
   13    11    14    1
   14    14    15    1
   15    14    16    1
   16    14    17    1
   17    17    18    1
   18    17    19    1
   19    17    20    1
   20    20    21    1
   21    20    22    1
   22    20    23    1
@<TRIPOS>SUBSTRUCTURE
       1 MOL1            1 RESIDUE      1      MOL     
@<SCITEGIC>MOL_PROPERTY
VConf Rank
SciTegic.value.IntegerValue
428

@<SCITEGIC>MOL_PROPERTY
Conf_Id
SciTegic.value.IntegerValue
26

@<SCITEGIC>MOL_PROPERTY
Delta U+W
SciTegic.value.DoubleValue
1.076

@<SCITEGIC>MOL_PROPERTY
U+W
SciTegic.value.DoubleValue
-7.306

@<SCITEGIC>MOL_PROPERTY
Grad RMS
SciTegic.value.DoubleValue
0.000000

@<SCITEGIC>MOL_PROPERTY
U
SciTegic.value.DoubleValue
48.641

@<SCITEGIC>MOL_PROPERTY
W
SciTegic.value.DoubleValue
-55.947

@<SCITEGIC>MOL_PROPERTY
W(PB)
SciTegic.value.DoubleValue
-58.031

@<SCITEGIC>MOL_PROPERTY
W(SA)
SciTegic.value.DoubleValue
2.084

@<SCITEGIC>MOL_PROPERTY
Valence
SciTegic.value.DoubleValue
2.922

@<SCITEGIC>MOL_PROPERTY
Coulomb
SciTegic.value.DoubleValue
45.269

@<SCITEGIC>MOL_PROPERTY
VdW
SciTegic.value.DoubleValue
0.449

@<SCITEGIC>MOL_PROPERTY
VdW6
SciTegic.value.DoubleValue
-7.045

@<SCITEGIC>MOL_PROPERTY
VdW12
SciTegic.value.DoubleValue
7.494

@<SCITEGIC>MOL_PROPERTY
Bond
SciTegic.value.DoubleValue
0.220

@<SCITEGIC>MOL_PROPERTY
Angle
SciTegic.value.DoubleValue
1.205

@<SCITEGIC>MOL_PROPERTY
Pdih
SciTegic.value.DoubleValue
1.497

@<SCITEGIC>MOL_PROPERTY
Idih
SciTegic.value.DoubleValue
0.000

@<SCITEGIC>MOL_PROPERTY
Tether
SciTegic.value.DoubleValue
0.000

@<TRIPOS>MOLECULE
guest-2_confgen4.mol2 : confsearch ligand conformer 429
          23          22           1
SMALL
USER_CHARGES
 
@<TRIPOS>ATOM
       1    N1      21.755201   21.445083   22.422105 N.4        1 MOL1        -0.5940
       2    H1      21.733546   22.080514   23.226183 H          1 MOL1         0.3649
       3    H2      22.030964   22.004503   21.607880 H          1 MOL1         0.3649
       4    H3      22.509277   20.771463   22.590238 H          1 MOL1         0.3649
       5    C1      20.421244   20.759249   22.208041 C.3        1 MOL1         0.0207
       6    H4      20.508119   20.124621   21.322245 H          1 MOL1         0.0950
       7    H5      19.672961   21.530593   22.006921 H          1 MOL1         0.0950
       8    C2      19.978259   19.909887   23.413929 C.3        1 MOL1        -0.1415
       9    H6      20.734932   19.143483   23.624887 H          1 MOL1         0.0976
      10    H7      19.930379   20.549160   24.305425 H          1 MOL1         0.0976
      11    C3      18.595742   19.244815   23.200880 C.3        1 MOL1        -0.1375
      12    H8      17.833655   20.031396   23.112410 H          1 MOL1         0.0976
      13    H9      18.329031   18.674836   24.100847 H          1 MOL1         0.0976
      14    C4      18.501505   18.322338   21.955523 C.3        1 MOL1        -0.1375
      15    H10     17.490336   17.894791   21.911837 H          1 MOL1         0.0976
      16    H11     18.605026   18.927279   21.044683 H          1 MOL1         0.0976
      17    C5      19.534490   17.167722   21.910506 C.3        1 MOL1        -0.1350
      18    H12     20.553606   17.572035   21.846839 H          1 MOL1         0.0976
      19    H13     19.379856   16.595515   20.985109 H          1 MOL1         0.0976
      20    C6      19.429545   16.204189   23.114295 C.3        1 MOL1        -0.2365
      21    H14     19.684150   16.707042   24.055504 H          1 MOL1         0.0987
      22    H15     20.120705   15.360157   22.992842 H          1 MOL1         0.0987
      23    H16     18.414443   15.796593   23.205809 H          1 MOL1         0.0987
@<TRIPOS>BOND
    1     1     2    1
    2     1     3    1
    3     1     4    1
    4     1     5    1
    5     5     6    1
    6     5     7    1
    7     5     8    1
    8     8     9    1
    9     8    10    1
   10     8    11    1
   11    11    12    1
   12    11    13    1
   13    11    14    1
   14    14    15    1
   15    14    16    1
   16    14    17    1
   17    17    18    1
   18    17    19    1
   19    17    20    1
   20    20    21    1
   21    20    22    1
   22    20    23    1
@<TRIPOS>SUBSTRUCTURE
       1 MOL1            1 RESIDUE      1      MOL     
@<SCITEGIC>MOL_PROPERTY
VConf Rank
SciTegic.value.IntegerValue
429

@<SCITEGIC>MOL_PROPERTY
Conf_Id
SciTegic.value.IntegerValue
90

@<SCITEGIC>MOL_PROPERTY
Delta U+W
SciTegic.value.DoubleValue
1.131

@<SCITEGIC>MOL_PROPERTY
U+W
SciTegic.value.DoubleValue
-7.251

@<SCITEGIC>MOL_PROPERTY
Grad RMS
SciTegic.value.DoubleValue
0.000000

@<SCITEGIC>MOL_PROPERTY
U
SciTegic.value.DoubleValue
48.641

@<SCITEGIC>MOL_PROPERTY
W
SciTegic.value.DoubleValue
-55.892

@<SCITEGIC>MOL_PROPERTY
W(PB)
SciTegic.value.DoubleValue
-57.962

@<SCITEGIC>MOL_PROPERTY
W(SA)
SciTegic.value.DoubleValue
2.070

@<SCITEGIC>MOL_PROPERTY
Valence
SciTegic.value.DoubleValue
2.922

@<SCITEGIC>MOL_PROPERTY
Coulomb
SciTegic.value.DoubleValue
45.269

@<SCITEGIC>MOL_PROPERTY
VdW
SciTegic.value.DoubleValue
0.450

@<SCITEGIC>MOL_PROPERTY
VdW6
SciTegic.value.DoubleValue
-7.045

@<SCITEGIC>MOL_PROPERTY
VdW12
SciTegic.value.DoubleValue
7.495

@<SCITEGIC>MOL_PROPERTY
Bond
SciTegic.value.DoubleValue
0.220

@<SCITEGIC>MOL_PROPERTY
Angle
SciTegic.value.DoubleValue
1.205

@<SCITEGIC>MOL_PROPERTY
Pdih
SciTegic.value.DoubleValue
1.497

@<SCITEGIC>MOL_PROPERTY
Idih
SciTegic.value.DoubleValue
0.000

@<SCITEGIC>MOL_PROPERTY
Tether
SciTegic.value.DoubleValue
0.000

@<TRIPOS>MOLECULE
guest-2_confgen4.mol2 : confsearch ligand conformer 430
          23          22           1
SMALL
USER_CHARGES
 
@<TRIPOS>ATOM
       1    N1      18.329053   19.914909   24.555438 N.4        1 MOL1        -0.5940
       2    H1      17.366327   20.250625   24.666372 H          1 MOL1         0.3649
       3    H2      18.746451   20.445956   23.785119 H          1 MOL1         0.3649
       4    H3      18.835061   20.169990   25.409523 H          1 MOL1         0.3649
       5    C1      18.378705   18.421978   24.296427 C.3        1 MOL1         0.0207
       6    H4      17.797570   18.215042   23.394109 H          1 MOL1         0.0950
       7    H5      17.889468   17.921778   25.136645 H          1 MOL1         0.0950
       8    C2      19.809110   17.868430   24.133901 C.3        1 MOL1        -0.1415
       9    H6      20.368814   18.039697   25.062981 H          1 MOL1         0.0976
      10    H7      19.752768   16.779084   24.007429 H          1 MOL1         0.0976
      11    C3      20.590228   18.481362   22.944468 C.3        1 MOL1        -0.1375
      12    H8      21.595489   18.038648   22.920660 H          1 MOL1         0.0976
      13    H9      20.733230   19.555824   23.115306 H          1 MOL1         0.0976
      14    C4      19.898570   18.244791   21.578043 C.3        1 MOL1        -0.1375
      15    H10     19.687546   17.172513   21.464225 H          1 MOL1         0.0976
      16    H11     18.927035   18.756006   21.551394 H          1 MOL1         0.0976
      17    C5      20.749186   18.709169   20.371313 C.3        1 MOL1        -0.1350
      18    H12     20.239285   18.410718   19.444618 H          1 MOL1         0.0976
      19    H13     21.714957   18.184703   20.372896 H          1 MOL1         0.0976
      20    C6      20.986589   20.236184   20.339640 C.3        1 MOL1        -0.2365
      21    H14     20.035920   20.784425   20.364059 H          1 MOL1         0.0987
      22    H15     21.515588   20.523373   19.421697 H          1 MOL1         0.0987
      23    H16     21.597296   20.567199   21.188684 H          1 MOL1         0.0987
@<TRIPOS>BOND
    1     1     2    1
    2     1     3    1
    3     1     4    1
    4     1     5    1
    5     5     6    1
    6     5     7    1
    7     5     8    1
    8     8     9    1
    9     8    10    1
   10     8    11    1
   11    11    12    1
   12    11    13    1
   13    11    14    1
   14    14    15    1
   15    14    16    1
   16    14    17    1
   17    17    18    1
   18    17    19    1
   19    17    20    1
   20    20    21    1
   21    20    22    1
   22    20    23    1
@<TRIPOS>SUBSTRUCTURE
       1 MOL1            1 RESIDUE      1      MOL     
@<SCITEGIC>MOL_PROPERTY
VConf Rank
SciTegic.value.IntegerValue
430

@<SCITEGIC>MOL_PROPERTY
Conf_Id
SciTegic.value.IntegerValue
85

@<SCITEGIC>MOL_PROPERTY
Delta U+W
SciTegic.value.DoubleValue
1.193

@<SCITEGIC>MOL_PROPERTY
U+W
SciTegic.value.DoubleValue
-7.189

@<SCITEGIC>MOL_PROPERTY
Grad RMS
SciTegic.value.DoubleValue
0.000000

@<SCITEGIC>MOL_PROPERTY
U
SciTegic.value.DoubleValue
48.775

@<SCITEGIC>MOL_PROPERTY
W
SciTegic.value.DoubleValue
-55.965

@<SCITEGIC>MOL_PROPERTY
W(PB)
SciTegic.value.DoubleValue
-58.038

@<SCITEGIC>MOL_PROPERTY
W(SA)
SciTegic.value.DoubleValue
2.073

@<SCITEGIC>MOL_PROPERTY
Valence
SciTegic.value.DoubleValue
2.602

@<SCITEGIC>MOL_PROPERTY
Coulomb
SciTegic.value.DoubleValue
45.581

@<SCITEGIC>MOL_PROPERTY
VdW
SciTegic.value.DoubleValue
0.592

@<SCITEGIC>MOL_PROPERTY
VdW6
SciTegic.value.DoubleValue
-6.616

@<SCITEGIC>MOL_PROPERTY
VdW12
SciTegic.value.DoubleValue
7.208

@<SCITEGIC>MOL_PROPERTY
Bond
SciTegic.value.DoubleValue
0.196

@<SCITEGIC>MOL_PROPERTY
Angle
SciTegic.value.DoubleValue
0.832

@<SCITEGIC>MOL_PROPERTY
Pdih
SciTegic.value.DoubleValue
1.574

@<SCITEGIC>MOL_PROPERTY
Idih
SciTegic.value.DoubleValue
0.000

@<SCITEGIC>MOL_PROPERTY
Tether
SciTegic.value.DoubleValue
0.000

@<TRIPOS>MOLECULE
guest-2_confgen4.mol2 : confsearch ligand conformer 431
          23          22           1
SMALL
USER_CHARGES
 
@<TRIPOS>ATOM
       1    N1      21.459073   17.897877   23.025673 N.4        1 MOL1        -0.5940
       2    H1      20.582617   18.119060   23.508967 H          1 MOL1         0.3649
       3    H2      22.227429   18.098899   23.674921 H          1 MOL1         0.3649
       4    H3      21.468282   16.886863   22.856024 H          1 MOL1         0.3649
       5    C1      21.591675   18.684204   21.735801 C.3        1 MOL1         0.0207
       6    H4      22.543130   18.394463   21.281606 H          1 MOL1         0.0950
       7    H5      21.641958   19.749023   21.978208 H          1 MOL1         0.0950
       8    C2      20.453838   18.429638   20.726226 C.3        1 MOL1        -0.1415
       9    H6      20.825806   18.700127   19.729073 H          1 MOL1         0.0976
      10    H7      20.231866   17.355158   20.680473 H          1 MOL1         0.0976
      11    C3      19.150756   19.234411   20.980051 C.3        1 MOL1        -0.1375
      12    H8      18.455295   18.999515   20.162332 H          1 MOL1         0.0976
      13    H9      19.352121   20.311183   20.893536 H          1 MOL1         0.0976
      14    C4      18.434538   18.931037   22.321042 C.3        1 MOL1        -0.1375
      15    H10     17.349182   18.980508   22.155833 H          1 MOL1         0.0976
      16    H11     18.638540   17.898732   22.634817 H          1 MOL1         0.0976
      17    C5      18.790376   19.936638   23.443203 C.3        1 MOL1        -0.1350
      18    H12     18.420392   20.933930   23.166336 H          1 MOL1         0.0976
      19    H13     19.876582   20.037779   23.553685 H          1 MOL1         0.0976
      20    C6      18.172320   19.524414   24.795942 C.3        1 MOL1        -0.2365
      21    H14     17.078027   19.467517   24.727716 H          1 MOL1         0.0987
      22    H15     18.422437   20.256108   25.575202 H          1 MOL1         0.0987
      23    H16     18.544566   18.544752   25.122224 H          1 MOL1         0.0987
@<TRIPOS>BOND
    1     1     2    1
    2     1     3    1
    3     1     4    1
    4     1     5    1
    5     5     6    1
    6     5     7    1
    7     5     8    1
    8     8     9    1
    9     8    10    1
   10     8    11    1
   11    11    12    1
   12    11    13    1
   13    11    14    1
   14    14    15    1
   15    14    16    1
   16    14    17    1
   17    17    18    1
   18    17    19    1
   19    17    20    1
   20    20    21    1
   21    20    22    1
   22    20    23    1
@<TRIPOS>SUBSTRUCTURE
       1 MOL1            1 RESIDUE      1      MOL     
@<SCITEGIC>MOL_PROPERTY
VConf Rank
SciTegic.value.IntegerValue
431

@<SCITEGIC>MOL_PROPERTY
Conf_Id
SciTegic.value.IntegerValue
82

@<SCITEGIC>MOL_PROPERTY
Delta U+W
SciTegic.value.DoubleValue
5.994

@<SCITEGIC>MOL_PROPERTY
U+W
SciTegic.value.DoubleValue
-2.388

@<SCITEGIC>MOL_PROPERTY
Grad RMS
SciTegic.value.DoubleValue
0.000000

@<SCITEGIC>MOL_PROPERTY
U
SciTegic.value.DoubleValue
52.836

@<SCITEGIC>MOL_PROPERTY
W
SciTegic.value.DoubleValue
-55.224

@<SCITEGIC>MOL_PROPERTY
W(PB)
SciTegic.value.DoubleValue
-57.261

@<SCITEGIC>MOL_PROPERTY
W(SA)
SciTegic.value.DoubleValue
2.037

@<SCITEGIC>MOL_PROPERTY
Valence
SciTegic.value.DoubleValue
5.785

@<SCITEGIC>MOL_PROPERTY
Coulomb
SciTegic.value.DoubleValue
46.744

@<SCITEGIC>MOL_PROPERTY
VdW
SciTegic.value.DoubleValue
0.307

@<SCITEGIC>MOL_PROPERTY
VdW6
SciTegic.value.DoubleValue
-7.672

@<SCITEGIC>MOL_PROPERTY
VdW12
SciTegic.value.DoubleValue
7.979

@<SCITEGIC>MOL_PROPERTY
Bond
SciTegic.value.DoubleValue
0.217

@<SCITEGIC>MOL_PROPERTY
Angle
SciTegic.value.DoubleValue
1.470

@<SCITEGIC>MOL_PROPERTY
Pdih
SciTegic.value.DoubleValue
4.098

@<SCITEGIC>MOL_PROPERTY
Idih
SciTegic.value.DoubleValue
0.000

@<SCITEGIC>MOL_PROPERTY
Tether
SciTegic.value.DoubleValue
0.000

@<TRIPOS>MOLECULE
guest-2_confgen4.mol2 : confsearch ligand conformer 432
          23          22           1
SMALL
USER_CHARGES
 
@<TRIPOS>ATOM
       1    N1      21.226898   17.742977   23.498538 N.4        1 MOL1        -0.5940
       2    H1      22.062689   18.178357   23.902163 H          1 MOL1         0.3649
       3    H2      21.135090   16.816461   23.929166 H          1 MOL1         0.3649
       4    H3      20.418802   18.300337   23.793503 H          1 MOL1         0.3649
       5    C1      21.314642   17.655133   21.987167 C.3        1 MOL1         0.0207
       6    H4      20.432696   17.127034   21.615131 H          1 MOL1         0.0950
       7    H5      22.195483   17.051133   21.753046 H          1 MOL1         0.0950
       8    C2      21.441294   19.022838   21.285698 C.3        1 MOL1        -0.1415
       9    H6      22.156226   19.654170   21.829910 H          1 MOL1         0.0976
      10    H7      21.887490   18.850791   20.297191 H          1 MOL1         0.0976
      11    C3      20.105697   19.785989   21.076188 C.3        1 MOL1        -0.1375
      12    H8      19.441781   19.206694   20.419604 H          1 MOL1         0.0976
      13    H9      20.336811   20.706015   20.521532 H          1 MOL1         0.0976
      14    C4      19.358360   20.183652   22.374886 C.3        1 MOL1        -0.1375
      15    H10     20.074034   20.328689   23.194947 H          1 MOL1         0.0976
      16    H11     18.885209   21.163239   22.219079 H          1 MOL1         0.0976
      17    C5      18.249684   19.178624   22.772198 C.3        1 MOL1        -0.1350
      18    H12     18.637103   18.153248   22.800394 H          1 MOL1         0.0976
      19    H13     17.463854   19.183973   22.003708 H          1 MOL1         0.0976
      20    C6      17.624375   19.529578   24.138817 C.3        1 MOL1        -0.2365
      21    H14     18.374817   19.502172   24.939349 H          1 MOL1         0.0987
      22    H15     16.831012   18.815924   24.396604 H          1 MOL1         0.0987
      23    H16     17.180395   20.533560   24.122366 H          1 MOL1         0.0987
@<TRIPOS>BOND
    1     1     2    1
    2     1     3    1
    3     1     4    1
    4     1     5    1
    5     5     6    1
    6     5     7    1
    7     5     8    1
    8     8     9    1
    9     8    10    1
   10     8    11    1
   11    11    12    1
   12    11    13    1
   13    11    14    1
   14    14    15    1
   15    14    16    1
   16    14    17    1
   17    17    18    1
   18    17    19    1
   19    17    20    1
   20    20    21    1
   21    20    22    1
   22    20    23    1
@<TRIPOS>SUBSTRUCTURE
       1 MOL1            1 RESIDUE      1      MOL     
@<SCITEGIC>MOL_PROPERTY
VConf Rank
SciTegic.value.IntegerValue
432

@<SCITEGIC>MOL_PROPERTY
Conf_Id
SciTegic.value.IntegerValue
5

@<SCITEGIC>MOL_PROPERTY
Delta U+W
SciTegic.value.DoubleValue
6.087

@<SCITEGIC>MOL_PROPERTY
U+W
SciTegic.value.DoubleValue
-2.295

@<SCITEGIC>MOL_PROPERTY
Grad RMS
SciTegic.value.DoubleValue
0.000000

@<SCITEGIC>MOL_PROPERTY
U
SciTegic.value.DoubleValue
52.836

@<SCITEGIC>MOL_PROPERTY
W
SciTegic.value.DoubleValue
-55.131

@<SCITEGIC>MOL_PROPERTY
W(PB)
SciTegic.value.DoubleValue
-57.202

@<SCITEGIC>MOL_PROPERTY
W(SA)
SciTegic.value.DoubleValue
2.071

@<SCITEGIC>MOL_PROPERTY
Valence
SciTegic.value.DoubleValue
5.785

@<SCITEGIC>MOL_PROPERTY
Coulomb
SciTegic.value.DoubleValue
46.744

@<SCITEGIC>MOL_PROPERTY
VdW
SciTegic.value.DoubleValue
0.307

@<SCITEGIC>MOL_PROPERTY
VdW6
SciTegic.value.DoubleValue
-7.672

@<SCITEGIC>MOL_PROPERTY
VdW12
SciTegic.value.DoubleValue
7.980

@<SCITEGIC>MOL_PROPERTY
Bond
SciTegic.value.DoubleValue
0.217

@<SCITEGIC>MOL_PROPERTY
Angle
SciTegic.value.DoubleValue
1.470

@<SCITEGIC>MOL_PROPERTY
Pdih
SciTegic.value.DoubleValue
4.098

@<SCITEGIC>MOL_PROPERTY
Idih
SciTegic.value.DoubleValue
0.000

@<SCITEGIC>MOL_PROPERTY
Tether
SciTegic.value.DoubleValue
0.000

@<TRIPOS>MOLECULE
guest-2_confgen4.mol2 : confsearch ligand conformer 433
          23          22           1
SMALL
USER_CHARGES
 
@<TRIPOS>ATOM
       1    N1      21.551467   19.063171   19.198181 N.4        1 MOL1        -0.5940
       2    H1      22.030244   19.959481   19.333403 H          1 MOL1         0.3649
       3    H2      21.334800   18.989077   18.198352 H          1 MOL1         0.3649
       4    H3      22.229089   18.324114   19.411504 H          1 MOL1         0.3649
       5    C1      20.305767   18.952568   20.053692 C.3        1 MOL1         0.0207
       6    H4      19.832494   17.990816   19.837953 H          1 MOL1         0.0950
       7    H5      19.618747   19.748596   19.753962 H          1 MOL1         0.0950
       8    C2      20.597077   19.060020   21.561064 C.3        1 MOL1        -0.1415
       9    H6      21.299946   18.268756   21.854282 H          1 MOL1         0.0976
      10    H7      21.087054   20.020297   21.770562 H          1 MOL1         0.0976
      11    C3      19.303272   18.942720   22.396822 C.3        1 MOL1        -0.1375
      12    H8      18.813324   17.983073   22.180418 H          1 MOL1         0.0976
      13    H9      18.600695   19.732773   22.096815 H          1 MOL1         0.0976
      14    C4      19.584260   19.049310   23.912964 C.3        1 MOL1        -0.1375
      15    H10     20.286635   18.259318   24.213124 H          1 MOL1         0.0976
      16    H11     20.074139   20.008809   24.129515 H          1 MOL1         0.0976
      17    C5      18.290093   18.932052   24.748513 C.3        1 MOL1        -0.1350
      18    H12     17.797467   17.972553   24.537198 H          1 MOL1         0.0976
      19    H13     17.585002   19.721893   24.453606 H          1 MOL1         0.0976
      20    C6      18.574631   19.038925   26.261829 C.3        1 MOL1        -0.2365
      21    H14     17.644284   18.953459   26.838194 H          1 MOL1         0.0987
      22    H15     19.036847   20.003419   26.509493 H          1 MOL1         0.0987
      23    H16     19.250996   18.240428   26.593734 H          1 MOL1         0.0987
@<TRIPOS>BOND
    1     1     2    1
    2     1     3    1
    3     1     4    1
    4     1     5    1
    5     5     6    1
    6     5     7    1
    7     5     8    1
    8     8     9    1
    9     8    10    1
   10     8    11    1
   11    11    12    1
   12    11    13    1
   13    11    14    1
   14    14    15    1
   15    14    16    1
   16    14    17    1
   17    17    18    1
   18    17    19    1
   19    17    20    1
   20    20    21    1
   21    20    22    1
   22    20    23    1
@<TRIPOS>SUBSTRUCTURE
       1 MOL1            1 RESIDUE      1      MOL     
@<SCITEGIC>MOL_PROPERTY
VConf Rank
SciTegic.value.IntegerValue
433

@<SCITEGIC>MOL_PROPERTY
Conf_Id
SciTegic.value.IntegerValue
40

@<SCITEGIC>MOL_PROPERTY
Delta U+W
SciTegic.value.DoubleValue
0.000

@<SCITEGIC>MOL_PROPERTY
U+W
SciTegic.value.DoubleValue
-8.382

@<SCITEGIC>MOL_PROPERTY
Grad RMS
SciTegic.value.DoubleValue
0.000000

@<SCITEGIC>MOL_PROPERTY
U
SciTegic.value.DoubleValue
46.604

@<SCITEGIC>MOL_PROPERTY
W
SciTegic.value.DoubleValue
-54.986

@<SCITEGIC>MOL_PROPERTY
W(PB)
SciTegic.value.DoubleValue
-57.162

@<SCITEGIC>MOL_PROPERTY
W(SA)
SciTegic.value.DoubleValue
2.176

@<SCITEGIC>MOL_PROPERTY
Valence
SciTegic.value.DoubleValue
1.727

@<SCITEGIC>MOL_PROPERTY
Coulomb
SciTegic.value.DoubleValue
44.434

@<SCITEGIC>MOL_PROPERTY
VdW
SciTegic.value.DoubleValue
0.443

@<SCITEGIC>MOL_PROPERTY
VdW6
SciTegic.value.DoubleValue
-4.623

@<SCITEGIC>MOL_PROPERTY
VdW12
SciTegic.value.DoubleValue
5.066

@<SCITEGIC>MOL_PROPERTY
Bond
SciTegic.value.DoubleValue
0.112

@<SCITEGIC>MOL_PROPERTY
Angle
SciTegic.value.DoubleValue
0.386

@<SCITEGIC>MOL_PROPERTY
Pdih
SciTegic.value.DoubleValue
1.228

@<SCITEGIC>MOL_PROPERTY
Idih
SciTegic.value.DoubleValue
0.000

@<SCITEGIC>MOL_PROPERTY
Tether
SciTegic.value.DoubleValue
0.000

@<TRIPOS>MOLECULE
guest-2_confgen4.mol2 : confsearch ligand conformer 434
          23          22           1
SMALL
USER_CHARGES
 
@<TRIPOS>ATOM
       1    N1      18.060419   15.995184   21.760179 N.4        1 MOL1        -0.5940
       2    H1      18.389532   15.643172   20.855407 H          1 MOL1         0.3649
       3    H2      17.136922   16.411738   21.603753 H          1 MOL1         0.3649
       4    H3      17.920478   15.178332   22.364495 H          1 MOL1         0.3649
       5    C1      19.031945   16.985937   22.368726 C.3        1 MOL1         0.0207
       6    H4      19.981371   16.469526   22.534019 H          1 MOL1         0.0950
       7    H5      18.633360   17.292627   23.339081 H          1 MOL1         0.0950
       8    C2      19.263586   18.225193   21.483447 C.3        1 MOL1        -0.1415
       9    H6      19.618307   17.898295   20.496909 H          1 MOL1         0.0976
      10    H7      18.310456   18.744982   21.318080 H          1 MOL1         0.0976
      11    C3      20.294789   19.208923   22.085542 C.3        1 MOL1        -0.1375
      12    H8      20.486795   19.998876   21.347931 H          1 MOL1         0.0976
      13    H9      21.250059   18.688619   22.240829 H          1 MOL1         0.0976
      14    C4      19.822469   19.845218   23.417689 C.3        1 MOL1        -0.1375
      15    H10     18.877827   20.382880   23.257087 H          1 MOL1         0.0976
      16    H11     19.606981   19.053311   24.147041 H          1 MOL1         0.0976
      17    C5      20.862394   20.805695   24.044239 C.3        1 MOL1        -0.1350
      18    H12     21.806497   20.270295   24.216911 H          1 MOL1         0.0976
      19    H13     20.501231   21.117843   25.034188 H          1 MOL1         0.0976
      20    C6      21.128207   22.067951   23.192509 C.3        1 MOL1        -0.2365
      21    H14     21.608771   21.817996   22.238655 H          1 MOL1         0.0987
      22    H15     21.795217   22.757421   23.726060 H          1 MOL1         0.0987
      23    H16     20.194386   22.603660   22.978021 H          1 MOL1         0.0987
@<TRIPOS>BOND
    1     1     2    1
    2     1     3    1
    3     1     4    1
    4     1     5    1
    5     5     6    1
    6     5     7    1
    7     5     8    1
    8     8     9    1
    9     8    10    1
   10     8    11    1
   11    11    12    1
   12    11    13    1
   13    11    14    1
   14    14    15    1
   15    14    16    1
   16    14    17    1
   17    17    18    1
   18    17    19    1
   19    17    20    1
   20    20    21    1
   21    20    22    1
   22    20    23    1
@<TRIPOS>SUBSTRUCTURE
       1 MOL1            1 RESIDUE      1      MOL     
@<SCITEGIC>MOL_PROPERTY
VConf Rank
SciTegic.value.IntegerValue
434

@<SCITEGIC>MOL_PROPERTY
Conf_Id
SciTegic.value.IntegerValue
65

@<SCITEGIC>MOL_PROPERTY
Delta U+W
SciTegic.value.DoubleValue
1.004

@<SCITEGIC>MOL_PROPERTY
U+W
SciTegic.value.DoubleValue
-7.378

@<SCITEGIC>MOL_PROPERTY
Grad RMS
SciTegic.value.DoubleValue
0.000000

@<SCITEGIC>MOL_PROPERTY
U
SciTegic.value.DoubleValue
48.047

@<SCITEGIC>MOL_PROPERTY
W
SciTegic.value.DoubleValue
-55.425

@<SCITEGIC>MOL_PROPERTY
W(PB)
SciTegic.value.DoubleValue
-57.542

@<SCITEGIC>MOL_PROPERTY
W(SA)
SciTegic.value.DoubleValue
2.116

@<SCITEGIC>MOL_PROPERTY
Valence
SciTegic.value.DoubleValue
2.583

@<SCITEGIC>MOL_PROPERTY
Coulomb
SciTegic.value.DoubleValue
44.791

@<SCITEGIC>MOL_PROPERTY
VdW
SciTegic.value.DoubleValue
0.673

@<SCITEGIC>MOL_PROPERTY
VdW6
SciTegic.value.DoubleValue
-5.788

@<SCITEGIC>MOL_PROPERTY
VdW12
SciTegic.value.DoubleValue
6.462

@<SCITEGIC>MOL_PROPERTY
Bond
SciTegic.value.DoubleValue
0.177

@<SCITEGIC>MOL_PROPERTY
Angle
SciTegic.value.DoubleValue
0.787

@<SCITEGIC>MOL_PROPERTY
Pdih
SciTegic.value.DoubleValue
1.619

@<SCITEGIC>MOL_PROPERTY
Idih
SciTegic.value.DoubleValue
0.000

@<SCITEGIC>MOL_PROPERTY
Tether
SciTegic.value.DoubleValue
0.000

@<TRIPOS>MOLECULE
guest-2_confgen4.mol2 : confsearch ligand conformer 435
          23          22           1
SMALL
USER_CHARGES
 
@<TRIPOS>ATOM
       1    N1      23.148304   20.106138   22.202421 N.4        1 MOL1        -0.5940
       2    H1      23.258033   21.066670   22.543266 H          1 MOL1         0.3649
       3    H2      23.721906   20.023065   21.356189 H          1 MOL1         0.3649
       4    H3      23.563969   19.487251   22.906009 H          1 MOL1         0.3649
       5    C1      21.696856   19.763539   21.934653 C.3        1 MOL1         0.0207
       6    H4      21.660033   18.742306   21.547037 H          1 MOL1         0.0950
       7    H5      21.328029   20.439896   21.158820 H          1 MOL1         0.0950
       8    C2      20.808541   19.879310   23.187900 C.3        1 MOL1        -0.1415
       9    H6      21.177838   19.199280   23.967108 H          1 MOL1         0.0976
      10    H7      20.893005   20.896513   23.593005 H          1 MOL1         0.0976
      11    C3      19.318993   19.577985   22.897963 C.3        1 MOL1        -0.1375
      12    H8      18.949704   20.266296   22.125160 H          1 MOL1         0.0976
      13    H9      18.742238   19.792161   23.807053 H          1 MOL1         0.0976
      14    C4      19.069453   18.113100   22.457038 C.3        1 MOL1        -0.1375
      15    H10     19.665715   17.892176   21.561956 H          1 MOL1         0.0976
      16    H11     19.420028   17.425840   23.239336 H          1 MOL1         0.0976
      17    C5      17.586025   17.811716   22.132803 C.3        1 MOL1        -0.1350
      18    H12     17.515755   16.795868   21.719297 H          1 MOL1         0.0976
      19    H13     17.232808   18.489506   21.343096 H          1 MOL1         0.0976
      20    C6      16.653121   17.912909   23.361150 C.3        1 MOL1        -0.2365
      21    H14     16.589795   18.941550   23.736842 H          1 MOL1         0.0987
      22    H15     17.003939   17.268695   24.177805 H          1 MOL1         0.0987
      23    H16     15.635802   17.595881   23.097520 H          1 MOL1         0.0987
@<TRIPOS>BOND
    1     1     2    1
    2     1     3    1
    3     1     4    1
    4     1     5    1
    5     5     6    1
    6     5     7    1
    7     5     8    1
    8     8     9    1
    9     8    10    1
   10     8    11    1
   11    11    12    1
   12    11    13    1
   13    11    14    1
   14    14    15    1
   15    14    16    1
   16    14    17    1
   17    17    18    1
   18    17    19    1
   19    17    20    1
   20    20    21    1
   21    20    22    1
   22    20    23    1
@<TRIPOS>SUBSTRUCTURE
       1 MOL1            1 RESIDUE      1      MOL     
@<SCITEGIC>MOL_PROPERTY
VConf Rank
SciTegic.value.IntegerValue
435

@<SCITEGIC>MOL_PROPERTY
Conf_Id
SciTegic.value.IntegerValue
92

@<SCITEGIC>MOL_PROPERTY
Delta U+W
SciTegic.value.DoubleValue
0.973

@<SCITEGIC>MOL_PROPERTY
U+W
SciTegic.value.DoubleValue
-7.409

@<SCITEGIC>MOL_PROPERTY
Grad RMS
SciTegic.value.DoubleValue
0.000000

@<SCITEGIC>MOL_PROPERTY
U
SciTegic.value.DoubleValue
48.047

@<SCITEGIC>MOL_PROPERTY
W
SciTegic.value.DoubleValue
-55.456

@<SCITEGIC>MOL_PROPERTY
W(PB)
SciTegic.value.DoubleValue
-57.595

@<SCITEGIC>MOL_PROPERTY
W(SA)
SciTegic.value.DoubleValue
2.138

@<SCITEGIC>MOL_PROPERTY
Valence
SciTegic.value.DoubleValue
2.583

@<SCITEGIC>MOL_PROPERTY
Coulomb
SciTegic.value.DoubleValue
44.791

@<SCITEGIC>MOL_PROPERTY
VdW
SciTegic.value.DoubleValue
0.674

@<SCITEGIC>MOL_PROPERTY
VdW6
SciTegic.value.DoubleValue
-5.789

@<SCITEGIC>MOL_PROPERTY
VdW12
SciTegic.value.DoubleValue
6.462

@<SCITEGIC>MOL_PROPERTY
Bond
SciTegic.value.DoubleValue
0.177

@<SCITEGIC>MOL_PROPERTY
Angle
SciTegic.value.DoubleValue
0.787

@<SCITEGIC>MOL_PROPERTY
Pdih
SciTegic.value.DoubleValue
1.619

@<SCITEGIC>MOL_PROPERTY
Idih
SciTegic.value.DoubleValue
0.000

@<SCITEGIC>MOL_PROPERTY
Tether
SciTegic.value.DoubleValue
0.000

@<TRIPOS>MOLECULE
guest-2_confgen4.mol2 : confsearch ligand conformer 436
          23          22           1
SMALL
USER_CHARGES
 
@<TRIPOS>ATOM
       1    N1      20.719727   15.644833   23.293907 N.4        1 MOL1        -0.5940
       2    H1      21.708612   15.388979   23.387062 H          1 MOL1         0.3649
       3    H2      20.275019   14.913664   22.729567 H          1 MOL1         0.3649
       4    H3      20.309077   15.593359   24.231754 H          1 MOL1         0.3649
       5    C1      20.549134   17.017916   22.676399 C.3        1 MOL1         0.0207
       6    H4      21.032565   17.009479   21.695766 H          1 MOL1         0.0950
       7    H5      21.071289   17.738174   23.311439 H          1 MOL1         0.0950
       8    C2      19.073221   17.431392   22.522854 C.3        1 MOL1        -0.1415
       9    H6      18.550201   16.676781   21.920393 H          1 MOL1         0.0976
      10    H7      18.587514   17.439034   23.507753 H          1 MOL1         0.0976
      11    C3      18.906433   18.814380   21.850129 C.3        1 MOL1        -0.1375
      12    H8      17.835528   19.000943   21.689483 H          1 MOL1         0.0976
      13    H9      19.371032   18.795834   20.854411 H          1 MOL1         0.0976
      14    C4      19.504969   19.972536   22.684330 C.3        1 MOL1        -0.1375
      15    H10     19.062355   19.967679   23.690056 H          1 MOL1         0.0976
      16    H11     20.585685   19.824414   22.811487 H          1 MOL1         0.0976
      17    C5      19.257009   21.345402   22.020608 C.3        1 MOL1        -0.1350
      18    H12     18.177238   21.508232   21.895936 H          1 MOL1         0.0976
      19    H13     19.697287   21.355563   21.013617 H          1 MOL1         0.0976
      20    C6      19.855515   22.499539   22.852666 C.3        1 MOL1        -0.2365
      21    H14     19.409628   22.535971   23.855205 H          1 MOL1         0.0987
      22    H15     19.669027   23.465605   22.365855 H          1 MOL1         0.0987
      23    H16     20.941333   22.383318   22.965420 H          1 MOL1         0.0987
@<TRIPOS>BOND
    1     1     2    1
    2     1     3    1
    3     1     4    1
    4     1     5    1
    5     5     6    1
    6     5     7    1
    7     5     8    1
    8     8     9    1
    9     8    10    1
   10     8    11    1
   11    11    12    1
   12    11    13    1
   13    11    14    1
   14    14    15    1
   15    14    16    1
   16    14    17    1
   17    17    18    1
   18    17    19    1
   19    17    20    1
   20    20    21    1
   21    20    22    1
   22    20    23    1
@<TRIPOS>SUBSTRUCTURE
       1 MOL1            1 RESIDUE      1      MOL     
@<SCITEGIC>MOL_PROPERTY
VConf Rank
SciTegic.value.IntegerValue
436

@<SCITEGIC>MOL_PROPERTY
Conf_Id
SciTegic.value.IntegerValue
42

@<SCITEGIC>MOL_PROPERTY
Delta U+W
SciTegic.value.DoubleValue
0.365

@<SCITEGIC>MOL_PROPERTY
U+W
SciTegic.value.DoubleValue
-8.017

@<SCITEGIC>MOL_PROPERTY
Grad RMS
SciTegic.value.DoubleValue
0.000000

@<SCITEGIC>MOL_PROPERTY
U
SciTegic.value.DoubleValue
47.375

@<SCITEGIC>MOL_PROPERTY
W
SciTegic.value.DoubleValue
-55.392

@<SCITEGIC>MOL_PROPERTY
W(PB)
SciTegic.value.DoubleValue
-57.543

@<SCITEGIC>MOL_PROPERTY
W(SA)
SciTegic.value.DoubleValue
2.152

@<SCITEGIC>MOL_PROPERTY
Valence
SciTegic.value.DoubleValue
2.032

@<SCITEGIC>MOL_PROPERTY
Coulomb
SciTegic.value.DoubleValue
44.843

@<SCITEGIC>MOL_PROPERTY
VdW
SciTegic.value.DoubleValue
0.499

@<SCITEGIC>MOL_PROPERTY
VdW6
SciTegic.value.DoubleValue
-5.218

@<SCITEGIC>MOL_PROPERTY
VdW12
SciTegic.value.DoubleValue
5.717

@<SCITEGIC>MOL_PROPERTY
Bond
SciTegic.value.DoubleValue
0.135

@<SCITEGIC>MOL_PROPERTY
Angle
SciTegic.value.DoubleValue
0.514

@<SCITEGIC>MOL_PROPERTY
Pdih
SciTegic.value.DoubleValue
1.383

@<SCITEGIC>MOL_PROPERTY
Idih
SciTegic.value.DoubleValue
0.000

@<SCITEGIC>MOL_PROPERTY
Tether
SciTegic.value.DoubleValue
0.000

@<TRIPOS>MOLECULE
guest-2_confgen4.mol2 : confsearch ligand conformer 437
          23          22           1
SMALL
USER_CHARGES
 
@<TRIPOS>ATOM
       1    N1      22.902273   18.980131   23.050989 N.4        1 MOL1        -0.5940
       2    H1      23.014175   19.930313   22.683205 H          1 MOL1         0.3649
       3    H2      23.832354   18.547816   23.049745 H          1 MOL1         0.3649
       4    H3      22.614057   19.066406   24.030218 H          1 MOL1         0.3649
       5    C1      21.906522   18.174823   22.238867 C.3        1 MOL1         0.0207
       6    H4      21.852076   17.170070   22.666569 H          1 MOL1         0.0950
       7    H5      22.300851   18.091035   21.222473 H          1 MOL1         0.0950
       8    C2      20.496395   18.794695   22.188558 C.3        1 MOL1        -0.1415
       9    H6      20.557256   19.813821   21.784419 H          1 MOL1         0.0976
      10    H7      19.896583   18.205872   21.483837 H          1 MOL1         0.0976
      11    C3      19.799217   18.809109   23.570782 C.3        1 MOL1        -0.1375
      12    H8      20.448133   19.308630   24.302026 H          1 MOL1         0.0976
      13    H9      19.675898   17.776893   23.926772 H          1 MOL1         0.0976
      14    C4      18.424279   19.526306   23.585941 C.3        1 MOL1        -0.1375
      15    H10     18.054745   19.509318   24.620659 H          1 MOL1         0.0976
      16    H11     18.549783   20.588653   23.335156 H          1 MOL1         0.0976
      17    C5      17.343304   18.884858   22.677932 C.3        1 MOL1        -0.1350
      18    H12     16.368182   18.975858   23.176758 H          1 MOL1         0.0976
      19    H13     17.526344   17.806858   22.568342 H          1 MOL1         0.0976
      20    C6      17.231538   19.555924   21.288889 C.3        1 MOL1        -0.2365
      21    H14     16.973728   20.618440   21.387142 H          1 MOL1         0.0987
      22    H15     16.443968   19.076543   20.693204 H          1 MOL1         0.0987
      23    H16     18.165591   19.487450   20.720579 H          1 MOL1         0.0987
@<TRIPOS>BOND
    1     1     2    1
    2     1     3    1
    3     1     4    1
    4     1     5    1
    5     5     6    1
    6     5     7    1
    7     5     8    1
    8     8     9    1
    9     8    10    1
   10     8    11    1
   11    11    12    1
   12    11    13    1
   13    11    14    1
   14    14    15    1
   15    14    16    1
   16    14    17    1
   17    17    18    1
   18    17    19    1
   19    17    20    1
   20    20    21    1
   21    20    22    1
   22    20    23    1
@<TRIPOS>SUBSTRUCTURE
       1 MOL1            1 RESIDUE      1      MOL     
@<SCITEGIC>MOL_PROPERTY
VConf Rank
SciTegic.value.IntegerValue
437

@<SCITEGIC>MOL_PROPERTY
Conf_Id
SciTegic.value.IntegerValue
3

@<SCITEGIC>MOL_PROPERTY
Delta U+W
SciTegic.value.DoubleValue
3.283

@<SCITEGIC>MOL_PROPERTY
U+W
SciTegic.value.DoubleValue
-5.099

@<SCITEGIC>MOL_PROPERTY
Grad RMS
SciTegic.value.DoubleValue
0.000000

@<SCITEGIC>MOL_PROPERTY
U
SciTegic.value.DoubleValue
50.701

@<SCITEGIC>MOL_PROPERTY
W
SciTegic.value.DoubleValue
-55.800

@<SCITEGIC>MOL_PROPERTY
W(PB)
SciTegic.value.DoubleValue
-57.867

@<SCITEGIC>MOL_PROPERTY
W(SA)
SciTegic.value.DoubleValue
2.067

@<SCITEGIC>MOL_PROPERTY
Valence
SciTegic.value.DoubleValue
4.880

@<SCITEGIC>MOL_PROPERTY
Coulomb
SciTegic.value.DoubleValue
45.095

@<SCITEGIC>MOL_PROPERTY
VdW
SciTegic.value.DoubleValue
0.726

@<SCITEGIC>MOL_PROPERTY
VdW6
SciTegic.value.DoubleValue
-6.620

@<SCITEGIC>MOL_PROPERTY
VdW12
SciTegic.value.DoubleValue
7.346

@<SCITEGIC>MOL_PROPERTY
Bond
SciTegic.value.DoubleValue
0.222

@<SCITEGIC>MOL_PROPERTY
Angle
SciTegic.value.DoubleValue
1.260

@<SCITEGIC>MOL_PROPERTY
Pdih
SciTegic.value.DoubleValue
3.398

@<SCITEGIC>MOL_PROPERTY
Idih
SciTegic.value.DoubleValue
0.000

@<SCITEGIC>MOL_PROPERTY
Tether
SciTegic.value.DoubleValue
0.000

@<TRIPOS>MOLECULE
guest-2_confgen4.mol2 : confsearch ligand conformer 438
          23          22           1
SMALL
USER_CHARGES
 
@<TRIPOS>ATOM
       1    N1      21.888580   21.035315   23.023100 N.4        1 MOL1        -0.5940
       2    H1      22.607931   21.039372   22.292983 H          1 MOL1         0.3649
       3    H2      22.124909   21.786383   23.680276 H          1 MOL1         0.3649
       4    H3      21.002735   21.293001   22.577593 H          1 MOL1         0.3649
       5    C1      21.796150   19.689570   23.714995 C.3        1 MOL1         0.0207
       6    H4      21.037051   19.762131   24.497934 H          1 MOL1         0.0950
       7    H5      22.759258   19.495486   24.194869 H          1 MOL1         0.0950
       8    C2      21.455888   18.524779   22.762755 C.3        1 MOL1        -0.1415
       9    H6      22.252763   18.431218   22.013061 H          1 MOL1         0.0976
      10    H7      21.463868   17.587810   23.335369 H          1 MOL1         0.0976
      11    C3      20.091515   18.671120   22.042535 C.3        1 MOL1        -0.1375
      12    H8      19.971493   17.815778   21.365145 H          1 MOL1         0.0976
      13    H9      20.098476   19.566067   21.406320 H          1 MOL1         0.0976
      14    C4      18.889472   18.731057   23.019228 C.3        1 MOL1        -0.1375
      15    H10     18.867948   17.822075   23.636040 H          1 MOL1         0.0976
      16    H11     19.020626   19.571862   23.712914 H          1 MOL1         0.0976
      17    C5      17.525597   18.904059   22.307638 C.3        1 MOL1        -0.1350
      18    H12     17.537458   19.817969   21.697429 H          1 MOL1         0.0976
      19    H13     16.747983   19.054076   23.069659 H          1 MOL1         0.0976
      20    C6      17.131143   17.695995   21.427675 C.3        1 MOL1        -0.2365
      21    H14     17.144267   16.763959   22.007453 H          1 MOL1         0.0987
      22    H15     17.809313   17.579756   20.573380 H          1 MOL1         0.0987
      23    H16     16.117532   17.827530   21.027394 H          1 MOL1         0.0987
@<TRIPOS>BOND
    1     1     2    1
    2     1     3    1
    3     1     4    1
    4     1     5    1
    5     5     6    1
    6     5     7    1
    7     5     8    1
    8     8     9    1
    9     8    10    1
   10     8    11    1
   11    11    12    1
   12    11    13    1
   13    11    14    1
   14    14    15    1
   15    14    16    1
   16    14    17    1
   17    17    18    1
   18    17    19    1
   19    17    20    1
   20    20    21    1
   21    20    22    1
   22    20    23    1
@<TRIPOS>SUBSTRUCTURE
       1 MOL1            1 RESIDUE      1      MOL     
@<SCITEGIC>MOL_PROPERTY
VConf Rank
SciTegic.value.IntegerValue
438

@<SCITEGIC>MOL_PROPERTY
Conf_Id
SciTegic.value.IntegerValue
83

@<SCITEGIC>MOL_PROPERTY
Delta U+W
SciTegic.value.DoubleValue
1.229

@<SCITEGIC>MOL_PROPERTY
U+W
SciTegic.value.DoubleValue
-7.154

@<SCITEGIC>MOL_PROPERTY
Grad RMS
SciTegic.value.DoubleValue
0.000000

@<SCITEGIC>MOL_PROPERTY
U
SciTegic.value.DoubleValue
48.727

@<SCITEGIC>MOL_PROPERTY
W
SciTegic.value.DoubleValue
-55.880

@<SCITEGIC>MOL_PROPERTY
W(PB)
SciTegic.value.DoubleValue
-57.960

@<SCITEGIC>MOL_PROPERTY
W(SA)
SciTegic.value.DoubleValue
2.080

@<SCITEGIC>MOL_PROPERTY
Valence
SciTegic.value.DoubleValue
2.671

@<SCITEGIC>MOL_PROPERTY
Coulomb
SciTegic.value.DoubleValue
45.371

@<SCITEGIC>MOL_PROPERTY
VdW
SciTegic.value.DoubleValue
0.684

@<SCITEGIC>MOL_PROPERTY
VdW6
SciTegic.value.DoubleValue
-6.511

@<SCITEGIC>MOL_PROPERTY
VdW12
SciTegic.value.DoubleValue
7.195

@<SCITEGIC>MOL_PROPERTY
Bond
SciTegic.value.DoubleValue
0.203

@<SCITEGIC>MOL_PROPERTY
Angle
SciTegic.value.DoubleValue
0.915

@<SCITEGIC>MOL_PROPERTY
Pdih
SciTegic.value.DoubleValue
1.554

@<SCITEGIC>MOL_PROPERTY
Idih
SciTegic.value.DoubleValue
0.000

@<SCITEGIC>MOL_PROPERTY
Tether
SciTegic.value.DoubleValue
0.000

@<TRIPOS>MOLECULE
guest-2_confgen4.mol2 : confsearch ligand conformer 439
          23          22           1
SMALL
USER_CHARGES
 
@<TRIPOS>ATOM
       1    N1      20.254464   21.100511   24.546330 N.4        1 MOL1        -0.5940
       2    H1      19.789881   21.990858   24.341394 H          1 MOL1         0.3649
       3    H2      20.907616   20.915501   23.779021 H          1 MOL1         0.3649
       4    H3      20.816357   21.243872   25.392237 H          1 MOL1         0.3649
       5    C1      19.257411   19.971304   24.716830 C.3        1 MOL1         0.0207
       6    H4      18.618349   20.217756   25.569114 H          1 MOL1         0.0950
       7    H5      19.812796   19.062640   24.962527 H          1 MOL1         0.0950
       8    C2      18.378477   19.727006   23.473017 C.3        1 MOL1        -0.1415
       9    H6      17.654121   18.934556   23.703652 H          1 MOL1         0.0976
      10    H7      17.788243   20.630254   23.269125 H          1 MOL1         0.0976
      11    C3      19.172817   19.337779   22.200549 C.3        1 MOL1        -0.1375
      12    H8      19.847507   20.156015   21.915889 H          1 MOL1         0.0976
      13    H9      18.458582   19.229358   21.374118 H          1 MOL1         0.0976
      14    C4      19.980065   18.024641   22.363183 C.3        1 MOL1        -0.1375
      15    H10     20.677747   18.123536   23.205094 H          1 MOL1         0.0976
      16    H11     19.299694   17.201292   22.620790 H          1 MOL1         0.0976
      17    C5      20.797260   17.644054   21.104696 C.3        1 MOL1        -0.1350
      18    H12     21.425312   16.774233   21.343079 H          1 MOL1         0.0976
      19    H13     21.487591   18.459838   20.848443 H          1 MOL1         0.0976
      20    C6      19.919475   17.301080   19.879459 C.3        1 MOL1        -0.2365
      21    H14     19.197403   16.509988   20.119861 H          1 MOL1         0.0987
      22    H15     20.542424   16.945161   19.048682 H          1 MOL1         0.0987
      23    H16     19.364346   18.177083   19.522117 H          1 MOL1         0.0987
@<TRIPOS>BOND
    1     1     2    1
    2     1     3    1
    3     1     4    1
    4     1     5    1
    5     5     6    1
    6     5     7    1
    7     5     8    1
    8     8     9    1
    9     8    10    1
   10     8    11    1
   11    11    12    1
   12    11    13    1
   13    11    14    1
   14    14    15    1
   15    14    16    1
   16    14    17    1
   17    17    18    1
   18    17    19    1
   19    17    20    1
   20    20    21    1
   21    20    22    1
   22    20    23    1
@<TRIPOS>SUBSTRUCTURE
       1 MOL1            1 RESIDUE      1      MOL     
@<SCITEGIC>MOL_PROPERTY
VConf Rank
SciTegic.value.IntegerValue
439

@<SCITEGIC>MOL_PROPERTY
Conf_Id
SciTegic.value.IntegerValue
50

@<SCITEGIC>MOL_PROPERTY
Delta U+W
SciTegic.value.DoubleValue
1.252

@<SCITEGIC>MOL_PROPERTY
U+W
SciTegic.value.DoubleValue
-7.130

@<SCITEGIC>MOL_PROPERTY
Grad RMS
SciTegic.value.DoubleValue
0.000000

@<SCITEGIC>MOL_PROPERTY
U
SciTegic.value.DoubleValue
48.727

@<SCITEGIC>MOL_PROPERTY
W
SciTegic.value.DoubleValue
-55.857

@<SCITEGIC>MOL_PROPERTY
W(PB)
SciTegic.value.DoubleValue
-57.937

@<SCITEGIC>MOL_PROPERTY
W(SA)
SciTegic.value.DoubleValue
2.080

@<SCITEGIC>MOL_PROPERTY
Valence
SciTegic.value.DoubleValue
2.671

@<SCITEGIC>MOL_PROPERTY
Coulomb
SciTegic.value.DoubleValue
45.371

@<SCITEGIC>MOL_PROPERTY
VdW
SciTegic.value.DoubleValue
0.684

@<SCITEGIC>MOL_PROPERTY
VdW6
SciTegic.value.DoubleValue
-6.511

@<SCITEGIC>MOL_PROPERTY
VdW12
SciTegic.value.DoubleValue
7.196

@<SCITEGIC>MOL_PROPERTY
Bond
SciTegic.value.DoubleValue
0.203

@<SCITEGIC>MOL_PROPERTY
Angle
SciTegic.value.DoubleValue
0.915

@<SCITEGIC>MOL_PROPERTY
Pdih
SciTegic.value.DoubleValue
1.554

@<SCITEGIC>MOL_PROPERTY
Idih
SciTegic.value.DoubleValue
0.000

@<SCITEGIC>MOL_PROPERTY
Tether
SciTegic.value.DoubleValue
0.000

@<TRIPOS>MOLECULE
guest-2_confgen4.mol2 : confsearch ligand conformer 440
          23          22           1
SMALL
USER_CHARGES
 
@<TRIPOS>ATOM
       1    N1      22.315530   20.402713   21.244862 N.4        1 MOL1        -0.5940
       2    H1      22.109129   21.050690   22.011060 H          1 MOL1         0.3649
       3    H2      22.664232   20.966028   20.461911 H          1 MOL1         0.3649
       4    H3      23.090538   19.806541   21.552377 H          1 MOL1         0.3649
       5    C1      21.098164   19.587778   20.853529 C.3        1 MOL1         0.0207
       6    H4      21.381576   18.953557   20.009127 H          1 MOL1         0.0950
       7    H5      20.321732   20.278923   20.514583 H          1 MOL1         0.0950
       8    C2      20.546908   18.706675   21.991304 C.3        1 MOL1        -0.1415
       9    H6      19.745777   18.080785   21.582508 H          1 MOL1         0.0976
      10    H7      21.331655   18.018120   22.331644 H          1 MOL1         0.0976
      11    C3      20.020392   19.538119   23.188867 C.3        1 MOL1        -0.1375
      12    H8      19.303261   20.295377   22.842976 H          1 MOL1         0.0976
      13    H9      20.861942   20.092443   23.625338 H          1 MOL1         0.0976
      14    C4      19.381175   18.671838   24.305587 C.3        1 MOL1        -0.1375
      15    H10     19.844387   17.675791   24.328347 H          1 MOL1         0.0976
      16    H11     19.620834   19.131248   25.274606 H          1 MOL1         0.0976
      17    C5      17.838780   18.540880   24.221473 C.3        1 MOL1        -0.1350
      18    H12     17.379727   19.536137   24.302138 H          1 MOL1         0.0976
      19    H13     17.489062   17.973452   25.095278 H          1 MOL1         0.0976
      20    C6      17.327586   17.843541   22.941851 C.3        1 MOL1        -0.2365
      21    H14     17.812373   16.868870   22.801022 H          1 MOL1         0.0987
      22    H15     17.511577   18.458275   22.052175 H          1 MOL1         0.0987
      23    H16     16.244900   17.673868   23.004231 H          1 MOL1         0.0987
@<TRIPOS>BOND
    1     1     2    1
    2     1     3    1
    3     1     4    1
    4     1     5    1
    5     5     6    1
    6     5     7    1
    7     5     8    1
    8     8     9    1
    9     8    10    1
   10     8    11    1
   11    11    12    1
   12    11    13    1
   13    11    14    1
   14    14    15    1
   15    14    16    1
   16    14    17    1
   17    17    18    1
   18    17    19    1
   19    17    20    1
   20    20    21    1
   21    20    22    1
   22    20    23    1
@<TRIPOS>SUBSTRUCTURE
       1 MOL1            1 RESIDUE      1      MOL     
@<SCITEGIC>MOL_PROPERTY
VConf Rank
SciTegic.value.IntegerValue
440

@<SCITEGIC>MOL_PROPERTY
Conf_Id
SciTegic.value.IntegerValue
55

@<SCITEGIC>MOL_PROPERTY
Delta U+W
SciTegic.value.DoubleValue
3.232

@<SCITEGIC>MOL_PROPERTY
U+W
SciTegic.value.DoubleValue
-5.150

@<SCITEGIC>MOL_PROPERTY
Grad RMS
SciTegic.value.DoubleValue
0.000000

@<SCITEGIC>MOL_PROPERTY
U
SciTegic.value.DoubleValue
50.625

@<SCITEGIC>MOL_PROPERTY
W
SciTegic.value.DoubleValue
-55.776

@<SCITEGIC>MOL_PROPERTY
W(PB)
SciTegic.value.DoubleValue
-57.839

@<SCITEGIC>MOL_PROPERTY
W(SA)
SciTegic.value.DoubleValue
2.064

@<SCITEGIC>MOL_PROPERTY
Valence
SciTegic.value.DoubleValue
4.837

@<SCITEGIC>MOL_PROPERTY
Coulomb
SciTegic.value.DoubleValue
45.097

@<SCITEGIC>MOL_PROPERTY
VdW
SciTegic.value.DoubleValue
0.692

@<SCITEGIC>MOL_PROPERTY
VdW6
SciTegic.value.DoubleValue
-6.655

@<SCITEGIC>MOL_PROPERTY
VdW12
SciTegic.value.DoubleValue
7.347

@<SCITEGIC>MOL_PROPERTY
Bond
SciTegic.value.DoubleValue
0.223

@<SCITEGIC>MOL_PROPERTY
Angle
SciTegic.value.DoubleValue
1.167

@<SCITEGIC>MOL_PROPERTY
Pdih
SciTegic.value.DoubleValue
3.447

@<SCITEGIC>MOL_PROPERTY
Idih
SciTegic.value.DoubleValue
0.000

@<SCITEGIC>MOL_PROPERTY
Tether
SciTegic.value.DoubleValue
0.000

@<TRIPOS>MOLECULE
guest-2_confgen4.mol2 : confsearch ligand conformer 441
          23          22           1
SMALL
USER_CHARGES
 
@<TRIPOS>ATOM
       1    N1      22.756310   19.045517   23.770194 N.4        1 MOL1        -0.5940
       2    H1      23.306250   18.187706   23.882239 H          1 MOL1         0.3649
       3    H2      23.000596   19.660160   24.554118 H          1 MOL1         0.3649
       4    H3      23.086905   19.505933   22.916097 H          1 MOL1         0.3649
       5    C1      21.269027   18.760702   23.720018 C.3        1 MOL1         0.0207
       6    H4      20.749154   19.716846   23.637187 H          1 MOL1         0.0950
       7    H5      20.983241   18.298716   24.668856 H          1 MOL1         0.0950
       8    C2      20.872350   17.832784   22.554942 C.3        1 MOL1        -0.1415
       9    H6      21.194939   18.262418   21.597229 H          1 MOL1         0.0976
      10    H7      21.419918   16.887931   22.670875 H          1 MOL1         0.0976
      11    C3      19.354872   17.521112   22.515118 C.3        1 MOL1        -0.1375
      12    H8      18.965988   17.412427   23.537155 H          1 MOL1         0.0976
      13    H9      19.220329   16.539231   22.040455 H          1 MOL1         0.0976
      14    C4      18.497411   18.543325   21.724350 C.3        1 MOL1        -0.1375
      15    H10     18.828660   18.566172   20.676951 H          1 MOL1         0.0976
      16    H11     17.460879   18.178960   21.707595 H          1 MOL1         0.0976
      17    C5      18.513949   19.978757   22.298599 C.3        1 MOL1        -0.1350
      18    H12     19.512894   20.417782   22.179090 H          1 MOL1         0.0976
      19    H13     18.295087   19.953387   23.375229 H          1 MOL1         0.0976
      20    C6      17.487732   20.887571   21.588939 C.3        1 MOL1        -0.2365
      21    H14     16.466392   20.505774   21.716646 H          1 MOL1         0.0987
      22    H15     17.696310   20.953059   20.513087 H          1 MOL1         0.0987
      23    H16     17.520444   21.904518   22.000981 H          1 MOL1         0.0987
@<TRIPOS>BOND
    1     1     2    1
    2     1     3    1
    3     1     4    1
    4     1     5    1
    5     5     6    1
    6     5     7    1
    7     5     8    1
    8     8     9    1
    9     8    10    1
   10     8    11    1
   11    11    12    1
   12    11    13    1
   13    11    14    1
   14    14    15    1
   15    14    16    1
   16    14    17    1
   17    17    18    1
   18    17    19    1
   19    17    20    1
   20    20    21    1
   21    20    22    1
   22    20    23    1
@<TRIPOS>SUBSTRUCTURE
       1 MOL1            1 RESIDUE      1      MOL     
@<SCITEGIC>MOL_PROPERTY
VConf Rank
SciTegic.value.IntegerValue
441

@<SCITEGIC>MOL_PROPERTY
Conf_Id
SciTegic.value.IntegerValue
93

@<SCITEGIC>MOL_PROPERTY
Delta U+W
SciTegic.value.DoubleValue
2.589

@<SCITEGIC>MOL_PROPERTY
U+W
SciTegic.value.DoubleValue
-5.793

@<SCITEGIC>MOL_PROPERTY
Grad RMS
SciTegic.value.DoubleValue
0.000000

@<SCITEGIC>MOL_PROPERTY
U
SciTegic.value.DoubleValue
50.122

@<SCITEGIC>MOL_PROPERTY
W
SciTegic.value.DoubleValue
-55.915

@<SCITEGIC>MOL_PROPERTY
W(PB)
SciTegic.value.DoubleValue
-58.031

@<SCITEGIC>MOL_PROPERTY
W(SA)
SciTegic.value.DoubleValue
2.115

@<SCITEGIC>MOL_PROPERTY
Valence
SciTegic.value.DoubleValue
4.132

@<SCITEGIC>MOL_PROPERTY
Coulomb
SciTegic.value.DoubleValue
45.536

@<SCITEGIC>MOL_PROPERTY
VdW
SciTegic.value.DoubleValue
0.454

@<SCITEGIC>MOL_PROPERTY
VdW6
SciTegic.value.DoubleValue
-6.262

@<SCITEGIC>MOL_PROPERTY
VdW12
SciTegic.value.DoubleValue
6.715

@<SCITEGIC>MOL_PROPERTY
Bond
SciTegic.value.DoubleValue
0.182

@<SCITEGIC>MOL_PROPERTY
Angle
SciTegic.value.DoubleValue
1.157

@<SCITEGIC>MOL_PROPERTY
Pdih
SciTegic.value.DoubleValue
2.794

@<SCITEGIC>MOL_PROPERTY
Idih
SciTegic.value.DoubleValue
0.000

@<SCITEGIC>MOL_PROPERTY
Tether
SciTegic.value.DoubleValue
0.000

@<TRIPOS>MOLECULE
guest-2_confgen4.mol2 : confsearch ligand conformer 442
          23          22           1
SMALL
USER_CHARGES
 
@<TRIPOS>ATOM
       1    N1      20.200516   21.431717   24.469293 N.4        1 MOL1        -0.5940
       2    H1      21.138157   21.074797   24.679511 H          1 MOL1         0.3649
       3    H2      19.705947   21.516120   25.363876 H          1 MOL1         0.3649
       4    H3      20.315163   22.381867   24.102006 H          1 MOL1         0.3649
       5    C1      19.458836   20.536134   23.497960 C.3        1 MOL1         0.0207
       6    H4      18.462928   20.960057   23.343509 H          1 MOL1         0.0950
       7    H5      19.342830   19.558081   23.968379 H          1 MOL1         0.0950
       8    C2      20.175379   20.395864   22.140507 C.3        1 MOL1        -0.1415
       9    H6      20.278173   21.398660   21.704785 H          1 MOL1         0.0976
      10    H7      21.195030   20.014359   22.284128 H          1 MOL1         0.0976
      11    C3      19.407171   19.499038   21.137002 C.3        1 MOL1        -0.1375
      12    H8      19.662940   19.827798   20.120145 H          1 MOL1         0.0976
      13    H9      18.325164   19.662164   21.238266 H          1 MOL1         0.0976
      14    C4      19.729323   17.984944   21.232984 C.3        1 MOL1        -0.1375
      15    H10     19.183064   17.468158   20.431751 H          1 MOL1         0.0976
      16    H11     20.796407   17.824024   21.026279 H          1 MOL1         0.0976
      17    C5      19.365641   17.333584   22.587224 C.3        1 MOL1        -0.1350
      18    H12     18.330874   17.586074   22.857749 H          1 MOL1         0.0976
      19    H13     20.015410   17.728878   23.378715 H          1 MOL1         0.0976
      20    C6      19.522615   15.798689   22.540974 C.3        1 MOL1        -0.2365
      21    H14     19.271272   15.353947   23.512602 H          1 MOL1         0.0987
      22    H15     20.554767   15.514841   22.297373 H          1 MOL1         0.0987
      23    H16     18.859090   15.355806   21.786783 H          1 MOL1         0.0987
@<TRIPOS>BOND
    1     1     2    1
    2     1     3    1
    3     1     4    1
    4     1     5    1
    5     5     6    1
    6     5     7    1
    7     5     8    1
    8     8     9    1
    9     8    10    1
   10     8    11    1
   11    11    12    1
   12    11    13    1
   13    11    14    1
   14    14    15    1
   15    14    16    1
   16    14    17    1
   17    17    18    1
   18    17    19    1
   19    17    20    1
   20    20    21    1
   21    20    22    1
   22    20    23    1
@<TRIPOS>SUBSTRUCTURE
       1 MOL1            1 RESIDUE      1      MOL     
@<SCITEGIC>MOL_PROPERTY
VConf Rank
SciTegic.value.IntegerValue
442

@<SCITEGIC>MOL_PROPERTY
Conf_Id
SciTegic.value.IntegerValue
70

@<SCITEGIC>MOL_PROPERTY
Delta U+W
SciTegic.value.DoubleValue
2.599

@<SCITEGIC>MOL_PROPERTY
U+W
SciTegic.value.DoubleValue
-5.783

@<SCITEGIC>MOL_PROPERTY
Grad RMS
SciTegic.value.DoubleValue
0.000000

@<SCITEGIC>MOL_PROPERTY
U
SciTegic.value.DoubleValue
50.122

@<SCITEGIC>MOL_PROPERTY
W
SciTegic.value.DoubleValue
-55.906

@<SCITEGIC>MOL_PROPERTY
W(PB)
SciTegic.value.DoubleValue
-58.010

@<SCITEGIC>MOL_PROPERTY
W(SA)
SciTegic.value.DoubleValue
2.105

@<SCITEGIC>MOL_PROPERTY
Valence
SciTegic.value.DoubleValue
4.132

@<SCITEGIC>MOL_PROPERTY
Coulomb
SciTegic.value.DoubleValue
45.536

@<SCITEGIC>MOL_PROPERTY
VdW
SciTegic.value.DoubleValue
0.454

@<SCITEGIC>MOL_PROPERTY
VdW6
SciTegic.value.DoubleValue
-6.262

@<SCITEGIC>MOL_PROPERTY
VdW12
SciTegic.value.DoubleValue
6.715

@<SCITEGIC>MOL_PROPERTY
Bond
SciTegic.value.DoubleValue
0.182

@<SCITEGIC>MOL_PROPERTY
Angle
SciTegic.value.DoubleValue
1.157

@<SCITEGIC>MOL_PROPERTY
Pdih
SciTegic.value.DoubleValue
2.794

@<SCITEGIC>MOL_PROPERTY
Idih
SciTegic.value.DoubleValue
0.000

@<SCITEGIC>MOL_PROPERTY
Tether
SciTegic.value.DoubleValue
0.000

@<TRIPOS>MOLECULE
guest-2_confgen4.mol2 : confsearch ligand conformer 443
          23          22           1
SMALL
USER_CHARGES
 
@<TRIPOS>ATOM
       1    N1      19.841041   19.745940   19.847457 N.4        1 MOL1        -0.5940
       2    H1      19.788223   20.713075   19.512244 H          1 MOL1         0.3649
       3    H2      19.696085   19.138800   19.033742 H          1 MOL1         0.3649
       4    H3      20.799876   19.590113   20.172757 H          1 MOL1         0.3649
       5    C1      18.827881   19.473570   20.941786 C.3        1 MOL1         0.0207
       6    H4      18.913017   18.422446   21.229596 H          1 MOL1         0.0950
       7    H5      17.831489   19.630493   20.519799 H          1 MOL1         0.0950
       8    C2      19.004850   20.369152   22.184524 C.3        1 MOL1        -0.1415
       9    H6      18.883060   21.419926   21.889979 H          1 MOL1         0.0976
      10    H7      18.190680   20.160587   22.890246 H          1 MOL1         0.0976
      11    C3      20.371652   20.194879   22.897605 C.3        1 MOL1        -0.1375
      12    H8      20.390844   20.838289   23.788030 H          1 MOL1         0.0976
      13    H9      21.171148   20.569320   22.244280 H          1 MOL1         0.0976
      14    C4      20.708508   18.740501   23.317263 C.3        1 MOL1        -0.1375
      15    H10     20.786720   18.100170   22.428583 H          1 MOL1         0.0976
      16    H11     21.704356   18.736094   23.781596 H          1 MOL1         0.0976
      17    C5      19.689573   18.131881   24.309353 C.3        1 MOL1        -0.1350
      18    H12     18.699461   18.060968   23.839683 H          1 MOL1         0.0976
      19    H13     19.582113   18.791253   25.181932 H          1 MOL1         0.0976
      20    C6      20.122433   16.726901   24.779510 C.3        1 MOL1        -0.2365
      21    H14     19.387789   16.309189   25.480102 H          1 MOL1         0.0987
      22    H15     21.092902   16.763053   25.291442 H          1 MOL1         0.0987
      23    H16     20.209113   16.036151   23.930655 H          1 MOL1         0.0987
@<TRIPOS>BOND
    1     1     2    1
    2     1     3    1
    3     1     4    1
    4     1     5    1
    5     5     6    1
    6     5     7    1
    7     5     8    1
    8     8     9    1
    9     8    10    1
   10     8    11    1
   11    11    12    1
   12    11    13    1
   13    11    14    1
   14    14    15    1
   15    14    16    1
   16    14    17    1
   17    17    18    1
   18    17    19    1
   19    17    20    1
   20    20    21    1
   21    20    22    1
   22    20    23    1
@<TRIPOS>SUBSTRUCTURE
       1 MOL1            1 RESIDUE      1      MOL     
@<SCITEGIC>MOL_PROPERTY
VConf Rank
SciTegic.value.IntegerValue
443

@<SCITEGIC>MOL_PROPERTY
Conf_Id
SciTegic.value.IntegerValue
72

@<SCITEGIC>MOL_PROPERTY
Delta U+W
SciTegic.value.DoubleValue
1.051

@<SCITEGIC>MOL_PROPERTY
U+W
SciTegic.value.DoubleValue
-7.331

@<SCITEGIC>MOL_PROPERTY
Grad RMS
SciTegic.value.DoubleValue
0.000000

@<SCITEGIC>MOL_PROPERTY
U
SciTegic.value.DoubleValue
48.590

@<SCITEGIC>MOL_PROPERTY
W
SciTegic.value.DoubleValue
-55.922

@<SCITEGIC>MOL_PROPERTY
W(PB)
SciTegic.value.DoubleValue
-58.012

@<SCITEGIC>MOL_PROPERTY
W(SA)
SciTegic.value.DoubleValue
2.090

@<SCITEGIC>MOL_PROPERTY
Valence
SciTegic.value.DoubleValue
2.601

@<SCITEGIC>MOL_PROPERTY
Coulomb
SciTegic.value.DoubleValue
45.520

@<SCITEGIC>MOL_PROPERTY
VdW
SciTegic.value.DoubleValue
0.469

@<SCITEGIC>MOL_PROPERTY
VdW6
SciTegic.value.DoubleValue
-6.867

@<SCITEGIC>MOL_PROPERTY
VdW12
SciTegic.value.DoubleValue
7.336

@<SCITEGIC>MOL_PROPERTY
Bond
SciTegic.value.DoubleValue
0.205

@<SCITEGIC>MOL_PROPERTY
Angle
SciTegic.value.DoubleValue
0.962

@<SCITEGIC>MOL_PROPERTY
Pdih
SciTegic.value.DoubleValue
1.434

@<SCITEGIC>MOL_PROPERTY
Idih
SciTegic.value.DoubleValue
0.000

@<SCITEGIC>MOL_PROPERTY
Tether
SciTegic.value.DoubleValue
0.000

@<TRIPOS>MOLECULE
guest-2_confgen4.mol2 : confsearch ligand conformer 444
          23          22           1
SMALL
USER_CHARGES
 
@<TRIPOS>ATOM
       1    N1      20.162092   16.315080   20.992364 N.4        1 MOL1        -0.5940
       2    H1      19.732228   16.006368   20.113802 H          1 MOL1         0.3649
       3    H2      20.309676   15.475984   21.562381 H          1 MOL1         0.3649
       4    H3      21.088002   16.686439   20.756897 H          1 MOL1         0.3649
       5    C1      19.306387   17.340602   21.707706 C.3        1 MOL1         0.0207
       6    H4      18.329391   16.889717   21.901435 H          1 MOL1         0.0950
       7    H5      19.166080   18.189857   21.033902 H          1 MOL1         0.0950
       8    C2      19.924876   17.825283   23.032234 C.3        1 MOL1        -0.1415
       9    H6      20.096042   16.960248   23.686562 H          1 MOL1         0.0976
      10    H7      20.911353   18.266401   22.840640 H          1 MOL1         0.0976
      11    C3      19.024502   18.843477   23.774980 C.3        1 MOL1        -0.1375
      12    H8      19.509532   19.131113   24.717297 H          1 MOL1         0.0976
      13    H9      18.089047   18.344841   24.064114 H          1 MOL1         0.0976
      14    C4      18.674396   20.118621   22.961228 C.3        1 MOL1        -0.1375
      15    H10     18.045734   19.843116   22.103800 H          1 MOL1         0.0976
      16    H11     18.050479   20.772628   23.585866 H          1 MOL1         0.0976
      17    C5      19.892217   20.929557   22.449843 C.3        1 MOL1        -0.1350
      18    H12     19.523047   21.794832   21.881773 H          1 MOL1         0.0976
      19    H13     20.476056   20.330219   21.738476 H          1 MOL1         0.0976
      20    C6      20.811879   21.435250   23.584308 C.3        1 MOL1        -0.2365
      21    H14     20.246748   22.027456   24.315648 H          1 MOL1         0.0987
      22    H15     21.607853   22.073069   23.178779 H          1 MOL1         0.0987
      23    H16     21.292546   20.603185   24.113635 H          1 MOL1         0.0987
@<TRIPOS>BOND
    1     1     2    1
    2     1     3    1
    3     1     4    1
    4     1     5    1
    5     5     6    1
    6     5     7    1
    7     5     8    1
    8     8     9    1
    9     8    10    1
   10     8    11    1
   11    11    12    1
   12    11    13    1
   13    11    14    1
   14    14    15    1
   15    14    16    1
   16    14    17    1
   17    17    18    1
   18    17    19    1
   19    17    20    1
   20    20    21    1
   21    20    22    1
   22    20    23    1
@<TRIPOS>SUBSTRUCTURE
       1 MOL1            1 RESIDUE      1      MOL     
@<SCITEGIC>MOL_PROPERTY
VConf Rank
SciTegic.value.IntegerValue
444

@<SCITEGIC>MOL_PROPERTY
Conf_Id
SciTegic.value.IntegerValue
26

@<SCITEGIC>MOL_PROPERTY
Delta U+W
SciTegic.value.DoubleValue
1.076

@<SCITEGIC>MOL_PROPERTY
U+W
SciTegic.value.DoubleValue
-7.306

@<SCITEGIC>MOL_PROPERTY
Grad RMS
SciTegic.value.DoubleValue
0.000000

@<SCITEGIC>MOL_PROPERTY
U
SciTegic.value.DoubleValue
48.641

@<SCITEGIC>MOL_PROPERTY
W
SciTegic.value.DoubleValue
-55.947

@<SCITEGIC>MOL_PROPERTY
W(PB)
SciTegic.value.DoubleValue
-58.031

@<SCITEGIC>MOL_PROPERTY
W(SA)
SciTegic.value.DoubleValue
2.084

@<SCITEGIC>MOL_PROPERTY
Valence
SciTegic.value.DoubleValue
2.922

@<SCITEGIC>MOL_PROPERTY
Coulomb
SciTegic.value.DoubleValue
45.269

@<SCITEGIC>MOL_PROPERTY
VdW
SciTegic.value.DoubleValue
0.449

@<SCITEGIC>MOL_PROPERTY
VdW6
SciTegic.value.DoubleValue
-7.045

@<SCITEGIC>MOL_PROPERTY
VdW12
SciTegic.value.DoubleValue
7.494

@<SCITEGIC>MOL_PROPERTY
Bond
SciTegic.value.DoubleValue
0.220

@<SCITEGIC>MOL_PROPERTY
Angle
SciTegic.value.DoubleValue
1.205

@<SCITEGIC>MOL_PROPERTY
Pdih
SciTegic.value.DoubleValue
1.497

@<SCITEGIC>MOL_PROPERTY
Idih
SciTegic.value.DoubleValue
0.000

@<SCITEGIC>MOL_PROPERTY
Tether
SciTegic.value.DoubleValue
0.000

@<TRIPOS>MOLECULE
guest-2_confgen4.mol2 : confsearch ligand conformer 445
          23          22           1
SMALL
USER_CHARGES
 
@<TRIPOS>ATOM
       1    N1      20.520426   16.324210   21.131267 N.4        1 MOL1        -0.5940
       2    H1      20.404564   15.472582   21.689917 H          1 MOL1         0.3649
       3    H2      21.251194   16.128804   20.438625 H          1 MOL1         0.3649
       4    H3      19.647868   16.465526   20.612293 H          1 MOL1         0.3649
       5    C1      20.866873   17.521810   21.992292 C.3        1 MOL1         0.0207
       6    H4      21.004693   18.381833   21.331763 H          1 MOL1         0.0950
       7    H5      21.817301   17.315475   22.491754 H          1 MOL1         0.0950
       8    C2      19.788154   17.842208   23.043733 C.3        1 MOL1        -0.1415
       9    H6      18.830509   18.036730   22.544224 H          1 MOL1         0.0976
      10    H7      19.631177   16.959604   23.677845 H          1 MOL1         0.0976
      11    C3      20.169453   19.043316   23.944296 C.3        1 MOL1        -0.1375
      12    H8      21.063760   18.780542   24.526084 H          1 MOL1         0.0976
      13    H9      19.373268   19.205077   24.683129 H          1 MOL1         0.0976
      14    C4      20.446604   20.367170   23.181829 C.3        1 MOL1        -0.1375
      15    H10     20.689790   21.149135   23.914331 H          1 MOL1         0.0976
      16    H11     21.347820   20.251097   22.564869 H          1 MOL1         0.0976
      17    C5      19.285791   20.866761   22.284531 C.3        1 MOL1        -0.1350
      18    H12     19.093229   20.147659   21.477107 H          1 MOL1         0.0976
      19    H13     19.600558   21.796426   21.790227 H          1 MOL1         0.0976
      20    C6      17.979787   21.136505   23.065626 C.3        1 MOL1        -0.2365
      21    H14     17.565632   20.212684   23.488223 H          1 MOL1         0.0987
      22    H15     17.217835   21.567999   22.403748 H          1 MOL1         0.0987
      23    H16     18.150687   21.844112   23.887227 H          1 MOL1         0.0987
@<TRIPOS>BOND
    1     1     2    1
    2     1     3    1
    3     1     4    1
    4     1     5    1
    5     5     6    1
    6     5     7    1
    7     5     8    1
    8     8     9    1
    9     8    10    1
   10     8    11    1
   11    11    12    1
   12    11    13    1
   13    11    14    1
   14    14    15    1
   15    14    16    1
   16    14    17    1
   17    17    18    1
   18    17    19    1
   19    17    20    1
   20    20    21    1
   21    20    22    1
   22    20    23    1
@<TRIPOS>SUBSTRUCTURE
       1 MOL1            1 RESIDUE      1      MOL     
@<SCITEGIC>MOL_PROPERTY
VConf Rank
SciTegic.value.IntegerValue
445

@<SCITEGIC>MOL_PROPERTY
Conf_Id
SciTegic.value.IntegerValue
90

@<SCITEGIC>MOL_PROPERTY
Delta U+W
SciTegic.value.DoubleValue
1.131

@<SCITEGIC>MOL_PROPERTY
U+W
SciTegic.value.DoubleValue
-7.251

@<SCITEGIC>MOL_PROPERTY
Grad RMS
SciTegic.value.DoubleValue
0.000000

@<SCITEGIC>MOL_PROPERTY
U
SciTegic.value.DoubleValue
48.641

@<SCITEGIC>MOL_PROPERTY
W
SciTegic.value.DoubleValue
-55.892

@<SCITEGIC>MOL_PROPERTY
W(PB)
SciTegic.value.DoubleValue
-57.962

@<SCITEGIC>MOL_PROPERTY
W(SA)
SciTegic.value.DoubleValue
2.070

@<SCITEGIC>MOL_PROPERTY
Valence
SciTegic.value.DoubleValue
2.922

@<SCITEGIC>MOL_PROPERTY
Coulomb
SciTegic.value.DoubleValue
45.269

@<SCITEGIC>MOL_PROPERTY
VdW
SciTegic.value.DoubleValue
0.450

@<SCITEGIC>MOL_PROPERTY
VdW6
SciTegic.value.DoubleValue
-7.045

@<SCITEGIC>MOL_PROPERTY
VdW12
SciTegic.value.DoubleValue
7.495

@<SCITEGIC>MOL_PROPERTY
Bond
SciTegic.value.DoubleValue
0.220

@<SCITEGIC>MOL_PROPERTY
Angle
SciTegic.value.DoubleValue
1.205

@<SCITEGIC>MOL_PROPERTY
Pdih
SciTegic.value.DoubleValue
1.497

@<SCITEGIC>MOL_PROPERTY
Idih
SciTegic.value.DoubleValue
0.000

@<SCITEGIC>MOL_PROPERTY
Tether
SciTegic.value.DoubleValue
0.000

@<TRIPOS>MOLECULE
guest-2_confgen4.mol2 : confsearch ligand conformer 446
          23          22           1
SMALL
USER_CHARGES
 
@<TRIPOS>ATOM
       1    N1      22.319382   19.737960   22.365117 N.4        1 MOL1        -0.5940
       2    H1      23.049784   19.701185   21.646082 H          1 MOL1         0.3649
       3    H2      21.992976   18.778070   22.512406 H          1 MOL1         0.3649
       4    H3      22.770023   20.042296   23.233952 H          1 MOL1         0.3649
       5    C1      21.183345   20.659743   21.967461 C.3        1 MOL1         0.0207
       6    H4      20.768894   20.298769   21.022662 H          1 MOL1         0.0950
       7    H5      21.605690   21.653342   21.794533 H          1 MOL1         0.0950
       8    C2      20.064534   20.756240   23.024741 C.3        1 MOL1        -0.1415
       9    H6      20.482541   21.164238   23.954578 H          1 MOL1         0.0976
      10    H7      19.316951   21.483355   22.680839 H          1 MOL1         0.0976
      11    C3      19.364627   19.407172   23.325948 C.3        1 MOL1        -0.1375
      12    H8      18.599389   19.574300   24.096397 H          1 MOL1         0.0976
      13    H9      20.089547   18.707987   23.761534 H          1 MOL1         0.0976
      14    C4      18.698461   18.777079   22.076676 C.3        1 MOL1        -0.1375
      15    H10     18.041496   19.522037   21.606886 H          1 MOL1         0.0976
      16    H11     19.460901   18.521322   21.328875 H          1 MOL1         0.0976
      17    C5      17.860670   17.516128   22.398392 C.3        1 MOL1        -0.1350
      18    H12     17.339654   17.196319   21.485101 H          1 MOL1         0.0976
      19    H13     17.077093   17.765905   23.127363 H          1 MOL1         0.0976
      20    C6      18.706957   16.336195   22.928196 C.3        1 MOL1        -0.2365
      21    H14     19.514630   16.083931   22.228935 H          1 MOL1         0.0987
      22    H15     18.082356   15.442513   23.055244 H          1 MOL1         0.0987
      23    H16     19.154345   16.566320   23.903028 H          1 MOL1         0.0987
@<TRIPOS>BOND
    1     1     2    1
    2     1     3    1
    3     1     4    1
    4     1     5    1
    5     5     6    1
    6     5     7    1
    7     5     8    1
    8     8     9    1
    9     8    10    1
   10     8    11    1
   11    11    12    1
   12    11    13    1
   13    11    14    1
   14    14    15    1
   15    14    16    1
   16    14    17    1
   17    17    18    1
   18    17    19    1
   19    17    20    1
   20    20    21    1
   21    20    22    1
   22    20    23    1
@<TRIPOS>SUBSTRUCTURE
       1 MOL1            1 RESIDUE      1      MOL     
@<SCITEGIC>MOL_PROPERTY
VConf Rank
SciTegic.value.IntegerValue
446

@<SCITEGIC>MOL_PROPERTY
Conf_Id
SciTegic.value.IntegerValue
85

@<SCITEGIC>MOL_PROPERTY
Delta U+W
SciTegic.value.DoubleValue
1.193

@<SCITEGIC>MOL_PROPERTY
U+W
SciTegic.value.DoubleValue
-7.189

@<SCITEGIC>MOL_PROPERTY
Grad RMS
SciTegic.value.DoubleValue
0.000000

@<SCITEGIC>MOL_PROPERTY
U
SciTegic.value.DoubleValue
48.775

@<SCITEGIC>MOL_PROPERTY
W
SciTegic.value.DoubleValue
-55.965

@<SCITEGIC>MOL_PROPERTY
W(PB)
SciTegic.value.DoubleValue
-58.038

@<SCITEGIC>MOL_PROPERTY
W(SA)
SciTegic.value.DoubleValue
2.073

@<SCITEGIC>MOL_PROPERTY
Valence
SciTegic.value.DoubleValue
2.602

@<SCITEGIC>MOL_PROPERTY
Coulomb
SciTegic.value.DoubleValue
45.581

@<SCITEGIC>MOL_PROPERTY
VdW
SciTegic.value.DoubleValue
0.592

@<SCITEGIC>MOL_PROPERTY
VdW6
SciTegic.value.DoubleValue
-6.616

@<SCITEGIC>MOL_PROPERTY
VdW12
SciTegic.value.DoubleValue
7.208

@<SCITEGIC>MOL_PROPERTY
Bond
SciTegic.value.DoubleValue
0.196

@<SCITEGIC>MOL_PROPERTY
Angle
SciTegic.value.DoubleValue
0.832

@<SCITEGIC>MOL_PROPERTY
Pdih
SciTegic.value.DoubleValue
1.574

@<SCITEGIC>MOL_PROPERTY
Idih
SciTegic.value.DoubleValue
0.000

@<SCITEGIC>MOL_PROPERTY
Tether
SciTegic.value.DoubleValue
0.000

@<TRIPOS>MOLECULE
guest-2_confgen4.mol2 : confsearch ligand conformer 447
          23          22           1
SMALL
USER_CHARGES
 
@<TRIPOS>ATOM
       1    N1      18.078336   20.182541   22.525118 N.4        1 MOL1        -0.5940
       2    H1      18.952733   20.133012   23.057703 H          1 MOL1         0.3649
       3    H2      17.318210   20.339409   23.195868 H          1 MOL1         0.3649
       4    H3      18.128861   21.016304   21.930726 H          1 MOL1         0.3649
       5    C1      17.857603   18.924052   21.708329 C.3        1 MOL1         0.0207
       6    H4      16.913643   19.053066   21.171855 H          1 MOL1         0.0950
       7    H5      17.746439   18.077931   22.391593 H          1 MOL1         0.0950
       8    C2      18.979069   18.632084   20.690593 C.3        1 MOL1        -0.1415
       9    H6      18.561241   17.980894   19.911356 H          1 MOL1         0.0976
      10    H7      19.267925   19.560505   20.180231 H          1 MOL1         0.0976
      11    C3      20.234887   17.928841   21.272384 C.3        1 MOL1        -0.1375
      12    H8      20.919488   17.734056   20.435195 H          1 MOL1         0.0976
      13    H9      19.962531   16.939246   21.664804 H          1 MOL1         0.0976
      14    C4      21.008375   18.735171   22.347005 C.3        1 MOL1        -0.1375
      15    H10     22.082980   18.542243   22.221537 H          1 MOL1         0.0976
      16    H11     20.880242   19.812528   22.177865 H          1 MOL1         0.0976
      17    C5      20.622206   18.347270   23.795282 C.3        1 MOL1        -0.1350
      18    H12     20.919240   17.305716   23.982552 H          1 MOL1         0.0976
      19    H13     19.535495   18.381270   23.937337 H          1 MOL1         0.0976
      20    C6      21.305093   19.263301   24.832770 C.3        1 MOL1        -0.2365
      21    H14     22.398288   19.207458   24.748068 H          1 MOL1         0.0987
      22    H15     21.031784   18.964199   25.853073 H          1 MOL1         0.0987
      23    H16     21.006135   20.310742   24.697647 H          1 MOL1         0.0987
@<TRIPOS>BOND
    1     1     2    1
    2     1     3    1
    3     1     4    1
    4     1     5    1
    5     5     6    1
    6     5     7    1
    7     5     8    1
    8     8     9    1
    9     8    10    1
   10     8    11    1
   11    11    12    1
   12    11    13    1
   13    11    14    1
   14    14    15    1
   15    14    16    1
   16    14    17    1
   17    17    18    1
   18    17    19    1
   19    17    20    1
   20    20    21    1
   21    20    22    1
   22    20    23    1
@<TRIPOS>SUBSTRUCTURE
       1 MOL1            1 RESIDUE      1      MOL     
@<SCITEGIC>MOL_PROPERTY
VConf Rank
SciTegic.value.IntegerValue
447

@<SCITEGIC>MOL_PROPERTY
Conf_Id
SciTegic.value.IntegerValue
82

@<SCITEGIC>MOL_PROPERTY
Delta U+W
SciTegic.value.DoubleValue
5.994

@<SCITEGIC>MOL_PROPERTY
U+W
SciTegic.value.DoubleValue
-2.388

@<SCITEGIC>MOL_PROPERTY
Grad RMS
SciTegic.value.DoubleValue
0.000000

@<SCITEGIC>MOL_PROPERTY
U
SciTegic.value.DoubleValue
52.836

@<SCITEGIC>MOL_PROPERTY
W
SciTegic.value.DoubleValue
-55.224

@<SCITEGIC>MOL_PROPERTY
W(PB)
SciTegic.value.DoubleValue
-57.261

@<SCITEGIC>MOL_PROPERTY
W(SA)
SciTegic.value.DoubleValue
2.037

@<SCITEGIC>MOL_PROPERTY
Valence
SciTegic.value.DoubleValue
5.785

@<SCITEGIC>MOL_PROPERTY
Coulomb
SciTegic.value.DoubleValue
46.744

@<SCITEGIC>MOL_PROPERTY
VdW
SciTegic.value.DoubleValue
0.307

@<SCITEGIC>MOL_PROPERTY
VdW6
SciTegic.value.DoubleValue
-7.672

@<SCITEGIC>MOL_PROPERTY
VdW12
SciTegic.value.DoubleValue
7.979

@<SCITEGIC>MOL_PROPERTY
Bond
SciTegic.value.DoubleValue
0.217

@<SCITEGIC>MOL_PROPERTY
Angle
SciTegic.value.DoubleValue
1.470

@<SCITEGIC>MOL_PROPERTY
Pdih
SciTegic.value.DoubleValue
4.098

@<SCITEGIC>MOL_PROPERTY
Idih
SciTegic.value.DoubleValue
0.000

@<SCITEGIC>MOL_PROPERTY
Tether
SciTegic.value.DoubleValue
0.000

@<TRIPOS>MOLECULE
guest-2_confgen4.mol2 : confsearch ligand conformer 448
          23          22           1
SMALL
USER_CHARGES
 
@<TRIPOS>ATOM
       1    N1      18.388736   17.805559   23.410236 N.4        1 MOL1        -0.5940
       2    H1      17.599812   17.532690   22.815126 H          1 MOL1         0.3649
       3    H2      18.393158   17.166052   24.212304 H          1 MOL1         0.3649
       4    H3      19.247434   17.635513   22.876946 H          1 MOL1         0.3649
       5    C1      18.287585   19.254517   23.846061 C.3        1 MOL1         0.0207
       6    H4      19.113709   19.473853   24.527631 H          1 MOL1         0.0950
       7    H5      17.352239   19.355814   24.403175 H          1 MOL1         0.0950
       8    C2      18.289654   20.262273   22.678524 C.3        1 MOL1        -0.1415
       9    H6      17.640259   19.896933   21.871874 H          1 MOL1         0.0976
      10    H7      17.825523   21.190297   23.037958 H          1 MOL1         0.0976
      11    C3      19.691287   20.620849   22.115530 C.3        1 MOL1        -0.1375
      12    H8      20.294469   21.108649   22.893793 H          1 MOL1         0.0976
      13    H9      19.547133   21.381973   21.336162 H          1 MOL1         0.0976
      14    C4      20.477845   19.439167   21.492459 C.3        1 MOL1        -0.1375
      15    H10     19.782244   18.690713   21.090364 H          1 MOL1         0.0976
      16    H11     21.041850   19.813428   20.626685 H          1 MOL1         0.0976
      17    C5      21.486858   18.793869   22.473574 C.3        1 MOL1        -0.1350
      18    H12     21.003361   18.531070   23.421968 H          1 MOL1         0.0976
      19    H13     22.266845   19.526500   22.724586 H          1 MOL1         0.0976
      20    C6      22.147729   17.537496   21.868098 C.3        1 MOL1        -0.2365
      21    H14     21.400975   16.767836   21.634111 H          1 MOL1         0.0987
      22    H15     22.870207   17.102804   22.571125 H          1 MOL1         0.0987
      23    H16     22.685527   17.782732   20.942894 H          1 MOL1         0.0987
@<TRIPOS>BOND
    1     1     2    1
    2     1     3    1
    3     1     4    1
    4     1     5    1
    5     5     6    1
    6     5     7    1
    7     5     8    1
    8     8     9    1
    9     8    10    1
   10     8    11    1
   11    11    12    1
   12    11    13    1
   13    11    14    1
   14    14    15    1
   15    14    16    1
   16    14    17    1
   17    17    18    1
   18    17    19    1
   19    17    20    1
   20    20    21    1
   21    20    22    1
   22    20    23    1
@<TRIPOS>SUBSTRUCTURE
       1 MOL1            1 RESIDUE      1      MOL     
@<SCITEGIC>MOL_PROPERTY
VConf Rank
SciTegic.value.IntegerValue
448

@<SCITEGIC>MOL_PROPERTY
Conf_Id
SciTegic.value.IntegerValue
5

@<SCITEGIC>MOL_PROPERTY
Delta U+W
SciTegic.value.DoubleValue
6.087

@<SCITEGIC>MOL_PROPERTY
U+W
SciTegic.value.DoubleValue
-2.295

@<SCITEGIC>MOL_PROPERTY
Grad RMS
SciTegic.value.DoubleValue
0.000000

@<SCITEGIC>MOL_PROPERTY
U
SciTegic.value.DoubleValue
52.836

@<SCITEGIC>MOL_PROPERTY
W
SciTegic.value.DoubleValue
-55.131

@<SCITEGIC>MOL_PROPERTY
W(PB)
SciTegic.value.DoubleValue
-57.202

@<SCITEGIC>MOL_PROPERTY
W(SA)
SciTegic.value.DoubleValue
2.071

@<SCITEGIC>MOL_PROPERTY
Valence
SciTegic.value.DoubleValue
5.785

@<SCITEGIC>MOL_PROPERTY
Coulomb
SciTegic.value.DoubleValue
46.744

@<SCITEGIC>MOL_PROPERTY
VdW
SciTegic.value.DoubleValue
0.307

@<SCITEGIC>MOL_PROPERTY
VdW6
SciTegic.value.DoubleValue
-7.672

@<SCITEGIC>MOL_PROPERTY
VdW12
SciTegic.value.DoubleValue
7.980

@<SCITEGIC>MOL_PROPERTY
Bond
SciTegic.value.DoubleValue
0.217

@<SCITEGIC>MOL_PROPERTY
Angle
SciTegic.value.DoubleValue
1.470

@<SCITEGIC>MOL_PROPERTY
Pdih
SciTegic.value.DoubleValue
4.098

@<SCITEGIC>MOL_PROPERTY
Idih
SciTegic.value.DoubleValue
0.000

@<SCITEGIC>MOL_PROPERTY
Tether
SciTegic.value.DoubleValue
0.000

@<TRIPOS>MOLECULE
guest-2_confgen4.mol2 : confsearch ligand conformer 449
          23          22           1
SMALL
USER_CHARGES
 
@<TRIPOS>ATOM
       1    N1      21.176958   22.166252   24.280135 N.4        1 MOL1        -0.5940
       2    H1      22.052604   22.198587   23.748080 H          1 MOL1         0.3649
       3    H2      21.383551   22.531169   25.216217 H          1 MOL1         0.3649
       4    H3      20.531023   22.828434   23.838357 H          1 MOL1         0.3649
       5    C1      20.600693   20.766024   24.336489 C.3        1 MOL1         0.0207
       6    H4      19.689833   20.799993   24.940373 H          1 MOL1         0.0950
       7    H5      21.325320   20.123009   24.843385 H          1 MOL1         0.0950
       8    C2      20.279401   20.188981   22.946391 C.3        1 MOL1        -0.1415
       9    H6      19.563883   20.846509   22.434736 H          1 MOL1         0.0976
      10    H7      21.193589   20.172019   22.338057 H          1 MOL1         0.0976
      11    C3      19.695072   18.762613   23.047476 C.3        1 MOL1        -0.1375
      12    H8      18.783631   18.782957   23.661205 H          1 MOL1         0.0976
      13    H9      20.411623   18.109191   23.564581 H          1 MOL1         0.0976
      14    C4      19.368532   18.173087   21.656493 C.3        1 MOL1        -0.1375
      15    H10     18.651958   18.826249   21.139373 H          1 MOL1         0.0976
      16    H11     20.279777   18.152659   21.042711 H          1 MOL1         0.0976
      17    C5      18.784249   16.746525   21.757948 C.3        1 MOL1        -0.1350
      18    H12     17.870916   16.762064   22.369140 H          1 MOL1         0.0976
      19    H13     19.498594   16.088536   22.272472 H          1 MOL1         0.0976
      20    C6      18.459441   16.161198   20.367121 C.3        1 MOL1        -0.2365
      21    H14     18.045890   15.148547   20.459645 H          1 MOL1         0.0987
      22    H15     19.361083   16.101109   19.743694 H          1 MOL1         0.0987
      23    H16     17.720709   16.779915   19.841105 H          1 MOL1         0.0987
@<TRIPOS>BOND
    1     1     2    1
    2     1     3    1
    3     1     4    1
    4     1     5    1
    5     5     6    1
    6     5     7    1
    7     5     8    1
    8     8     9    1
    9     8    10    1
   10     8    11    1
   11    11    12    1
   12    11    13    1
   13    11    14    1
   14    14    15    1
   15    14    16    1
   16    14    17    1
   17    17    18    1
   18    17    19    1
   19    17    20    1
   20    20    21    1
   21    20    22    1
   22    20    23    1
@<TRIPOS>SUBSTRUCTURE
       1 MOL1            1 RESIDUE      1      MOL     
@<SCITEGIC>MOL_PROPERTY
VConf Rank
SciTegic.value.IntegerValue
449

@<SCITEGIC>MOL_PROPERTY
Conf_Id
SciTegic.value.IntegerValue
40

@<SCITEGIC>MOL_PROPERTY
Delta U+W
SciTegic.value.DoubleValue
0.000

@<SCITEGIC>MOL_PROPERTY
U+W
SciTegic.value.DoubleValue
-8.382

@<SCITEGIC>MOL_PROPERTY
Grad RMS
SciTegic.value.DoubleValue
0.000000

@<SCITEGIC>MOL_PROPERTY
U
SciTegic.value.DoubleValue
46.604

@<SCITEGIC>MOL_PROPERTY
W
SciTegic.value.DoubleValue
-54.986

@<SCITEGIC>MOL_PROPERTY
W(PB)
SciTegic.value.DoubleValue
-57.162

@<SCITEGIC>MOL_PROPERTY
W(SA)
SciTegic.value.DoubleValue
2.176

@<SCITEGIC>MOL_PROPERTY
Valence
SciTegic.value.DoubleValue
1.727

@<SCITEGIC>MOL_PROPERTY
Coulomb
SciTegic.value.DoubleValue
44.434

@<SCITEGIC>MOL_PROPERTY
VdW
SciTegic.value.DoubleValue
0.443

@<SCITEGIC>MOL_PROPERTY
VdW6
SciTegic.value.DoubleValue
-4.623

@<SCITEGIC>MOL_PROPERTY
VdW12
SciTegic.value.DoubleValue
5.066

@<SCITEGIC>MOL_PROPERTY
Bond
SciTegic.value.DoubleValue
0.112

@<SCITEGIC>MOL_PROPERTY
Angle
SciTegic.value.DoubleValue
0.386

@<SCITEGIC>MOL_PROPERTY
Pdih
SciTegic.value.DoubleValue
1.228

@<SCITEGIC>MOL_PROPERTY
Idih
SciTegic.value.DoubleValue
0.000

@<SCITEGIC>MOL_PROPERTY
Tether
SciTegic.value.DoubleValue
0.000

@<TRIPOS>MOLECULE
guest-2_confgen4.mol2 : confsearch ligand conformer 450
          23          22           1
SMALL
USER_CHARGES
 
@<TRIPOS>ATOM
       1    N1      19.451975   19.964257   19.177403 N.4        1 MOL1        -0.5940
       2    H1      20.370245   20.200656   18.787869 H          1 MOL1         0.3649
       3    H2      18.955151   20.846917   19.335227 H          1 MOL1         0.3649
       4    H3      18.939071   19.460142   18.446084 H          1 MOL1         0.3649
       5    C1      19.570078   19.146841   20.447705 C.3        1 MOL1         0.0207
       6    H4      20.081534   18.212411   20.201404 H          1 MOL1         0.0950
       7    H5      18.559062   18.906973   20.786567 H          1 MOL1         0.0950
       8    C2      20.336677   19.877697   21.566323 C.3        1 MOL1        -0.1415
       9    H6      21.332620   20.154059   21.195285 H          1 MOL1         0.0976
      10    H7      19.822728   20.815786   21.814977 H          1 MOL1         0.0976
      11    C3      20.498579   19.019157   22.843162 C.3        1 MOL1        -0.1375
      12    H8      21.147920   19.562343   23.541923 H          1 MOL1         0.0976
      13    H9      21.021614   18.085742   22.593078 H          1 MOL1         0.0976
      14    C4      19.148998   18.694548   23.532970 C.3        1 MOL1        -0.1375
      15    H10     18.636073   19.628370   23.801498 H          1 MOL1         0.0976
      16    H11     18.490868   18.173071   22.825558 H          1 MOL1         0.0976
      17    C5      19.298983   17.807863   24.793057 C.3        1 MOL1        -0.1350
      18    H12     19.802259   16.867427   24.528305 H          1 MOL1         0.0976
      19    H13     18.296964   17.529976   25.148882 H          1 MOL1         0.0976
      20    C6      20.061034   18.499049   25.946717 C.3        1 MOL1        -0.2365
      21    H14     21.109812   18.684594   25.684239 H          1 MOL1         0.0987
      22    H15     20.053507   17.867267   26.844348 H          1 MOL1         0.0987
      23    H16     19.596244   19.458528   26.208216 H          1 MOL1         0.0987
@<TRIPOS>BOND
    1     1     2    1
    2     1     3    1
    3     1     4    1
    4     1     5    1
    5     5     6    1
    6     5     7    1
    7     5     8    1
    8     8     9    1
    9     8    10    1
   10     8    11    1
   11    11    12    1
   12    11    13    1
   13    11    14    1
   14    14    15    1
   15    14    16    1
   16    14    17    1
   17    17    18    1
   18    17    19    1
   19    17    20    1
   20    20    21    1
   21    20    22    1
   22    20    23    1
@<TRIPOS>SUBSTRUCTURE
       1 MOL1            1 RESIDUE      1      MOL     
@<SCITEGIC>MOL_PROPERTY
VConf Rank
SciTegic.value.IntegerValue
450

@<SCITEGIC>MOL_PROPERTY
Conf_Id
SciTegic.value.IntegerValue
65

@<SCITEGIC>MOL_PROPERTY
Delta U+W
SciTegic.value.DoubleValue
1.004

@<SCITEGIC>MOL_PROPERTY
U+W
SciTegic.value.DoubleValue
-7.378

@<SCITEGIC>MOL_PROPERTY
Grad RMS
SciTegic.value.DoubleValue
0.000000

@<SCITEGIC>MOL_PROPERTY
U
SciTegic.value.DoubleValue
48.047

@<SCITEGIC>MOL_PROPERTY
W
SciTegic.value.DoubleValue
-55.425

@<SCITEGIC>MOL_PROPERTY
W(PB)
SciTegic.value.DoubleValue
-57.542

@<SCITEGIC>MOL_PROPERTY
W(SA)
SciTegic.value.DoubleValue
2.116

@<SCITEGIC>MOL_PROPERTY
Valence
SciTegic.value.DoubleValue
2.583

@<SCITEGIC>MOL_PROPERTY
Coulomb
SciTegic.value.DoubleValue
44.791

@<SCITEGIC>MOL_PROPERTY
VdW
SciTegic.value.DoubleValue
0.673

@<SCITEGIC>MOL_PROPERTY
VdW6
SciTegic.value.DoubleValue
-5.788

@<SCITEGIC>MOL_PROPERTY
VdW12
SciTegic.value.DoubleValue
6.462

@<SCITEGIC>MOL_PROPERTY
Bond
SciTegic.value.DoubleValue
0.177

@<SCITEGIC>MOL_PROPERTY
Angle
SciTegic.value.DoubleValue
0.787

@<SCITEGIC>MOL_PROPERTY
Pdih
SciTegic.value.DoubleValue
1.619

@<SCITEGIC>MOL_PROPERTY
Idih
SciTegic.value.DoubleValue
0.000

@<SCITEGIC>MOL_PROPERTY
Tether
SciTegic.value.DoubleValue
0.000

@<TRIPOS>MOLECULE
guest-2_confgen4.mol2 : confsearch ligand conformer 451
          23          22           1
SMALL
USER_CHARGES
 
@<TRIPOS>ATOM
       1    N1      17.758262   20.944237   20.364980 N.4        1 MOL1        -0.5940
       2    H1      16.797444   21.012653   20.715674 H          1 MOL1         0.3649
       3    H2      17.696589   20.832664   19.347249 H          1 MOL1         0.3649
       4    H3      18.207764   21.848986   20.538790 H          1 MOL1         0.3649
       5    C1      18.516249   19.802713   21.011628 C.3        1 MOL1         0.0207
       6    H4      19.515329   19.771477   20.569605 H          1 MOL1         0.0950
       7    H5      18.000363   18.871345   20.762981 H          1 MOL1         0.0950
       8    C2      18.625822   19.941583   22.541936 C.3        1 MOL1        -0.1415
       9    H6      19.144980   20.876356   22.792254 H          1 MOL1         0.0976
      10    H7      17.616206   20.019587   22.966832 H          1 MOL1         0.0976
      11    C3      19.356097   18.748202   23.202357 C.3        1 MOL1        -0.1375
      12    H8      18.828823   17.815579   22.958293 H          1 MOL1         0.0976
      13    H9      19.291406   18.866543   24.291748 H          1 MOL1         0.0976
      14    C4      20.842929   18.635333   22.779075 C.3        1 MOL1        -0.1375
      15    H10     20.907972   18.541796   21.687047 H          1 MOL1         0.0976
      16    H11     21.374353   19.560289   23.042257 H          1 MOL1         0.0976
      17    C5      21.572524   17.424232   23.409508 C.3        1 MOL1        -0.1350
      18    H12     22.576971   17.350750   22.969554 H          1 MOL1         0.0976
      19    H13     21.051149   16.494855   23.140758 H          1 MOL1         0.0976
      20    C6      21.709765   17.518234   24.946295 C.3        1 MOL1        -0.2365
      21    H14     20.733098   17.467462   25.443085 H          1 MOL1         0.0987
      22    H15     22.198910   18.455204   25.242665 H          1 MOL1         0.0987
      23    H16     22.316886   16.687573   25.328855 H          1 MOL1         0.0987
@<TRIPOS>BOND
    1     1     2    1
    2     1     3    1
    3     1     4    1
    4     1     5    1
    5     5     6    1
    6     5     7    1
    7     5     8    1
    8     8     9    1
    9     8    10    1
   10     8    11    1
   11    11    12    1
   12    11    13    1
   13    11    14    1
   14    14    15    1
   15    14    16    1
   16    14    17    1
   17    17    18    1
   18    17    19    1
   19    17    20    1
   20    20    21    1
   21    20    22    1
   22    20    23    1
@<TRIPOS>SUBSTRUCTURE
       1 MOL1            1 RESIDUE      1      MOL     
@<SCITEGIC>MOL_PROPERTY
VConf Rank
SciTegic.value.IntegerValue
451

@<SCITEGIC>MOL_PROPERTY
Conf_Id
SciTegic.value.IntegerValue
92

@<SCITEGIC>MOL_PROPERTY
Delta U+W
SciTegic.value.DoubleValue
0.973

@<SCITEGIC>MOL_PROPERTY
U+W
SciTegic.value.DoubleValue
-7.409

@<SCITEGIC>MOL_PROPERTY
Grad RMS
SciTegic.value.DoubleValue
0.000000

@<SCITEGIC>MOL_PROPERTY
U
SciTegic.value.DoubleValue
48.047

@<SCITEGIC>MOL_PROPERTY
W
SciTegic.value.DoubleValue
-55.456

@<SCITEGIC>MOL_PROPERTY
W(PB)
SciTegic.value.DoubleValue
-57.595

@<SCITEGIC>MOL_PROPERTY
W(SA)
SciTegic.value.DoubleValue
2.138

@<SCITEGIC>MOL_PROPERTY
Valence
SciTegic.value.DoubleValue
2.583

@<SCITEGIC>MOL_PROPERTY
Coulomb
SciTegic.value.DoubleValue
44.791

@<SCITEGIC>MOL_PROPERTY
VdW
SciTegic.value.DoubleValue
0.674

@<SCITEGIC>MOL_PROPERTY
VdW6
SciTegic.value.DoubleValue
-5.789

@<SCITEGIC>MOL_PROPERTY
VdW12
SciTegic.value.DoubleValue
6.462

@<SCITEGIC>MOL_PROPERTY
Bond
SciTegic.value.DoubleValue
0.177

@<SCITEGIC>MOL_PROPERTY
Angle
SciTegic.value.DoubleValue
0.787

@<SCITEGIC>MOL_PROPERTY
Pdih
SciTegic.value.DoubleValue
1.619

@<SCITEGIC>MOL_PROPERTY
Idih
SciTegic.value.DoubleValue
0.000

@<SCITEGIC>MOL_PROPERTY
Tether
SciTegic.value.DoubleValue
0.000

@<TRIPOS>MOLECULE
guest-2_confgen4.mol2 : confsearch ligand conformer 452
          23          22           1
SMALL
USER_CHARGES
 
@<TRIPOS>ATOM
       1    N1      20.289522   20.744571   25.608857 N.4        1 MOL1        -0.5940
       2    H1      20.754346   20.303354   26.409668 H          1 MOL1         0.3649
       3    H2      19.489334   21.266930   25.979927 H          1 MOL1         0.3649
       4    H3      20.946141   21.431714   25.224766 H          1 MOL1         0.3649
       5    C1      19.866844   19.724684   24.571095 C.3        1 MOL1         0.0207
       6    H4      19.194037   19.010766   25.053868 H          1 MOL1         0.0950
       7    H5      20.761445   19.188136   24.244753 H          1 MOL1         0.0950
       8    C2      19.164763   20.357046   23.354519 C.3        1 MOL1        -0.1415
       9    H6      18.293872   20.929522   23.700592 H          1 MOL1         0.0976
      10    H7      19.840302   21.074712   22.870166 H          1 MOL1         0.0976
      11    C3      18.695800   19.305562   22.321326 C.3        1 MOL1        -0.1375
      12    H8      18.125722   19.816420   21.532982 H          1 MOL1         0.0976
      13    H9      18.000046   18.604104   22.802503 H          1 MOL1         0.0976
      14    C4      19.865050   18.522326   21.677230 C.3        1 MOL1        -0.1375
      15    H10     20.575634   19.228553   21.225862 H          1 MOL1         0.0976
      16    H11     20.414998   17.966742   22.448554 H          1 MOL1         0.0976
      17    C5      19.368246   17.533787   20.598923 C.3        1 MOL1        -0.1350
      18    H12     18.823079   18.080402   19.816641 H          1 MOL1         0.0976
      19    H13     18.656321   16.825175   21.045029 H          1 MOL1         0.0976
      20    C6      20.534978   16.752249   19.958223 C.3        1 MOL1        -0.2365
      21    H14     21.247385   17.432952   19.474130 H          1 MOL1         0.0987
      22    H15     20.162636   16.056270   19.195320 H          1 MOL1         0.0987
      23    H16     21.078897   16.167053   20.711163 H          1 MOL1         0.0987
@<TRIPOS>BOND
    1     1     2    1
    2     1     3    1
    3     1     4    1
    4     1     5    1
    5     5     6    1
    6     5     7    1
    7     5     8    1
    8     8     9    1
    9     8    10    1
   10     8    11    1
   11    11    12    1
   12    11    13    1
   13    11    14    1
   14    14    15    1
   15    14    16    1
   16    14    17    1
   17    17    18    1
   18    17    19    1
   19    17    20    1
   20    20    21    1
   21    20    22    1
   22    20    23    1
@<TRIPOS>SUBSTRUCTURE
       1 MOL1            1 RESIDUE      1      MOL     
@<SCITEGIC>MOL_PROPERTY
VConf Rank
SciTegic.value.IntegerValue
452

@<SCITEGIC>MOL_PROPERTY
Conf_Id
SciTegic.value.IntegerValue
42

@<SCITEGIC>MOL_PROPERTY
Delta U+W
SciTegic.value.DoubleValue
0.365

@<SCITEGIC>MOL_PROPERTY
U+W
SciTegic.value.DoubleValue
-8.017

@<SCITEGIC>MOL_PROPERTY
Grad RMS
SciTegic.value.DoubleValue
0.000000

@<SCITEGIC>MOL_PROPERTY
U
SciTegic.value.DoubleValue
47.375

@<SCITEGIC>MOL_PROPERTY
W
SciTegic.value.DoubleValue
-55.392

@<SCITEGIC>MOL_PROPERTY
W(PB)
SciTegic.value.DoubleValue
-57.543

@<SCITEGIC>MOL_PROPERTY
W(SA)
SciTegic.value.DoubleValue
2.152

@<SCITEGIC>MOL_PROPERTY
Valence
SciTegic.value.DoubleValue
2.032

@<SCITEGIC>MOL_PROPERTY
Coulomb
SciTegic.value.DoubleValue
44.843

@<SCITEGIC>MOL_PROPERTY
VdW
SciTegic.value.DoubleValue
0.499

@<SCITEGIC>MOL_PROPERTY
VdW6
SciTegic.value.DoubleValue
-5.218

@<SCITEGIC>MOL_PROPERTY
VdW12
SciTegic.value.DoubleValue
5.717

@<SCITEGIC>MOL_PROPERTY
Bond
SciTegic.value.DoubleValue
0.135

@<SCITEGIC>MOL_PROPERTY
Angle
SciTegic.value.DoubleValue
0.514

@<SCITEGIC>MOL_PROPERTY
Pdih
SciTegic.value.DoubleValue
1.383

@<SCITEGIC>MOL_PROPERTY
Idih
SciTegic.value.DoubleValue
0.000

@<SCITEGIC>MOL_PROPERTY
Tether
SciTegic.value.DoubleValue
0.000

@<TRIPOS>MOLECULE
guest-2_confgen4.mol2 : confsearch ligand conformer 453
          23          22           1
SMALL
USER_CHARGES
 
@<TRIPOS>ATOM
       1    N1      18.907482   16.317553   21.121977 N.4        1 MOL1        -0.5940
       2    H1      19.860972   16.126305   20.798073 H          1 MOL1         0.3649
       3    H2      18.278072   15.736952   20.557447 H          1 MOL1         0.3649
       4    H3      18.841696   15.979005   22.086580 H          1 MOL1         0.3649
       5    C1      18.560767   17.790027   21.016187 C.3        1 MOL1         0.0207
       6    H4      17.528811   17.921640   21.352590 H          1 MOL1         0.0950
       7    H5      18.611920   18.065884   19.959372 H          1 MOL1         0.0950
       8    C2      19.492879   18.710184   21.828412 C.3        1 MOL1        -0.1415
       9    H6      20.531719   18.556138   21.507895 H          1 MOL1         0.0976
      10    H7      19.233382   19.748003   21.586106 H          1 MOL1         0.0976
      11    C3      19.367321   18.491597   23.355914 C.3        1 MOL1        -0.1375
      12    H8      19.524833   17.429976   23.587175 H          1 MOL1         0.0976
      13    H9      18.341524   18.724462   23.673596 H          1 MOL1         0.0976
      14    C4      20.368740   19.317550   24.204453 C.3        1 MOL1        -0.1375
      15    H10     20.212318   19.044869   25.257384 H          1 MOL1         0.0976
      16    H11     21.399341   19.015946   23.971816 H          1 MOL1         0.0976
      17    C5      20.218406   20.855672   24.077876 C.3        1 MOL1        -0.1350
      18    H12     20.425923   21.309423   25.057171 H          1 MOL1         0.0976
      19    H13     19.179208   21.119931   23.837390 H          1 MOL1         0.0976
      20    C6      21.185935   21.484157   23.047753 C.3        1 MOL1        -0.2365
      21    H14     22.230720   21.288947   23.322300 H          1 MOL1         0.0987
      22    H15     21.050501   22.572742   23.008305 H          1 MOL1         0.0987
      23    H16     21.024786   21.092861   22.037289 H          1 MOL1         0.0987
@<TRIPOS>BOND
    1     1     2    1
    2     1     3    1
    3     1     4    1
    4     1     5    1
    5     5     6    1
    6     5     7    1
    7     5     8    1
    8     8     9    1
    9     8    10    1
   10     8    11    1
   11    11    12    1
   12    11    13    1
   13    11    14    1
   14    14    15    1
   15    14    16    1
   16    14    17    1
   17    17    18    1
   18    17    19    1
   19    17    20    1
   20    20    21    1
   21    20    22    1
   22    20    23    1
@<TRIPOS>SUBSTRUCTURE
       1 MOL1            1 RESIDUE      1      MOL     
@<SCITEGIC>MOL_PROPERTY
VConf Rank
SciTegic.value.IntegerValue
453

@<SCITEGIC>MOL_PROPERTY
Conf_Id
SciTegic.value.IntegerValue
3

@<SCITEGIC>MOL_PROPERTY
Delta U+W
SciTegic.value.DoubleValue
3.283

@<SCITEGIC>MOL_PROPERTY
U+W
SciTegic.value.DoubleValue
-5.099

@<SCITEGIC>MOL_PROPERTY
Grad RMS
SciTegic.value.DoubleValue
0.000000

@<SCITEGIC>MOL_PROPERTY
U
SciTegic.value.DoubleValue
50.701

@<SCITEGIC>MOL_PROPERTY
W
SciTegic.value.DoubleValue
-55.800

@<SCITEGIC>MOL_PROPERTY
W(PB)
SciTegic.value.DoubleValue
-57.867

@<SCITEGIC>MOL_PROPERTY
W(SA)
SciTegic.value.DoubleValue
2.067

@<SCITEGIC>MOL_PROPERTY
Valence
SciTegic.value.DoubleValue
4.880

@<SCITEGIC>MOL_PROPERTY
Coulomb
SciTegic.value.DoubleValue
45.095

@<SCITEGIC>MOL_PROPERTY
VdW
SciTegic.value.DoubleValue
0.726

@<SCITEGIC>MOL_PROPERTY
VdW6
SciTegic.value.DoubleValue
-6.620

@<SCITEGIC>MOL_PROPERTY
VdW12
SciTegic.value.DoubleValue
7.346

@<SCITEGIC>MOL_PROPERTY
Bond
SciTegic.value.DoubleValue
0.222

@<SCITEGIC>MOL_PROPERTY
Angle
SciTegic.value.DoubleValue
1.260

@<SCITEGIC>MOL_PROPERTY
Pdih
SciTegic.value.DoubleValue
3.398

@<SCITEGIC>MOL_PROPERTY
Idih
SciTegic.value.DoubleValue
0.000

@<SCITEGIC>MOL_PROPERTY
Tether
SciTegic.value.DoubleValue
0.000

@<TRIPOS>MOLECULE
guest-2_confgen4.mol2 : confsearch ligand conformer 454
          23          22           1
SMALL
USER_CHARGES
 
@<TRIPOS>ATOM
       1    N1      16.906180   18.904066   22.845129 N.4        1 MOL1        -0.5940
       2    H1      16.593542   18.168015   23.486254 H          1 MOL1         0.3649
       3    H2      16.066192   19.394833   22.520470 H          1 MOL1         0.3649
       4    H3      17.452201   19.573874   23.395418 H          1 MOL1         0.3649
       5    C1      17.711176   18.340626   21.690656 C.3        1 MOL1         0.0207
       6    H4      17.985609   19.168804   21.032402 H          1 MOL1         0.0950
       7    H5      17.060052   17.664547   21.129870 H          1 MOL1         0.0950
       8    C2      18.978904   17.580398   22.131329 C.3        1 MOL1        -0.1415
       9    H6      18.684402   16.721673   22.749119 H          1 MOL1         0.0976
      10    H7      19.466687   17.162695   21.240570 H          1 MOL1         0.0976
      11    C3      19.999096   18.446231   22.913116 C.3        1 MOL1        -0.1375
      12    H8      20.835255   17.800349   23.210685 H          1 MOL1         0.0976
      13    H9      19.545735   18.808081   23.845466 H          1 MOL1         0.0976
      14    C4      20.537600   19.645276   22.091694 C.3        1 MOL1        -0.1375
      15    H10     21.015432   19.279492   21.172429 H          1 MOL1         0.0976
      16    H11     19.699569   20.278900   21.772980 H          1 MOL1         0.0976
      17    C5      21.537114   20.529879   22.875846 C.3        1 MOL1        -0.1350
      18    H12     21.060898   20.907693   23.791379 H          1 MOL1         0.0976
      19    H13     21.776817   21.413386   22.267716 H          1 MOL1         0.0976
      20    C6      22.853286   19.803540   23.235662 C.3        1 MOL1        -0.2365
      21    H14     23.332363   19.387302   22.339985 H          1 MOL1         0.0987
      22    H15     22.682257   18.985672   23.946357 H          1 MOL1         0.0987
      23    H16     23.561594   20.501033   23.701213 H          1 MOL1         0.0987
@<TRIPOS>BOND
    1     1     2    1
    2     1     3    1
    3     1     4    1
    4     1     5    1
    5     5     6    1
    6     5     7    1
    7     5     8    1
    8     8     9    1
    9     8    10    1
   10     8    11    1
   11    11    12    1
   12    11    13    1
   13    11    14    1
   14    14    15    1
   15    14    16    1
   16    14    17    1
   17    17    18    1
   18    17    19    1
   19    17    20    1
   20    20    21    1
   21    20    22    1
   22    20    23    1
@<TRIPOS>SUBSTRUCTURE
       1 MOL1            1 RESIDUE      1      MOL     
@<SCITEGIC>MOL_PROPERTY
VConf Rank
SciTegic.value.IntegerValue
454

@<SCITEGIC>MOL_PROPERTY
Conf_Id
SciTegic.value.IntegerValue
83

@<SCITEGIC>MOL_PROPERTY
Delta U+W
SciTegic.value.DoubleValue
1.229

@<SCITEGIC>MOL_PROPERTY
U+W
SciTegic.value.DoubleValue
-7.154

@<SCITEGIC>MOL_PROPERTY
Grad RMS
SciTegic.value.DoubleValue
0.000000

@<SCITEGIC>MOL_PROPERTY
U
SciTegic.value.DoubleValue
48.727

@<SCITEGIC>MOL_PROPERTY
W
SciTegic.value.DoubleValue
-55.880

@<SCITEGIC>MOL_PROPERTY
W(PB)
SciTegic.value.DoubleValue
-57.960

@<SCITEGIC>MOL_PROPERTY
W(SA)
SciTegic.value.DoubleValue
2.080

@<SCITEGIC>MOL_PROPERTY
Valence
SciTegic.value.DoubleValue
2.671

@<SCITEGIC>MOL_PROPERTY
Coulomb
SciTegic.value.DoubleValue
45.371

@<SCITEGIC>MOL_PROPERTY
VdW
SciTegic.value.DoubleValue
0.684

@<SCITEGIC>MOL_PROPERTY
VdW6
SciTegic.value.DoubleValue
-6.511

@<SCITEGIC>MOL_PROPERTY
VdW12
SciTegic.value.DoubleValue
7.195

@<SCITEGIC>MOL_PROPERTY
Bond
SciTegic.value.DoubleValue
0.203

@<SCITEGIC>MOL_PROPERTY
Angle
SciTegic.value.DoubleValue
0.915

@<SCITEGIC>MOL_PROPERTY
Pdih
SciTegic.value.DoubleValue
1.554

@<SCITEGIC>MOL_PROPERTY
Idih
SciTegic.value.DoubleValue
0.000

@<SCITEGIC>MOL_PROPERTY
Tether
SciTegic.value.DoubleValue
0.000

@<TRIPOS>MOLECULE
guest-2_confgen4.mol2 : confsearch ligand conformer 455
          23          22           1
SMALL
USER_CHARGES
 
@<TRIPOS>ATOM
       1    N1      16.974833   18.878089   23.538069 N.4        1 MOL1        -0.5940
       2    H1      16.582426   19.787707   23.801060 H          1 MOL1         0.3649
       3    H2      17.766126   18.696935   24.163081 H          1 MOL1         0.3649
       4    H3      16.259839   18.172556   23.745052 H          1 MOL1         0.3649
       5    C1      17.393611   18.845445   22.081411 C.3        1 MOL1         0.0207
       6    H4      16.499284   19.010725   21.474462 H          1 MOL1         0.0950
       7    H5      17.772217   17.844453   21.859682 H          1 MOL1         0.0950
       8    C2      18.459247   19.900035   21.718732 C.3        1 MOL1        -0.1415
       9    H6      18.660803   19.840953   20.640890 H          1 MOL1         0.0976
      10    H7      18.046549   20.901761   21.897700 H          1 MOL1         0.0976
      11    C3      19.791521   19.750040   22.496032 C.3        1 MOL1        -0.1375
      12    H8      19.614134   19.883018   23.571485 H          1 MOL1         0.0976
      13    H9      20.456006   20.569314   22.192511 H          1 MOL1         0.0976
      14    C4      20.495114   18.392093   22.244301 C.3        1 MOL1        -0.1375
      15    H10     19.822001   17.571382   22.524847 H          1 MOL1         0.0976
      16    H11     20.696845   18.273032   21.170849 H          1 MOL1         0.0976
      17    C5      21.813245   18.224708   23.038629 C.3        1 MOL1        -0.1350
      18    H12     22.182282   17.199447   22.895399 H          1 MOL1         0.0976
      19    H13     21.615734   18.332139   24.114350 H          1 MOL1         0.0976
      20    C6      22.920919   19.214682   22.611603 C.3        1 MOL1        -0.2365
      21    H14     23.113990   19.150145   21.532915 H          1 MOL1         0.0987
      22    H15     23.859495   18.989108   23.134218 H          1 MOL1         0.0987
      23    H16     22.651718   20.250547   22.851928 H          1 MOL1         0.0987
@<TRIPOS>BOND
    1     1     2    1
    2     1     3    1
    3     1     4    1
    4     1     5    1
    5     5     6    1
    6     5     7    1
    7     5     8    1
    8     8     9    1
    9     8    10    1
   10     8    11    1
   11    11    12    1
   12    11    13    1
   13    11    14    1
   14    14    15    1
   15    14    16    1
   16    14    17    1
   17    17    18    1
   18    17    19    1
   19    17    20    1
   20    20    21    1
   21    20    22    1
   22    20    23    1
@<TRIPOS>SUBSTRUCTURE
       1 MOL1            1 RESIDUE      1      MOL     
@<SCITEGIC>MOL_PROPERTY
VConf Rank
SciTegic.value.IntegerValue
455

@<SCITEGIC>MOL_PROPERTY
Conf_Id
SciTegic.value.IntegerValue
50

@<SCITEGIC>MOL_PROPERTY
Delta U+W
SciTegic.value.DoubleValue
1.252

@<SCITEGIC>MOL_PROPERTY
U+W
SciTegic.value.DoubleValue
-7.130

@<SCITEGIC>MOL_PROPERTY
Grad RMS
SciTegic.value.DoubleValue
0.000000

@<SCITEGIC>MOL_PROPERTY
U
SciTegic.value.DoubleValue
48.727

@<SCITEGIC>MOL_PROPERTY
W
SciTegic.value.DoubleValue
-55.857

@<SCITEGIC>MOL_PROPERTY
W(PB)
SciTegic.value.DoubleValue
-57.937

@<SCITEGIC>MOL_PROPERTY
W(SA)
SciTegic.value.DoubleValue
2.080

@<SCITEGIC>MOL_PROPERTY
Valence
SciTegic.value.DoubleValue
2.671

@<SCITEGIC>MOL_PROPERTY
Coulomb
SciTegic.value.DoubleValue
45.371

@<SCITEGIC>MOL_PROPERTY
VdW
SciTegic.value.DoubleValue
0.684

@<SCITEGIC>MOL_PROPERTY
VdW6
SciTegic.value.DoubleValue
-6.511

@<SCITEGIC>MOL_PROPERTY
VdW12
SciTegic.value.DoubleValue
7.196

@<SCITEGIC>MOL_PROPERTY
Bond
SciTegic.value.DoubleValue
0.203

@<SCITEGIC>MOL_PROPERTY
Angle
SciTegic.value.DoubleValue
0.915

@<SCITEGIC>MOL_PROPERTY
Pdih
SciTegic.value.DoubleValue
1.554

@<SCITEGIC>MOL_PROPERTY
Idih
SciTegic.value.DoubleValue
0.000

@<SCITEGIC>MOL_PROPERTY
Tether
SciTegic.value.DoubleValue
0.000

@<TRIPOS>MOLECULE
guest-2_confgen4.mol2 : confsearch ligand conformer 456
          23          22           1
SMALL
USER_CHARGES
 
@<TRIPOS>ATOM
       1    N1      19.239166   22.150714   22.189618 N.4        1 MOL1        -0.5940
       2    H1      20.096154   22.155890   22.750938 H          1 MOL1         0.3649
       3    H2      18.693134   22.972729   22.469023 H          1 MOL1         0.3649
       4    H3      19.515512   22.293559   21.212964 H          1 MOL1         0.3649
       5    C1      18.454898   20.865777   22.371557 C.3        1 MOL1         0.0207
       6    H4      17.539944   20.949388   21.778732 H          1 MOL1         0.0950
       7    H5      18.172082   20.787032   23.424755 H          1 MOL1         0.0950
       8    C2      19.225175   19.600788   21.945840 C.3        1 MOL1        -0.1415
       9    H6      18.542497   18.746100   22.010052 H          1 MOL1         0.0976
      10    H7      19.511386   19.686922   20.889227 H          1 MOL1         0.0976
      11    C3      20.484550   19.348194   22.813507 C.3        1 MOL1        -0.1375
      12    H8      20.221748   19.355168   23.880392 H          1 MOL1         0.0976
      13    H9      21.182619   20.183066   22.666279 H          1 MOL1         0.0976
      14    C4      21.223457   18.031785   22.456870 C.3        1 MOL1        -0.1375
      15    H10     21.075294   17.786111   21.396264 H          1 MOL1         0.0976
      16    H11     22.302735   18.202949   22.572433 H          1 MOL1         0.0976
      17    C5      20.847465   16.816824   23.343271 C.3        1 MOL1        -0.1350
      18    H12     21.094719   17.035214   24.391577 H          1 MOL1         0.0976
      19    H13     21.478894   15.965303   23.053402 H          1 MOL1         0.0976
      20    C6      19.366375   16.390570   23.244738 C.3        1 MOL1        -0.2365
      21    H14     19.071310   16.221144   22.201154 H          1 MOL1         0.0987
      22    H15     18.703370   17.149760   23.677552 H          1 MOL1         0.0987
      23    H16     19.198755   15.456662   23.796651 H          1 MOL1         0.0987
@<TRIPOS>BOND
    1     1     2    1
    2     1     3    1
    3     1     4    1
    4     1     5    1
    5     5     6    1
    6     5     7    1
    7     5     8    1
    8     8     9    1
    9     8    10    1
   10     8    11    1
   11    11    12    1
   12    11    13    1
   13    11    14    1
   14    14    15    1
   15    14    16    1
   16    14    17    1
   17    17    18    1
   18    17    19    1
   19    17    20    1
   20    20    21    1
   21    20    22    1
   22    20    23    1
@<TRIPOS>SUBSTRUCTURE
       1 MOL1            1 RESIDUE      1      MOL     
@<SCITEGIC>MOL_PROPERTY
VConf Rank
SciTegic.value.IntegerValue
456

@<SCITEGIC>MOL_PROPERTY
Conf_Id
SciTegic.value.IntegerValue
55

@<SCITEGIC>MOL_PROPERTY
Delta U+W
SciTegic.value.DoubleValue
3.232

@<SCITEGIC>MOL_PROPERTY
U+W
SciTegic.value.DoubleValue
-5.150

@<SCITEGIC>MOL_PROPERTY
Grad RMS
SciTegic.value.DoubleValue
0.000000

@<SCITEGIC>MOL_PROPERTY
U
SciTegic.value.DoubleValue
50.625

@<SCITEGIC>MOL_PROPERTY
W
SciTegic.value.DoubleValue
-55.776

@<SCITEGIC>MOL_PROPERTY
W(PB)
SciTegic.value.DoubleValue
-57.839

@<SCITEGIC>MOL_PROPERTY
W(SA)
SciTegic.value.DoubleValue
2.064

@<SCITEGIC>MOL_PROPERTY
Valence
SciTegic.value.DoubleValue
4.837

@<SCITEGIC>MOL_PROPERTY
Coulomb
SciTegic.value.DoubleValue
45.097

@<SCITEGIC>MOL_PROPERTY
VdW
SciTegic.value.DoubleValue
0.692

@<SCITEGIC>MOL_PROPERTY
VdW6
SciTegic.value.DoubleValue
-6.655

@<SCITEGIC>MOL_PROPERTY
VdW12
SciTegic.value.DoubleValue
7.347

@<SCITEGIC>MOL_PROPERTY
Bond
SciTegic.value.DoubleValue
0.223

@<SCITEGIC>MOL_PROPERTY
Angle
SciTegic.value.DoubleValue
1.167

@<SCITEGIC>MOL_PROPERTY
Pdih
SciTegic.value.DoubleValue
3.447

@<SCITEGIC>MOL_PROPERTY
Idih
SciTegic.value.DoubleValue
0.000

@<SCITEGIC>MOL_PROPERTY
Tether
SciTegic.value.DoubleValue
0.000

@<TRIPOS>MOLECULE
guest-2_confgen4.mol2 : confsearch ligand conformer 457
          23          22           1
SMALL
USER_CHARGES
 
@<TRIPOS>ATOM
       1    N1      17.932057   21.293474   23.609258 N.4        1 MOL1        -0.5940
       2    H1      18.142227   21.855852   24.440154 H          1 MOL1         0.3649
       3    H2      16.914226   21.169582   23.583408 H          1 MOL1         0.3649
       4    H3      18.184559   21.857891   22.791680 H          1 MOL1         0.3649
       5    C1      18.660880   19.965258   23.626783 C.3        1 MOL1         0.0207
       6    H4      18.362331   19.409454   22.736115 H          1 MOL1         0.0950
       7    H5      18.323158   19.408295   24.504927 H          1 MOL1         0.0950
       8    C2      20.193780   20.119828   23.672749 C.3        1 MOL1        -0.1415
       9    H6      20.543415   20.717607   22.820529 H          1 MOL1         0.0976
      10    H7      20.451521   20.688095   24.576442 H          1 MOL1         0.0976
      11    C3      20.940989   18.762838   23.714237 C.3        1 MOL1        -0.1375
      12    H8      20.384396   18.045437   24.333222 H          1 MOL1         0.0976
      13    H9      21.900012   18.916721   24.228137 H          1 MOL1         0.0976
      14    C4      21.249252   18.142852   22.326410 C.3        1 MOL1        -0.1375
      15    H10     21.894062   18.825396   21.755757 H          1 MOL1         0.0976
      16    H11     21.838231   17.228686   22.484034 H          1 MOL1         0.0976
      17    C5      19.999985   17.794264   21.484792 C.3        1 MOL1        -0.1350
      18    H12     19.482753   18.714688   21.184453 H          1 MOL1         0.0976
      19    H13     19.294963   17.205521   22.088119 H          1 MOL1         0.0976
      20    C6      20.372867   17.001063   20.214173 C.3        1 MOL1        -0.2365
      21    H14     20.859384   16.050696   20.469748 H          1 MOL1         0.0987
      22    H15     21.058109   17.575625   19.577328 H          1 MOL1         0.0987
      23    H16     19.476481   16.771665   19.623497 H          1 MOL1         0.0987
@<TRIPOS>BOND
    1     1     2    1
    2     1     3    1
    3     1     4    1
    4     1     5    1
    5     5     6    1
    6     5     7    1
    7     5     8    1
    8     8     9    1
    9     8    10    1
   10     8    11    1
   11    11    12    1
   12    11    13    1
   13    11    14    1
   14    14    15    1
   15    14    16    1
   16    14    17    1
   17    17    18    1
   18    17    19    1
   19    17    20    1
   20    20    21    1
   21    20    22    1
   22    20    23    1
@<TRIPOS>SUBSTRUCTURE
       1 MOL1            1 RESIDUE      1      MOL     
@<SCITEGIC>MOL_PROPERTY
VConf Rank
SciTegic.value.IntegerValue
457

@<SCITEGIC>MOL_PROPERTY
Conf_Id
SciTegic.value.IntegerValue
93

@<SCITEGIC>MOL_PROPERTY
Delta U+W
SciTegic.value.DoubleValue
2.589

@<SCITEGIC>MOL_PROPERTY
U+W
SciTegic.value.DoubleValue
-5.793

@<SCITEGIC>MOL_PROPERTY
Grad RMS
SciTegic.value.DoubleValue
0.000000

@<SCITEGIC>MOL_PROPERTY
U
SciTegic.value.DoubleValue
50.122

@<SCITEGIC>MOL_PROPERTY
W
SciTegic.value.DoubleValue
-55.915

@<SCITEGIC>MOL_PROPERTY
W(PB)
SciTegic.value.DoubleValue
-58.031

@<SCITEGIC>MOL_PROPERTY
W(SA)
SciTegic.value.DoubleValue
2.115

@<SCITEGIC>MOL_PROPERTY
Valence
SciTegic.value.DoubleValue
4.132

@<SCITEGIC>MOL_PROPERTY
Coulomb
SciTegic.value.DoubleValue
45.536

@<SCITEGIC>MOL_PROPERTY
VdW
SciTegic.value.DoubleValue
0.454

@<SCITEGIC>MOL_PROPERTY
VdW6
SciTegic.value.DoubleValue
-6.262

@<SCITEGIC>MOL_PROPERTY
VdW12
SciTegic.value.DoubleValue
6.715

@<SCITEGIC>MOL_PROPERTY
Bond
SciTegic.value.DoubleValue
0.182

@<SCITEGIC>MOL_PROPERTY
Angle
SciTegic.value.DoubleValue
1.157

@<SCITEGIC>MOL_PROPERTY
Pdih
SciTegic.value.DoubleValue
2.794

@<SCITEGIC>MOL_PROPERTY
Idih
SciTegic.value.DoubleValue
0.000

@<SCITEGIC>MOL_PROPERTY
Tether
SciTegic.value.DoubleValue
0.000

@<TRIPOS>MOLECULE
guest-2_confgen4.mol2 : confsearch ligand conformer 458
          23          22           1
SMALL
USER_CHARGES
 
@<TRIPOS>ATOM
       1    N1      20.686801   15.993205   22.387376 N.4        1 MOL1        -0.5940
       2    H1      19.735106   15.705955   22.137336 H          1 MOL1         0.3649
       3    H2      20.945702   15.467341   23.229062 H          1 MOL1         0.3649
       4    H3      21.305423   15.673699   21.635012 H          1 MOL1         0.3649
       5    C1      20.787541   17.489286   22.604724 C.3        1 MOL1         0.0207
       6    H4      21.816603   17.718097   22.894682 H          1 MOL1         0.0950
       7    H5      20.133382   17.749742   23.438738 H          1 MOL1         0.0950
       8    C2      20.410942   18.306523   21.353290 C.3        1 MOL1        -0.1415
       9    H6      21.085253   18.011146   20.538381 H          1 MOL1         0.0976
      10    H7      19.395113   18.052638   21.022387 H          1 MOL1         0.0976
      11    C3      20.535515   19.836492   21.565749 C.3        1 MOL1        -0.1375
      12    H8      20.747210   20.300255   20.592298 H          1 MOL1         0.0976
      13    H9      21.407446   20.059163   22.196428 H          1 MOL1         0.0976
      14    C4      19.270206   20.522009   22.144140 C.3        1 MOL1        -0.1375
      15    H10     19.455094   21.604545   22.181179 H          1 MOL1         0.0976
      16    H11     18.428690   20.380768   21.451902 H          1 MOL1         0.0976
      17    C5      18.861528   20.035711   23.553749 C.3        1 MOL1        -0.1350
      18    H12     19.730229   20.065730   24.226159 H          1 MOL1         0.0976
      19    H13     18.522144   18.992914   23.505701 H          1 MOL1         0.0976
      20    C6      17.725830   20.897170   24.145997 C.3        1 MOL1        -0.2365
      21    H14     17.440872   20.531788   25.141147 H          1 MOL1         0.0987
      22    H15     16.833318   20.866421   23.507462 H          1 MOL1         0.0987
      23    H16     18.036746   21.945004   24.248902 H          1 MOL1         0.0987
@<TRIPOS>BOND
    1     1     2    1
    2     1     3    1
    3     1     4    1
    4     1     5    1
    5     5     6    1
    6     5     7    1
    7     5     8    1
    8     8     9    1
    9     8    10    1
   10     8    11    1
   11    11    12    1
   12    11    13    1
   13    11    14    1
   14    14    15    1
   15    14    16    1
   16    14    17    1
   17    17    18    1
   18    17    19    1
   19    17    20    1
   20    20    21    1
   21    20    22    1
   22    20    23    1
@<TRIPOS>SUBSTRUCTURE
       1 MOL1            1 RESIDUE      1      MOL     
@<SCITEGIC>MOL_PROPERTY
VConf Rank
SciTegic.value.IntegerValue
458

@<SCITEGIC>MOL_PROPERTY
Conf_Id
SciTegic.value.IntegerValue
70

@<SCITEGIC>MOL_PROPERTY
Delta U+W
SciTegic.value.DoubleValue
2.599

@<SCITEGIC>MOL_PROPERTY
U+W
SciTegic.value.DoubleValue
-5.783

@<SCITEGIC>MOL_PROPERTY
Grad RMS
SciTegic.value.DoubleValue
0.000000

@<SCITEGIC>MOL_PROPERTY
U
SciTegic.value.DoubleValue
50.122

@<SCITEGIC>MOL_PROPERTY
W
SciTegic.value.DoubleValue
-55.906

@<SCITEGIC>MOL_PROPERTY
W(PB)
SciTegic.value.DoubleValue
-58.010

@<SCITEGIC>MOL_PROPERTY
W(SA)
SciTegic.value.DoubleValue
2.105

@<SCITEGIC>MOL_PROPERTY
Valence
SciTegic.value.DoubleValue
4.132

@<SCITEGIC>MOL_PROPERTY
Coulomb
SciTegic.value.DoubleValue
45.536

@<SCITEGIC>MOL_PROPERTY
VdW
SciTegic.value.DoubleValue
0.454

@<SCITEGIC>MOL_PROPERTY
VdW6
SciTegic.value.DoubleValue
-6.262

@<SCITEGIC>MOL_PROPERTY
VdW12
SciTegic.value.DoubleValue
6.715

@<SCITEGIC>MOL_PROPERTY
Bond
SciTegic.value.DoubleValue
0.182

@<SCITEGIC>MOL_PROPERTY
Angle
SciTegic.value.DoubleValue
1.157

@<SCITEGIC>MOL_PROPERTY
Pdih
SciTegic.value.DoubleValue
2.794

@<SCITEGIC>MOL_PROPERTY
Idih
SciTegic.value.DoubleValue
0.000

@<SCITEGIC>MOL_PROPERTY
Tether
SciTegic.value.DoubleValue
0.000

@<TRIPOS>MOLECULE
guest-2_confgen4.mol2 : confsearch ligand conformer 459
          23          22           1
SMALL
USER_CHARGES
 
@<TRIPOS>ATOM
       1    N1      22.633350   18.889486   22.929002 N.4        1 MOL1        -0.5940
       2    H1      23.287341   18.482016   22.253152 H          1 MOL1         0.3649
       3    H2      23.158624   19.048386   23.795375 H          1 MOL1         0.3649
       4    H3      22.359948   19.808933   22.569373 H          1 MOL1         0.3649
       5    C1      21.429193   17.996740   23.155380 C.3        1 MOL1         0.0207
       6    H4      20.791952   18.469986   23.906984 H          1 MOL1         0.0950
       7    H5      21.789504   17.048694   23.563889 H          1 MOL1         0.0950
       8    C2      20.611680   17.725803   21.876300 C.3        1 MOL1        -0.1415
       9    H6      21.251811   17.219523   21.141706 H          1 MOL1         0.0976
      10    H7      19.809095   17.015603   22.112709 H          1 MOL1         0.0976
      11    C3      20.007429   19.001446   21.232389 C.3        1 MOL1        -0.1375
      12    H8      19.412781   18.707970   20.356335 H          1 MOL1         0.0976
      13    H9      20.819582   19.629483   20.842248 H          1 MOL1         0.0976
      14    C4      19.125175   19.855721   22.179300 C.3        1 MOL1        -0.1375
      15    H10     19.727919   20.237183   23.014212 H          1 MOL1         0.0976
      16    H11     18.780224   20.740473   21.626526 H          1 MOL1         0.0976
      17    C5      17.894787   19.096699   22.729686 C.3        1 MOL1        -0.1350
      18    H12     18.218164   18.247207   23.345908 H          1 MOL1         0.0976
      19    H13     17.311252   18.681965   21.895902 H          1 MOL1         0.0976
      20    C6      16.991836   20.016279   23.579058 C.3        1 MOL1        -0.2365
      21    H14     16.125966   19.461678   23.963376 H          1 MOL1         0.0987
      22    H15     16.614976   20.858706   22.984511 H          1 MOL1         0.0987
      23    H16     17.540226   20.422775   24.438845 H          1 MOL1         0.0987
@<TRIPOS>BOND
    1     1     2    1
    2     1     3    1
    3     1     4    1
    4     1     5    1
    5     5     6    1
    6     5     7    1
    7     5     8    1
    8     8     9    1
    9     8    10    1
   10     8    11    1
   11    11    12    1
   12    11    13    1
   13    11    14    1
   14    14    15    1
   15    14    16    1
   16    14    17    1
   17    17    18    1
   18    17    19    1
   19    17    20    1
   20    20    21    1
   21    20    22    1
   22    20    23    1
@<TRIPOS>SUBSTRUCTURE
       1 MOL1            1 RESIDUE      1      MOL     
@<SCITEGIC>MOL_PROPERTY
VConf Rank
SciTegic.value.IntegerValue
459

@<SCITEGIC>MOL_PROPERTY
Conf_Id
SciTegic.value.IntegerValue
72

@<SCITEGIC>MOL_PROPERTY
Delta U+W
SciTegic.value.DoubleValue
1.051

@<SCITEGIC>MOL_PROPERTY
U+W
SciTegic.value.DoubleValue
-7.331

@<SCITEGIC>MOL_PROPERTY
Grad RMS
SciTegic.value.DoubleValue
0.000000

@<SCITEGIC>MOL_PROPERTY
U
SciTegic.value.DoubleValue
48.590

@<SCITEGIC>MOL_PROPERTY
W
SciTegic.value.DoubleValue
-55.922

@<SCITEGIC>MOL_PROPERTY
W(PB)
SciTegic.value.DoubleValue
-58.012

@<SCITEGIC>MOL_PROPERTY
W(SA)
SciTegic.value.DoubleValue
2.090

@<SCITEGIC>MOL_PROPERTY
Valence
SciTegic.value.DoubleValue
2.601

@<SCITEGIC>MOL_PROPERTY
Coulomb
SciTegic.value.DoubleValue
45.520

@<SCITEGIC>MOL_PROPERTY
VdW
SciTegic.value.DoubleValue
0.469

@<SCITEGIC>MOL_PROPERTY
VdW6
SciTegic.value.DoubleValue
-6.867

@<SCITEGIC>MOL_PROPERTY
VdW12
SciTegic.value.DoubleValue
7.336

@<SCITEGIC>MOL_PROPERTY
Bond
SciTegic.value.DoubleValue
0.205

@<SCITEGIC>MOL_PROPERTY
Angle
SciTegic.value.DoubleValue
0.962

@<SCITEGIC>MOL_PROPERTY
Pdih
SciTegic.value.DoubleValue
1.434

@<SCITEGIC>MOL_PROPERTY
Idih
SciTegic.value.DoubleValue
0.000

@<SCITEGIC>MOL_PROPERTY
Tether
SciTegic.value.DoubleValue
0.000

@<TRIPOS>MOLECULE
guest-2_confgen4.mol2 : confsearch ligand conformer 460
          23          22           1
SMALL
USER_CHARGES
 
@<TRIPOS>ATOM
       1    N1      19.193110   16.638285   24.636052 N.4        1 MOL1        -0.5940
       2    H1      18.417324   16.509129   25.294407 H          1 MOL1         0.3649
       3    H2      20.027042   16.236403   25.076316 H          1 MOL1         0.3649
       4    H3      18.982507   16.067142   23.811368 H          1 MOL1         0.3649
       5    C1      19.390708   18.097270   24.278344 C.3        1 MOL1         0.0207
       6    H4      19.581849   18.649072   25.202644 H          1 MOL1         0.0950
       7    H5      18.457817   18.465980   23.843948 H          1 MOL1         0.0950
       8    C2      20.549551   18.325351   23.289971 C.3        1 MOL1        -0.1415
       9    H6      21.474069   17.918004   23.720162 H          1 MOL1         0.0976
      10    H7      20.365047   17.761517   22.366672 H          1 MOL1         0.0976
      11    C3      20.768680   19.823012   22.961256 C.3        1 MOL1        -0.1375
      12    H8      21.618837   19.918798   22.272775 H          1 MOL1         0.0976
      13    H9      21.070654   20.346958   23.878646 H          1 MOL1         0.0976
      14    C4      19.532098   20.546371   22.362611 C.3        1 MOL1        -0.1375
      15    H10     18.736167   20.594021   23.117944 H          1 MOL1         0.0976
      16    H11     19.803607   21.590474   22.154518 H          1 MOL1         0.0976
      17    C5      18.958948   19.912046   21.069804 C.3        1 MOL1        -0.1350
      18    H12     18.086096   20.497948   20.749586 H          1 MOL1         0.0976
      19    H13     18.582563   18.901372   21.277145 H          1 MOL1         0.0976
      20    C6      19.977235   19.861658   19.908310 C.3        1 MOL1        -0.2365
      21    H14     20.377301   20.860495   19.691029 H          1 MOL1         0.0987
      22    H15     19.500032   19.484878   18.994441 H          1 MOL1         0.0987
      23    H16     20.818926   19.197157   20.139721 H          1 MOL1         0.0987
@<TRIPOS>BOND
    1     1     2    1
    2     1     3    1
    3     1     4    1
    4     1     5    1
    5     5     6    1
    6     5     7    1
    7     5     8    1
    8     8     9    1
    9     8    10    1
   10     8    11    1
   11    11    12    1
   12    11    13    1
   13    11    14    1
   14    14    15    1
   15    14    16    1
   16    14    17    1
   17    17    18    1
   18    17    19    1
   19    17    20    1
   20    20    21    1
   21    20    22    1
   22    20    23    1
@<TRIPOS>SUBSTRUCTURE
       1 MOL1            1 RESIDUE      1      MOL     
@<SCITEGIC>MOL_PROPERTY
VConf Rank
SciTegic.value.IntegerValue
460

@<SCITEGIC>MOL_PROPERTY
Conf_Id
SciTegic.value.IntegerValue
26

@<SCITEGIC>MOL_PROPERTY
Delta U+W
SciTegic.value.DoubleValue
1.076

@<SCITEGIC>MOL_PROPERTY
U+W
SciTegic.value.DoubleValue
-7.306

@<SCITEGIC>MOL_PROPERTY
Grad RMS
SciTegic.value.DoubleValue
0.000000

@<SCITEGIC>MOL_PROPERTY
U
SciTegic.value.DoubleValue
48.641

@<SCITEGIC>MOL_PROPERTY
W
SciTegic.value.DoubleValue
-55.947

@<SCITEGIC>MOL_PROPERTY
W(PB)
SciTegic.value.DoubleValue
-58.031

@<SCITEGIC>MOL_PROPERTY
W(SA)
SciTegic.value.DoubleValue
2.084

@<SCITEGIC>MOL_PROPERTY
Valence
SciTegic.value.DoubleValue
2.922

@<SCITEGIC>MOL_PROPERTY
Coulomb
SciTegic.value.DoubleValue
45.269

@<SCITEGIC>MOL_PROPERTY
VdW
SciTegic.value.DoubleValue
0.449

@<SCITEGIC>MOL_PROPERTY
VdW6
SciTegic.value.DoubleValue
-7.045

@<SCITEGIC>MOL_PROPERTY
VdW12
SciTegic.value.DoubleValue
7.494

@<SCITEGIC>MOL_PROPERTY
Bond
SciTegic.value.DoubleValue
0.220

@<SCITEGIC>MOL_PROPERTY
Angle
SciTegic.value.DoubleValue
1.205

@<SCITEGIC>MOL_PROPERTY
Pdih
SciTegic.value.DoubleValue
1.497

@<SCITEGIC>MOL_PROPERTY
Idih
SciTegic.value.DoubleValue
0.000

@<SCITEGIC>MOL_PROPERTY
Tether
SciTegic.value.DoubleValue
0.000

@<TRIPOS>MOLECULE
guest-2_confgen4.mol2 : confsearch ligand conformer 461
          23          22           1
SMALL
USER_CHARGES
 
@<TRIPOS>ATOM
       1    N1      19.149587   17.163020   20.160123 N.4        1 MOL1        -0.5940
       2    H1      18.680473   16.281042   20.389970 H          1 MOL1         0.3649
       3    H2      19.677390   17.002974   19.295387 H          1 MOL1         0.3649
       4    H3      18.417324   17.845798   19.940427 H          1 MOL1         0.3649
       5    C1      20.045240   17.636730   21.286639 C.3        1 MOL1         0.0207
       6    H4      20.533165   18.559635   20.962436 H          1 MOL1         0.0950
       7    H5      20.815859   16.878068   21.447662 H          1 MOL1         0.0950
       8    C2      19.282091   17.886781   22.600753 C.3        1 MOL1        -0.1415
       9    H6      18.499642   18.638737   22.437143 H          1 MOL1         0.0976
      10    H7      18.765626   16.964284   22.897389 H          1 MOL1         0.0976
      11    C3      20.212030   18.332753   23.756341 C.3        1 MOL1        -0.1375
      12    H8      20.910595   17.515963   23.984758 H          1 MOL1         0.0976
      13    H9      19.612791   18.472157   24.665973 H          1 MOL1         0.0976
      14    C4      21.032069   19.620339   23.472768 C.3        1 MOL1        -0.1375
      15    H10     21.639505   19.851165   24.358718 H          1 MOL1         0.0976
      16    H11     21.750888   19.424779   22.665700 H          1 MOL1         0.0976
      17    C5      20.191817   20.869387   23.103880 C.3        1 MOL1        -0.1350
      18    H12     19.654837   20.701002   22.160790 H          1 MOL1         0.0976
      19    H13     20.876095   21.708176   22.914439 H          1 MOL1         0.0976
      20    C6      19.191751   21.282988   24.207203 C.3        1 MOL1        -0.2365
      21    H14     18.418797   20.518926   24.356563 H          1 MOL1         0.0987
      22    H15     18.684542   22.217841   23.935855 H          1 MOL1         0.0987
      23    H16     19.704864   21.444722   25.164020 H          1 MOL1         0.0987
@<TRIPOS>BOND
    1     1     2    1
    2     1     3    1
    3     1     4    1
    4     1     5    1
    5     5     6    1
    6     5     7    1
    7     5     8    1
    8     8     9    1
    9     8    10    1
   10     8    11    1
   11    11    12    1
   12    11    13    1
   13    11    14    1
   14    14    15    1
   15    14    16    1
   16    14    17    1
   17    17    18    1
   18    17    19    1
   19    17    20    1
   20    20    21    1
   21    20    22    1
   22    20    23    1
@<TRIPOS>SUBSTRUCTURE
       1 MOL1            1 RESIDUE      1      MOL     
@<SCITEGIC>MOL_PROPERTY
VConf Rank
SciTegic.value.IntegerValue
461

@<SCITEGIC>MOL_PROPERTY
Conf_Id
SciTegic.value.IntegerValue
90

@<SCITEGIC>MOL_PROPERTY
Delta U+W
SciTegic.value.DoubleValue
1.131

@<SCITEGIC>MOL_PROPERTY
U+W
SciTegic.value.DoubleValue
-7.251

@<SCITEGIC>MOL_PROPERTY
Grad RMS
SciTegic.value.DoubleValue
0.000000

@<SCITEGIC>MOL_PROPERTY
U
SciTegic.value.DoubleValue
48.641

@<SCITEGIC>MOL_PROPERTY
W
SciTegic.value.DoubleValue
-55.892

@<SCITEGIC>MOL_PROPERTY
W(PB)
SciTegic.value.DoubleValue
-57.962

@<SCITEGIC>MOL_PROPERTY
W(SA)
SciTegic.value.DoubleValue
2.070

@<SCITEGIC>MOL_PROPERTY
Valence
SciTegic.value.DoubleValue
2.922

@<SCITEGIC>MOL_PROPERTY
Coulomb
SciTegic.value.DoubleValue
45.269

@<SCITEGIC>MOL_PROPERTY
VdW
SciTegic.value.DoubleValue
0.450

@<SCITEGIC>MOL_PROPERTY
VdW6
SciTegic.value.DoubleValue
-7.045

@<SCITEGIC>MOL_PROPERTY
VdW12
SciTegic.value.DoubleValue
7.495

@<SCITEGIC>MOL_PROPERTY
Bond
SciTegic.value.DoubleValue
0.220

@<SCITEGIC>MOL_PROPERTY
Angle
SciTegic.value.DoubleValue
1.205

@<SCITEGIC>MOL_PROPERTY
Pdih
SciTegic.value.DoubleValue
1.497

@<SCITEGIC>MOL_PROPERTY
Idih
SciTegic.value.DoubleValue
0.000

@<SCITEGIC>MOL_PROPERTY
Tether
SciTegic.value.DoubleValue
0.000

@<TRIPOS>MOLECULE
guest-2_confgen4.mol2 : confsearch ligand conformer 462
          23          22           1
SMALL
USER_CHARGES
 
@<TRIPOS>ATOM
       1    N1      17.718760   17.596509   21.679193 N.4        1 MOL1        -0.5940
       2    H1      17.118735   16.837159   22.018619 H          1 MOL1         0.3649
       3    H2      18.685879   17.262415   21.731009 H          1 MOL1         0.3649
       4    H3      17.497036   17.732537   20.687776 H          1 MOL1         0.3649
       5    C1      17.523535   18.869286   22.479393 C.3        1 MOL1         0.0207
       6    H4      17.745447   18.648587   23.526657 H          1 MOL1         0.0950
       7    H5      16.468904   19.148937   22.408191 H          1 MOL1         0.0950
       8    C2      18.398237   20.044649   21.997410 C.3        1 MOL1        -0.1415
       9    H6      18.133546   20.288204   20.959908 H          1 MOL1         0.0976
      10    H7      18.151844   20.934013   22.592526 H          1 MOL1         0.0976
      11    C3      19.921247   19.774826   22.088074 C.3        1 MOL1        -0.1375
      12    H8      20.456051   20.657341   21.710897 H          1 MOL1         0.0976
      13    H9      20.186786   18.947019   21.418501 H          1 MOL1         0.0976
      14    C4      20.398532   19.469751   23.530503 C.3        1 MOL1        -0.1375
      15    H10     20.049246   20.268071   24.199795 H          1 MOL1         0.0976
      16    H11     19.940475   18.539706   23.892626 H          1 MOL1         0.0976
      17    C5      21.937130   19.360079   23.657307 C.3        1 MOL1        -0.1350
      18    H12     22.196619   19.250755   24.719639 H          1 MOL1         0.0976
      19    H13     22.405885   20.295642   23.321494 H          1 MOL1         0.0976
      20    C6      22.533774   18.168841   22.873659 C.3        1 MOL1        -0.2365
      21    H14     22.062506   17.223562   23.172476 H          1 MOL1         0.0987
      22    H15     23.610697   18.082499   23.067869 H          1 MOL1         0.0987
      23    H16     22.403374   18.292016   21.791424 H          1 MOL1         0.0987
@<TRIPOS>BOND
    1     1     2    1
    2     1     3    1
    3     1     4    1
    4     1     5    1
    5     5     6    1
    6     5     7    1
    7     5     8    1
    8     8     9    1
    9     8    10    1
   10     8    11    1
   11    11    12    1
   12    11    13    1
   13    11    14    1
   14    14    15    1
   15    14    16    1
   16    14    17    1
   17    17    18    1
   18    17    19    1
   19    17    20    1
   20    20    21    1
   21    20    22    1
   22    20    23    1
@<TRIPOS>SUBSTRUCTURE
       1 MOL1            1 RESIDUE      1      MOL     
@<SCITEGIC>MOL_PROPERTY
VConf Rank
SciTegic.value.IntegerValue
462

@<SCITEGIC>MOL_PROPERTY
Conf_Id
SciTegic.value.IntegerValue
85

@<SCITEGIC>MOL_PROPERTY
Delta U+W
SciTegic.value.DoubleValue
1.193

@<SCITEGIC>MOL_PROPERTY
U+W
SciTegic.value.DoubleValue
-7.189

@<SCITEGIC>MOL_PROPERTY
Grad RMS
SciTegic.value.DoubleValue
0.000000

@<SCITEGIC>MOL_PROPERTY
U
SciTegic.value.DoubleValue
48.775

@<SCITEGIC>MOL_PROPERTY
W
SciTegic.value.DoubleValue
-55.965

@<SCITEGIC>MOL_PROPERTY
W(PB)
SciTegic.value.DoubleValue
-58.038

@<SCITEGIC>MOL_PROPERTY
W(SA)
SciTegic.value.DoubleValue
2.073

@<SCITEGIC>MOL_PROPERTY
Valence
SciTegic.value.DoubleValue
2.602

@<SCITEGIC>MOL_PROPERTY
Coulomb
SciTegic.value.DoubleValue
45.581

@<SCITEGIC>MOL_PROPERTY
VdW
SciTegic.value.DoubleValue
0.592

@<SCITEGIC>MOL_PROPERTY
VdW6
SciTegic.value.DoubleValue
-6.616

@<SCITEGIC>MOL_PROPERTY
VdW12
SciTegic.value.DoubleValue
7.208

@<SCITEGIC>MOL_PROPERTY
Bond
SciTegic.value.DoubleValue
0.196

@<SCITEGIC>MOL_PROPERTY
Angle
SciTegic.value.DoubleValue
0.832

@<SCITEGIC>MOL_PROPERTY
Pdih
SciTegic.value.DoubleValue
1.574

@<SCITEGIC>MOL_PROPERTY
Idih
SciTegic.value.DoubleValue
0.000

@<SCITEGIC>MOL_PROPERTY
Tether
SciTegic.value.DoubleValue
0.000

@<TRIPOS>MOLECULE
guest-2_confgen4.mol2 : confsearch ligand conformer 463
          23          22           1
SMALL
USER_CHARGES
 
@<TRIPOS>ATOM
       1    N1      21.649591   18.201252   22.307894 N.4        1 MOL1        -0.5940
       2    H1      20.842873   17.958924   22.891977 H          1 MOL1         0.3649
       3    H2      22.476092   18.214663   22.915364 H          1 MOL1         0.3649
       4    H3      21.783450   17.436459   21.638426 H          1 MOL1         0.3649
       5    C1      21.444270   19.530389   21.607252 C.3        1 MOL1         0.0207
       6    H4      22.339304   19.716794   21.007520 H          1 MOL1         0.0950
       7    H5      21.372365   20.317264   22.362756 H          1 MOL1         0.0950
       8    C2      20.205760   19.570650   20.688999 C.3        1 MOL1        -0.1415
       9    H6      20.360682   20.372372   19.954779 H          1 MOL1         0.0976
      10    H7      20.144693   18.641208   20.107379 H          1 MOL1         0.0976
      11    C3      18.856653   19.841023   21.407969 C.3        1 MOL1        -0.1375
      12    H8      18.078177   19.898270   20.634533 H          1 MOL1         0.0976
      13    H9      18.875213   20.833453   21.879359 H          1 MOL1         0.0976
      14    C4      18.428733   18.767064   22.440809 C.3        1 MOL1        -0.1375
      15    H10     17.336247   18.656333   22.396642 H          1 MOL1         0.0976
      16    H11     18.836305   17.786968   22.159699 H          1 MOL1         0.0976
      17    C5      18.810367   19.134336   23.895651 C.3        1 MOL1        -0.1350
      18    H12     18.252555   20.030875   24.200935 H          1 MOL1         0.0976
      19    H13     19.871720   19.399099   23.971201 H          1 MOL1         0.0976
      20    C6      18.496537   17.984138   24.875643 C.3        1 MOL1        -0.2365
      21    H14     17.427655   17.733935   24.859590 H          1 MOL1         0.0987
      22    H15     18.759432   18.267919   25.903034 H          1 MOL1         0.0987
      23    H16     19.062130   17.078449   24.621481 H          1 MOL1         0.0987
@<TRIPOS>BOND
    1     1     2    1
    2     1     3    1
    3     1     4    1
    4     1     5    1
    5     5     6    1
    6     5     7    1
    7     5     8    1
    8     8     9    1
    9     8    10    1
   10     8    11    1
   11    11    12    1
   12    11    13    1
   13    11    14    1
   14    14    15    1
   15    14    16    1
   16    14    17    1
   17    17    18    1
   18    17    19    1
   19    17    20    1
   20    20    21    1
   21    20    22    1
   22    20    23    1
@<TRIPOS>SUBSTRUCTURE
       1 MOL1            1 RESIDUE      1      MOL     
@<SCITEGIC>MOL_PROPERTY
VConf Rank
SciTegic.value.IntegerValue
463

@<SCITEGIC>MOL_PROPERTY
Conf_Id
SciTegic.value.IntegerValue
82

@<SCITEGIC>MOL_PROPERTY
Delta U+W
SciTegic.value.DoubleValue
5.994

@<SCITEGIC>MOL_PROPERTY
U+W
SciTegic.value.DoubleValue
-2.388

@<SCITEGIC>MOL_PROPERTY
Grad RMS
SciTegic.value.DoubleValue
0.000000

@<SCITEGIC>MOL_PROPERTY
U
SciTegic.value.DoubleValue
52.836

@<SCITEGIC>MOL_PROPERTY
W
SciTegic.value.DoubleValue
-55.224

@<SCITEGIC>MOL_PROPERTY
W(PB)
SciTegic.value.DoubleValue
-57.261

@<SCITEGIC>MOL_PROPERTY
W(SA)
SciTegic.value.DoubleValue
2.037

@<SCITEGIC>MOL_PROPERTY
Valence
SciTegic.value.DoubleValue
5.785

@<SCITEGIC>MOL_PROPERTY
Coulomb
SciTegic.value.DoubleValue
46.744

@<SCITEGIC>MOL_PROPERTY
VdW
SciTegic.value.DoubleValue
0.307

@<SCITEGIC>MOL_PROPERTY
VdW6
SciTegic.value.DoubleValue
-7.672

@<SCITEGIC>MOL_PROPERTY
VdW12
SciTegic.value.DoubleValue
7.979

@<SCITEGIC>MOL_PROPERTY
Bond
SciTegic.value.DoubleValue
0.217

@<SCITEGIC>MOL_PROPERTY
Angle
SciTegic.value.DoubleValue
1.470

@<SCITEGIC>MOL_PROPERTY
Pdih
SciTegic.value.DoubleValue
4.098

@<SCITEGIC>MOL_PROPERTY
Idih
SciTegic.value.DoubleValue
0.000

@<SCITEGIC>MOL_PROPERTY
Tether
SciTegic.value.DoubleValue
0.000

@<TRIPOS>MOLECULE
guest-2_confgen4.mol2 : confsearch ligand conformer 464
          23          22           1
SMALL
USER_CHARGES
 
@<TRIPOS>ATOM
       1    N1      18.149749   18.410650   21.547636 N.4        1 MOL1        -0.5940
       2    H1      18.262631   17.776185   20.750311 H          1 MOL1         0.3649
       3    H2      17.163964   18.365888   21.827859 H          1 MOL1         0.3649
       4    H3      18.706437   18.032486   22.320788 H          1 MOL1         0.3649
       5    C1      18.573361   19.825359   21.202948 C.3        1 MOL1         0.0207
       6    H4      18.372400   20.470471   22.062351 H          1 MOL1         0.0950
       7    H5      17.939731   20.155707   20.375365 H          1 MOL1         0.0950
       8    C2      20.052790   19.953157   20.786207 C.3        1 MOL1        -0.1415
       9    H6      20.319498   19.131778   20.107918 H          1 MOL1         0.0976
      10    H7      20.154703   20.873064   20.195256 H          1 MOL1         0.0976
      11    C3      21.067146   20.028775   21.959015 C.3        1 MOL1        -0.1375
      12    H8      20.877959   20.928347   22.561052 H          1 MOL1         0.0976
      13    H9      22.064732   20.173213   21.521449 H          1 MOL1         0.0976
      14    C4      21.120256   18.776752   22.871637 C.3        1 MOL1        -0.1375
      15    H10     20.843658   17.879966   22.301556 H          1 MOL1         0.0976
      16    H11     22.161383   18.617755   23.185504 H          1 MOL1         0.0976
      17    C5      20.255419   18.915943   24.148268 C.3        1 MOL1        -0.1350
      18    H12     19.231348   19.219900   23.900937 H          1 MOL1         0.0976
      19    H13     20.665420   19.718433   24.777587 H          1 MOL1         0.0976
      20    C6      20.220275   17.603579   24.959620 C.3        1 MOL1        -0.2365
      21    H14     19.785243   16.783998   24.373274 H          1 MOL1         0.0987
      22    H15     19.615640   17.725596   25.867754 H          1 MOL1         0.0987
      23    H16     21.230699   17.303586   25.266891 H          1 MOL1         0.0987
@<TRIPOS>BOND
    1     1     2    1
    2     1     3    1
    3     1     4    1
    4     1     5    1
    5     5     6    1
    6     5     7    1
    7     5     8    1
    8     8     9    1
    9     8    10    1
   10     8    11    1
   11    11    12    1
   12    11    13    1
   13    11    14    1
   14    14    15    1
   15    14    16    1
   16    14    17    1
   17    17    18    1
   18    17    19    1
   19    17    20    1
   20    20    21    1
   21    20    22    1
   22    20    23    1
@<TRIPOS>SUBSTRUCTURE
       1 MOL1            1 RESIDUE      1      MOL     
@<SCITEGIC>MOL_PROPERTY
VConf Rank
SciTegic.value.IntegerValue
464

@<SCITEGIC>MOL_PROPERTY
Conf_Id
SciTegic.value.IntegerValue
5

@<SCITEGIC>MOL_PROPERTY
Delta U+W
SciTegic.value.DoubleValue
6.087

@<SCITEGIC>MOL_PROPERTY
U+W
SciTegic.value.DoubleValue
-2.295

@<SCITEGIC>MOL_PROPERTY
Grad RMS
SciTegic.value.DoubleValue
0.000000

@<SCITEGIC>MOL_PROPERTY
U
SciTegic.value.DoubleValue
52.836

@<SCITEGIC>MOL_PROPERTY
W
SciTegic.value.DoubleValue
-55.131

@<SCITEGIC>MOL_PROPERTY
W(PB)
SciTegic.value.DoubleValue
-57.202

@<SCITEGIC>MOL_PROPERTY
W(SA)
SciTegic.value.DoubleValue
2.071

@<SCITEGIC>MOL_PROPERTY
Valence
SciTegic.value.DoubleValue
5.785

@<SCITEGIC>MOL_PROPERTY
Coulomb
SciTegic.value.DoubleValue
46.744

@<SCITEGIC>MOL_PROPERTY
VdW
SciTegic.value.DoubleValue
0.307

@<SCITEGIC>MOL_PROPERTY
VdW6
SciTegic.value.DoubleValue
-7.672

@<SCITEGIC>MOL_PROPERTY
VdW12
SciTegic.value.DoubleValue
7.980

@<SCITEGIC>MOL_PROPERTY
Bond
SciTegic.value.DoubleValue
0.217

@<SCITEGIC>MOL_PROPERTY
Angle
SciTegic.value.DoubleValue
1.470

@<SCITEGIC>MOL_PROPERTY
Pdih
SciTegic.value.DoubleValue
4.098

@<SCITEGIC>MOL_PROPERTY
Idih
SciTegic.value.DoubleValue
0.000

@<SCITEGIC>MOL_PROPERTY
Tether
SciTegic.value.DoubleValue
0.000

@<TRIPOS>MOLECULE
guest-2_confgen4.mol2 : confsearch ligand conformer 465
          23          22           1
SMALL
USER_CHARGES
 
@<TRIPOS>ATOM
       1    N1      20.033204   18.632996   26.416266 N.4        1 MOL1        -0.5940
       2    H1      19.891950   17.617958   26.441310 H          1 MOL1         0.3649
       3    H2      19.615533   19.013068   27.272532 H          1 MOL1         0.3649
       4    H3      21.042939   18.798588   26.478695 H          1 MOL1         0.3649
       5    C1      19.433477   19.257043   25.172566 C.3        1 MOL1         0.0207
       6    H4      19.593759   20.337290   25.226145 H          1 MOL1         0.0950
       7    H5      18.356586   19.068305   25.185997 H          1 MOL1         0.0950
       8    C2      20.039506   18.707446   23.869013 C.3        1 MOL1        -0.1415
       9    H6      21.123333   18.884691   23.867247 H          1 MOL1         0.0976
      10    H7      19.890616   17.620160   23.827301 H          1 MOL1         0.0976
      11    C3      19.402160   19.367993   22.626576 C.3        1 MOL1        -0.1375
      12    H8      19.548613   20.456128   22.674724 H          1 MOL1         0.0976
      13    H9      18.317229   19.192897   22.634806 H          1 MOL1         0.0976
      14    C4      20.003695   18.823190   21.311149 C.3        1 MOL1        -0.1375
      15    H10     21.088485   18.998322   21.302701 H          1 MOL1         0.0976
      16    H11     19.857324   17.735185   21.262842 H          1 MOL1         0.0976
      17    C5      19.365992   19.483951   20.068776 C.3        1 MOL1        -0.1350
      18    H12     19.511904   20.572474   20.111210 H          1 MOL1         0.0976
      19    H13     18.280860   19.309437   20.071350 H          1 MOL1         0.0976
      20    C6      19.969137   18.937473   18.757255 C.3        1 MOL1        -0.2365
      21    H14     19.504088   19.418230   17.886826 H          1 MOL1         0.0987
      22    H15     19.808635   17.854962   18.669855 H          1 MOL1         0.0987
      23    H16     21.049304   19.127841   18.710039 H          1 MOL1         0.0987
@<TRIPOS>BOND
    1     1     2    1
    2     1     3    1
    3     1     4    1
    4     1     5    1
    5     5     6    1
    6     5     7    1
    7     5     8    1
    8     8     9    1
    9     8    10    1
   10     8    11    1
   11    11    12    1
   12    11    13    1
   13    11    14    1
   14    14    15    1
   15    14    16    1
   16    14    17    1
   17    17    18    1
   18    17    19    1
   19    17    20    1
   20    20    21    1
   21    20    22    1
   22    20    23    1
@<TRIPOS>SUBSTRUCTURE
       1 MOL1            1 RESIDUE      1      MOL     
@<SCITEGIC>MOL_PROPERTY
VConf Rank
SciTegic.value.IntegerValue
465

@<SCITEGIC>MOL_PROPERTY
Conf_Id
SciTegic.value.IntegerValue
40

@<SCITEGIC>MOL_PROPERTY
Delta U+W
SciTegic.value.DoubleValue
0.000

@<SCITEGIC>MOL_PROPERTY
U+W
SciTegic.value.DoubleValue
-8.382

@<SCITEGIC>MOL_PROPERTY
Grad RMS
SciTegic.value.DoubleValue
0.000000

@<SCITEGIC>MOL_PROPERTY
U
SciTegic.value.DoubleValue
46.604

@<SCITEGIC>MOL_PROPERTY
W
SciTegic.value.DoubleValue
-54.986

@<SCITEGIC>MOL_PROPERTY
W(PB)
SciTegic.value.DoubleValue
-57.162

@<SCITEGIC>MOL_PROPERTY
W(SA)
SciTegic.value.DoubleValue
2.176

@<SCITEGIC>MOL_PROPERTY
Valence
SciTegic.value.DoubleValue
1.727

@<SCITEGIC>MOL_PROPERTY
Coulomb
SciTegic.value.DoubleValue
44.434

@<SCITEGIC>MOL_PROPERTY
VdW
SciTegic.value.DoubleValue
0.443

@<SCITEGIC>MOL_PROPERTY
VdW6
SciTegic.value.DoubleValue
-4.623

@<SCITEGIC>MOL_PROPERTY
VdW12
SciTegic.value.DoubleValue
5.066

@<SCITEGIC>MOL_PROPERTY
Bond
SciTegic.value.DoubleValue
0.112

@<SCITEGIC>MOL_PROPERTY
Angle
SciTegic.value.DoubleValue
0.386

@<SCITEGIC>MOL_PROPERTY
Pdih
SciTegic.value.DoubleValue
1.228

@<SCITEGIC>MOL_PROPERTY
Idih
SciTegic.value.DoubleValue
0.000

@<SCITEGIC>MOL_PROPERTY
Tether
SciTegic.value.DoubleValue
0.000

@<TRIPOS>MOLECULE
guest-2_confgen4.mol2 : confsearch ligand conformer 466
          23          22           1
SMALL
USER_CHARGES
 
@<TRIPOS>ATOM
       1    N1      20.180343   22.258452   21.155444 N.4        1 MOL1        -0.5940
       2    H1      20.291131   22.966840   21.888078 H          1 MOL1         0.3649
       3    H2      19.228643   22.352737   20.786377 H          1 MOL1         0.3649
       4    H3      20.821117   22.512736   20.395986 H          1 MOL1         0.3649
       5    C1      20.449511   20.860811   21.674995 C.3        1 MOL1         0.0207
       6    H4      21.484909   20.824205   22.024311 H          1 MOL1         0.0950
       7    H5      20.343907   20.166367   20.837669 H          1 MOL1         0.0950
       8    C2      19.502316   20.449272   22.818056 C.3        1 MOL1        -0.1415
       9    H6      19.584565   21.182255   23.631640 H          1 MOL1         0.0976
      10    H7      18.462234   20.484691   22.467400 H          1 MOL1         0.0976
      11    C3      19.814359   19.041579   23.378994 C.3        1 MOL1        -0.1375
      12    H8      19.176696   18.872646   24.256381 H          1 MOL1         0.0976
      13    H9      20.852492   19.012102   23.737856 H          1 MOL1         0.0976
      14    C4      19.585584   17.910193   22.344489 C.3        1 MOL1        -0.1375
      15    H10     18.541866   17.927146   22.001579 H          1 MOL1         0.0976
      16    H11     20.205333   18.093161   21.456829 H          1 MOL1         0.0976
      17    C5      19.927256   16.501172   22.887118 C.3        1 MOL1        -0.1350
      18    H12     20.973661   16.475280   23.222031 H          1 MOL1         0.0976
      19    H13     19.851116   15.778691   22.062439 H          1 MOL1         0.0976
      20    C6      19.001465   16.041416   24.036434 C.3        1 MOL1        -0.2365
      21    H14     19.133719   16.658789   24.933437 H          1 MOL1         0.0987
      22    H15     19.223367   15.003370   24.316019 H          1 MOL1         0.0987
      23    H16     17.946404   16.089759   23.737235 H          1 MOL1         0.0987
@<TRIPOS>BOND
    1     1     2    1
    2     1     3    1
    3     1     4    1
    4     1     5    1
    5     5     6    1
    6     5     7    1
    7     5     8    1
    8     8     9    1
    9     8    10    1
   10     8    11    1
   11    11    12    1
   12    11    13    1
   13    11    14    1
   14    14    15    1
   15    14    16    1
   16    14    17    1
   17    17    18    1
   18    17    19    1
   19    17    20    1
   20    20    21    1
   21    20    22    1
   22    20    23    1
@<TRIPOS>SUBSTRUCTURE
       1 MOL1            1 RESIDUE      1      MOL     
@<SCITEGIC>MOL_PROPERTY
VConf Rank
SciTegic.value.IntegerValue
466

@<SCITEGIC>MOL_PROPERTY
Conf_Id
SciTegic.value.IntegerValue
65

@<SCITEGIC>MOL_PROPERTY
Delta U+W
SciTegic.value.DoubleValue
1.004

@<SCITEGIC>MOL_PROPERTY
U+W
SciTegic.value.DoubleValue
-7.378

@<SCITEGIC>MOL_PROPERTY
Grad RMS
SciTegic.value.DoubleValue
0.000000

@<SCITEGIC>MOL_PROPERTY
U
SciTegic.value.DoubleValue
48.047

@<SCITEGIC>MOL_PROPERTY
W
SciTegic.value.DoubleValue
-55.425

@<SCITEGIC>MOL_PROPERTY
W(PB)
SciTegic.value.DoubleValue
-57.542

@<SCITEGIC>MOL_PROPERTY
W(SA)
SciTegic.value.DoubleValue
2.116

@<SCITEGIC>MOL_PROPERTY
Valence
SciTegic.value.DoubleValue
2.583

@<SCITEGIC>MOL_PROPERTY
Coulomb
SciTegic.value.DoubleValue
44.791

@<SCITEGIC>MOL_PROPERTY
VdW
SciTegic.value.DoubleValue
0.673

@<SCITEGIC>MOL_PROPERTY
VdW6
SciTegic.value.DoubleValue
-5.788

@<SCITEGIC>MOL_PROPERTY
VdW12
SciTegic.value.DoubleValue
6.462

@<SCITEGIC>MOL_PROPERTY
Bond
SciTegic.value.DoubleValue
0.177

@<SCITEGIC>MOL_PROPERTY
Angle
SciTegic.value.DoubleValue
0.787

@<SCITEGIC>MOL_PROPERTY
Pdih
SciTegic.value.DoubleValue
1.619

@<SCITEGIC>MOL_PROPERTY
Idih
SciTegic.value.DoubleValue
0.000

@<SCITEGIC>MOL_PROPERTY
Tether
SciTegic.value.DoubleValue
0.000

@<TRIPOS>MOLECULE
guest-2_confgen4.mol2 : confsearch ligand conformer 467
          23          22           1
SMALL
USER_CHARGES
 
@<TRIPOS>ATOM
       1    N1      21.898097   19.412995   19.768080 N.4        1 MOL1        -0.5940
       2    H1      21.634638   20.249807   19.237821 H          1 MOL1         0.3649
       3    H2      22.145952   18.691661   19.082315 H          1 MOL1         0.3649
       4    H3      22.754220   19.640207   20.284085 H          1 MOL1         0.3649
       5    C1      20.786681   18.954874   20.690389 C.3        1 MOL1         0.0207
       6    H4      21.124522   18.046905   21.196329 H          1 MOL1         0.0950
       7    H5      19.919080   18.703381   20.074410 H          1 MOL1         0.0950
       8    C2      20.391198   20.017837   21.732903 C.3        1 MOL1        -0.1415
       9    H6      21.261990   20.269969   22.352691 H          1 MOL1         0.0976
      10    H7      20.099849   20.939094   21.211033 H          1 MOL1         0.0976
      11    C3      19.221854   19.564440   22.638818 C.3        1 MOL1        -0.1375
      12    H8      18.349097   19.322321   22.016690 H          1 MOL1         0.0976
      13    H9      18.928226   20.412785   23.270527 H          1 MOL1         0.0976
      14    C4      19.580659   18.350179   23.532912 C.3        1 MOL1        -0.1375
      15    H10     19.897890   17.509906   22.901397 H          1 MOL1         0.0976
      16    H11     20.440494   18.600109   24.169653 H          1 MOL1         0.0976
      17    C5      18.405711   17.868970   24.418607 C.3        1 MOL1        -0.1350
      18    H12     18.705460   16.942058   24.927386 H          1 MOL1         0.0976
      19    H13     17.545934   17.607447   23.786003 H          1 MOL1         0.0976
      20    C6      17.972842   18.901924   25.483979 C.3        1 MOL1        -0.2365
      21    H14     17.545499   19.801590   25.024375 H          1 MOL1         0.0987
      22    H15     18.822962   19.204773   26.108950 H          1 MOL1         0.0987
      23    H16     17.207035   18.474422   26.144074 H          1 MOL1         0.0987
@<TRIPOS>BOND
    1     1     2    1
    2     1     3    1
    3     1     4    1
    4     1     5    1
    5     5     6    1
    6     5     7    1
    7     5     8    1
    8     8     9    1
    9     8    10    1
   10     8    11    1
   11    11    12    1
   12    11    13    1
   13    11    14    1
   14    14    15    1
   15    14    16    1
   16    14    17    1
   17    17    18    1
   18    17    19    1
   19    17    20    1
   20    20    21    1
   21    20    22    1
   22    20    23    1
@<TRIPOS>SUBSTRUCTURE
       1 MOL1            1 RESIDUE      1      MOL     
@<SCITEGIC>MOL_PROPERTY
VConf Rank
SciTegic.value.IntegerValue
467

@<SCITEGIC>MOL_PROPERTY
Conf_Id
SciTegic.value.IntegerValue
92

@<SCITEGIC>MOL_PROPERTY
Delta U+W
SciTegic.value.DoubleValue
0.973

@<SCITEGIC>MOL_PROPERTY
U+W
SciTegic.value.DoubleValue
-7.409

@<SCITEGIC>MOL_PROPERTY
Grad RMS
SciTegic.value.DoubleValue
0.000000

@<SCITEGIC>MOL_PROPERTY
U
SciTegic.value.DoubleValue
48.047

@<SCITEGIC>MOL_PROPERTY
W
SciTegic.value.DoubleValue
-55.456

@<SCITEGIC>MOL_PROPERTY
W(PB)
SciTegic.value.DoubleValue
-57.595

@<SCITEGIC>MOL_PROPERTY
W(SA)
SciTegic.value.DoubleValue
2.138

@<SCITEGIC>MOL_PROPERTY
Valence
SciTegic.value.DoubleValue
2.583

@<SCITEGIC>MOL_PROPERTY
Coulomb
SciTegic.value.DoubleValue
44.791

@<SCITEGIC>MOL_PROPERTY
VdW
SciTegic.value.DoubleValue
0.674

@<SCITEGIC>MOL_PROPERTY
VdW6
SciTegic.value.DoubleValue
-5.789

@<SCITEGIC>MOL_PROPERTY
VdW12
SciTegic.value.DoubleValue
6.462

@<SCITEGIC>MOL_PROPERTY
Bond
SciTegic.value.DoubleValue
0.177

@<SCITEGIC>MOL_PROPERTY
Angle
SciTegic.value.DoubleValue
0.787

@<SCITEGIC>MOL_PROPERTY
Pdih
SciTegic.value.DoubleValue
1.619

@<SCITEGIC>MOL_PROPERTY
Idih
SciTegic.value.DoubleValue
0.000

@<SCITEGIC>MOL_PROPERTY
Tether
SciTegic.value.DoubleValue
0.000

@<TRIPOS>MOLECULE
guest-2_confgen4.mol2 : confsearch ligand conformer 468
          23          22           1
SMALL
USER_CHARGES
 
@<TRIPOS>ATOM
       1    N1      20.782447   21.892424   20.904946 N.4        1 MOL1        -0.5940
       2    H1      20.129914   22.663406   20.726561 H          1 MOL1         0.3649
       3    H2      21.319619   21.751754   20.043254 H          1 MOL1         0.3649
       4    H3      21.440248   22.218390   21.620407 H          1 MOL1         0.3649
       5    C1      20.060234   20.631183   21.333259 C.3        1 MOL1         0.0207
       6    H4      19.358520   20.358224   20.540473 H          1 MOL1         0.0950
       7    H5      19.487694   20.862704   22.235085 H          1 MOL1         0.0950
       8    C2      21.014218   19.453537   21.608800 C.3        1 MOL1        -0.1415
       9    H6      21.614456   19.260324   20.709729 H          1 MOL1         0.0976
      10    H7      21.719527   19.728079   22.404514 H          1 MOL1         0.0976
      11    C3      20.266552   18.157356   22.001156 C.3        1 MOL1        -0.1375
      12    H8      20.998042   17.342269   22.090636 H          1 MOL1         0.0976
      13    H9      19.580289   17.871064   21.192003 H          1 MOL1         0.0976
      14    C4      19.483002   18.285730   23.329701 C.3        1 MOL1        -0.1375
      15    H10     20.165861   18.604158   24.129529 H          1 MOL1         0.0976
      16    H11     18.714254   19.064698   23.238641 H          1 MOL1         0.0976
      17    C5      18.809265   16.954138   23.729341 C.3        1 MOL1        -0.1350
      18    H12     19.570910   16.168400   23.831674 H          1 MOL1         0.0976
      19    H13     18.125341   16.630513   22.932163 H          1 MOL1         0.0976
      20    C6      18.027005   17.083666   25.053672 C.3        1 MOL1        -0.2365
      21    H14     18.691522   17.373935   25.877921 H          1 MOL1         0.0987
      22    H15     17.556408   16.128585   25.320888 H          1 MOL1         0.0987
      23    H16     17.234070   17.838492   24.971743 H          1 MOL1         0.0987
@<TRIPOS>BOND
    1     1     2    1
    2     1     3    1
    3     1     4    1
    4     1     5    1
    5     5     6    1
    6     5     7    1
    7     5     8    1
    8     8     9    1
    9     8    10    1
   10     8    11    1
   11    11    12    1
   12    11    13    1
   13    11    14    1
   14    14    15    1
   15    14    16    1
   16    14    17    1
   17    17    18    1
   18    17    19    1
   19    17    20    1
   20    20    21    1
   21    20    22    1
   22    20    23    1
@<TRIPOS>SUBSTRUCTURE
       1 MOL1            1 RESIDUE      1      MOL     
@<SCITEGIC>MOL_PROPERTY
VConf Rank
SciTegic.value.IntegerValue
468

@<SCITEGIC>MOL_PROPERTY
Conf_Id
SciTegic.value.IntegerValue
42

@<SCITEGIC>MOL_PROPERTY
Delta U+W
SciTegic.value.DoubleValue
0.365

@<SCITEGIC>MOL_PROPERTY
U+W
SciTegic.value.DoubleValue
-8.017

@<SCITEGIC>MOL_PROPERTY
Grad RMS
SciTegic.value.DoubleValue
0.000000

@<SCITEGIC>MOL_PROPERTY
U
SciTegic.value.DoubleValue
47.375

@<SCITEGIC>MOL_PROPERTY
W
SciTegic.value.DoubleValue
-55.392

@<SCITEGIC>MOL_PROPERTY
W(PB)
SciTegic.value.DoubleValue
-57.543

@<SCITEGIC>MOL_PROPERTY
W(SA)
SciTegic.value.DoubleValue
2.152

@<SCITEGIC>MOL_PROPERTY
Valence
SciTegic.value.DoubleValue
2.032

@<SCITEGIC>MOL_PROPERTY
Coulomb
SciTegic.value.DoubleValue
44.843

@<SCITEGIC>MOL_PROPERTY
VdW
SciTegic.value.DoubleValue
0.499

@<SCITEGIC>MOL_PROPERTY
VdW6
SciTegic.value.DoubleValue
-5.218

@<SCITEGIC>MOL_PROPERTY
VdW12
SciTegic.value.DoubleValue
5.717

@<SCITEGIC>MOL_PROPERTY
Bond
SciTegic.value.DoubleValue
0.135

@<SCITEGIC>MOL_PROPERTY
Angle
SciTegic.value.DoubleValue
0.514

@<SCITEGIC>MOL_PROPERTY
Pdih
SciTegic.value.DoubleValue
1.383

@<SCITEGIC>MOL_PROPERTY
Idih
SciTegic.value.DoubleValue
0.000

@<SCITEGIC>MOL_PROPERTY
Tether
SciTegic.value.DoubleValue
0.000

@<TRIPOS>MOLECULE
guest-2_confgen4.mol2 : confsearch ligand conformer 469
          23          22           1
SMALL
USER_CHARGES
 
@<TRIPOS>ATOM
       1    N1      18.505037   21.906543   22.635994 N.4        1 MOL1        -0.5940
       2    H1      18.989495   22.182900   21.776017 H          1 MOL1         0.3649
       3    H2      18.182342   22.769077   23.087493 H          1 MOL1         0.3649
       4    H3      17.669028   21.383835   22.358025 H          1 MOL1         0.3649
       5    C1      19.400189   21.093530   23.551032 C.3        1 MOL1         0.0207
       6    H4      18.834075   20.852857   24.454920 H          1 MOL1         0.0950
       7    H5      20.243510   21.728199   23.836650 H          1 MOL1         0.0950
       8    C2      19.932697   19.796464   22.911276 C.3        1 MOL1        -0.1415
       9    H6      20.477274   20.038376   21.989015 H          1 MOL1         0.0976
      10    H7      20.658070   19.354073   23.604992 H          1 MOL1         0.0976
      11    C3      18.811458   18.770607   22.615899 C.3        1 MOL1        -0.1375
      12    H8      18.032250   19.246523   22.006251 H          1 MOL1         0.0976
      13    H9      18.326914   18.479896   23.558295 H          1 MOL1         0.0976
      14    C4      19.289501   17.498180   21.869264 C.3        1 MOL1        -0.1375
      15    H10     18.404607   16.874834   21.679824 H          1 MOL1         0.0976
      16    H11     19.679013   17.766289   20.877486 H          1 MOL1         0.0976
      17    C5      20.326884   16.640496   22.639105 C.3        1 MOL1        -0.1350
      18    H12     20.130480   15.580044   22.427354 H          1 MOL1         0.0976
      19    H13     20.193764   16.761037   23.723240 H          1 MOL1         0.0976
      20    C6      21.790272   16.942291   22.239512 C.3        1 MOL1        -0.2365
      21    H14     21.951409   16.751438   21.170555 H          1 MOL1         0.0987
      22    H15     22.481558   16.299528   22.799775 H          1 MOL1         0.0987
      23    H16     22.067429   17.982805   22.441088 H          1 MOL1         0.0987
@<TRIPOS>BOND
    1     1     2    1
    2     1     3    1
    3     1     4    1
    4     1     5    1
    5     5     6    1
    6     5     7    1
    7     5     8    1
    8     8     9    1
    9     8    10    1
   10     8    11    1
   11    11    12    1
   12    11    13    1
   13    11    14    1
   14    14    15    1
   15    14    16    1
   16    14    17    1
   17    17    18    1
   18    17    19    1
   19    17    20    1
   20    20    21    1
   21    20    22    1
   22    20    23    1
@<TRIPOS>SUBSTRUCTURE
       1 MOL1            1 RESIDUE      1      MOL     
@<SCITEGIC>MOL_PROPERTY
VConf Rank
SciTegic.value.IntegerValue
469

@<SCITEGIC>MOL_PROPERTY
Conf_Id
SciTegic.value.IntegerValue
3

@<SCITEGIC>MOL_PROPERTY
Delta U+W
SciTegic.value.DoubleValue
3.283

@<SCITEGIC>MOL_PROPERTY
U+W
SciTegic.value.DoubleValue
-5.099

@<SCITEGIC>MOL_PROPERTY
Grad RMS
SciTegic.value.DoubleValue
0.000000

@<SCITEGIC>MOL_PROPERTY
U
SciTegic.value.DoubleValue
50.701

@<SCITEGIC>MOL_PROPERTY
W
SciTegic.value.DoubleValue
-55.800

@<SCITEGIC>MOL_PROPERTY
W(PB)
SciTegic.value.DoubleValue
-57.867

@<SCITEGIC>MOL_PROPERTY
W(SA)
SciTegic.value.DoubleValue
2.067

@<SCITEGIC>MOL_PROPERTY
Valence
SciTegic.value.DoubleValue
4.880

@<SCITEGIC>MOL_PROPERTY
Coulomb
SciTegic.value.DoubleValue
45.095

@<SCITEGIC>MOL_PROPERTY
VdW
SciTegic.value.DoubleValue
0.726

@<SCITEGIC>MOL_PROPERTY
VdW6
SciTegic.value.DoubleValue
-6.620

@<SCITEGIC>MOL_PROPERTY
VdW12
SciTegic.value.DoubleValue
7.346

@<SCITEGIC>MOL_PROPERTY
Bond
SciTegic.value.DoubleValue
0.222

@<SCITEGIC>MOL_PROPERTY
Angle
SciTegic.value.DoubleValue
1.260

@<SCITEGIC>MOL_PROPERTY
Pdih
SciTegic.value.DoubleValue
3.398

@<SCITEGIC>MOL_PROPERTY
Idih
SciTegic.value.DoubleValue
0.000

@<SCITEGIC>MOL_PROPERTY
Tether
SciTegic.value.DoubleValue
0.000

@<TRIPOS>MOLECULE
guest-2_confgen4.mol2 : confsearch ligand conformer 470
          23          22           1
SMALL
USER_CHARGES
 
@<TRIPOS>ATOM
       1    N1      22.233982   17.789636   23.527718 N.4        1 MOL1        -0.5940
       2    H1      22.610049   18.209939   24.383564 H          1 MOL1         0.3649
       3    H2      22.839768   16.996122   23.292788 H          1 MOL1         0.3649
       4    H3      21.312021   17.406602   23.757659 H          1 MOL1         0.3649
       5    C1      22.155871   18.793751   22.394605 C.3        1 MOL1         0.0207
       6    H4      21.778379   18.276821   21.508731 H          1 MOL1         0.0950
       7    H5      23.172936   19.133101   22.180252 H          1 MOL1         0.0950
       8    C2      21.265500   20.013838   22.707497 C.3        1 MOL1        -0.1415
       9    H6      21.685795   20.552254   23.567302 H          1 MOL1         0.0976
      10    H7      21.311033   20.709928   21.859414 H          1 MOL1         0.0976
      11    C3      19.784910   19.661375   22.999509 C.3        1 MOL1        -0.1375
      12    H8      19.256974   20.591160   23.247819 H          1 MOL1         0.0976
      13    H9      19.720839   19.025795   23.892638 H          1 MOL1         0.0976
      14    C4      19.077108   18.965942   21.808788 C.3        1 MOL1        -0.1375
      15    H10     19.117972   19.615212   20.923379 H          1 MOL1         0.0976
      16    H11     19.618528   18.048282   21.543985 H          1 MOL1         0.0976
      17    C5      17.605312   18.586970   22.103137 C.3        1 MOL1        -0.1350
      18    H12     17.559133   17.928411   22.981712 H          1 MOL1         0.0976
      19    H13     17.217879   17.999669   21.258841 H          1 MOL1         0.0976
      20    C6      16.684965   19.809700   22.320489 C.3        1 MOL1        -0.2365
      21    H14     16.738809   20.500892   21.469395 H          1 MOL1         0.0987
      22    H15     16.953830   20.361331   23.229698 H          1 MOL1         0.0987
      23    H16     15.640367   19.489635   22.426824 H          1 MOL1         0.0987
@<TRIPOS>BOND
    1     1     2    1
    2     1     3    1
    3     1     4    1
    4     1     5    1
    5     5     6    1
    6     5     7    1
    7     5     8    1
    8     8     9    1
    9     8    10    1
   10     8    11    1
   11    11    12    1
   12    11    13    1
   13    11    14    1
   14    14    15    1
   15    14    16    1
   16    14    17    1
   17    17    18    1
   18    17    19    1
   19    17    20    1
   20    20    21    1
   21    20    22    1
   22    20    23    1
@<TRIPOS>SUBSTRUCTURE
       1 MOL1            1 RESIDUE      1      MOL     
@<SCITEGIC>MOL_PROPERTY
VConf Rank
SciTegic.value.IntegerValue
470

@<SCITEGIC>MOL_PROPERTY
Conf_Id
SciTegic.value.IntegerValue
83

@<SCITEGIC>MOL_PROPERTY
Delta U+W
SciTegic.value.DoubleValue
1.229

@<SCITEGIC>MOL_PROPERTY
U+W
SciTegic.value.DoubleValue
-7.154

@<SCITEGIC>MOL_PROPERTY
Grad RMS
SciTegic.value.DoubleValue
0.000000

@<SCITEGIC>MOL_PROPERTY
U
SciTegic.value.DoubleValue
48.727

@<SCITEGIC>MOL_PROPERTY
W
SciTegic.value.DoubleValue
-55.880

@<SCITEGIC>MOL_PROPERTY
W(PB)
SciTegic.value.DoubleValue
-57.960

@<SCITEGIC>MOL_PROPERTY
W(SA)
SciTegic.value.DoubleValue
2.080

@<SCITEGIC>MOL_PROPERTY
Valence
SciTegic.value.DoubleValue
2.671

@<SCITEGIC>MOL_PROPERTY
Coulomb
SciTegic.value.DoubleValue
45.371

@<SCITEGIC>MOL_PROPERTY
VdW
SciTegic.value.DoubleValue
0.684

@<SCITEGIC>MOL_PROPERTY
VdW6
SciTegic.value.DoubleValue
-6.511

@<SCITEGIC>MOL_PROPERTY
VdW12
SciTegic.value.DoubleValue
7.195

@<SCITEGIC>MOL_PROPERTY
Bond
SciTegic.value.DoubleValue
0.203

@<SCITEGIC>MOL_PROPERTY
Angle
SciTegic.value.DoubleValue
0.915

@<SCITEGIC>MOL_PROPERTY
Pdih
SciTegic.value.DoubleValue
1.554

@<SCITEGIC>MOL_PROPERTY
Idih
SciTegic.value.DoubleValue
0.000

@<SCITEGIC>MOL_PROPERTY
Tether
SciTegic.value.DoubleValue
0.000

@<TRIPOS>MOLECULE
guest-2_confgen4.mol2 : confsearch ligand conformer 471
          23          22           1
SMALL
USER_CHARGES
 
@<TRIPOS>ATOM
       1    N1      18.220940   20.492676   24.598111 N.4        1 MOL1        -0.5940
       2    H1      17.400829   20.982109   24.226055 H          1 MOL1         0.3649
       3    H2      19.046944   20.901111   24.150339 H          1 MOL1         0.3649
       4    H3      18.276900   20.718908   25.596872 H          1 MOL1         0.3649
       5    C1      18.138950   18.997280   24.362818 C.3        1 MOL1         0.0207
       6    H4      17.258959   18.624752   24.894198 H          1 MOL1         0.0950
       7    H5      19.023457   18.534853   24.808126 H          1 MOL1         0.0950
       8    C2      18.039027   18.608408   22.873498 C.3        1 MOL1        -0.1415
       9    H6      17.929077   17.518240   22.800670 H          1 MOL1         0.0976
      10    H7      17.119573   19.036773   22.452889 H          1 MOL1         0.0976
      11    C3      19.250100   19.057533   22.017206 C.3        1 MOL1        -0.1375
      12    H8      19.325015   20.153035   22.020792 H          1 MOL1         0.0976
      13    H9      19.056170   18.768088   20.976299 H          1 MOL1         0.0976
      14    C4      20.591587   18.438375   22.485698 C.3        1 MOL1        -0.1375
      15    H10     20.774552   18.707213   23.534318 H          1 MOL1         0.0976
      16    H11     20.524115   17.342165   22.455012 H          1 MOL1         0.0976
      17    C5      21.809567   18.903853   21.651253 C.3        1 MOL1        -0.1350
      18    H12     22.725160   18.514894   22.118440 H          1 MOL1         0.0976
      19    H13     21.888486   19.999395   21.687114 H          1 MOL1         0.0976
      20    C6      21.765329   18.433294   20.179533 C.3        1 MOL1        -0.2365
      21    H14     21.653161   17.343128   20.116580 H          1 MOL1         0.0987
      22    H15     22.694212   18.705161   19.661652 H          1 MOL1         0.0987
      23    H16     20.935827   18.897068   19.631735 H          1 MOL1         0.0987
@<TRIPOS>BOND
    1     1     2    1
    2     1     3    1
    3     1     4    1
    4     1     5    1
    5     5     6    1
    6     5     7    1
    7     5     8    1
    8     8     9    1
    9     8    10    1
   10     8    11    1
   11    11    12    1
   12    11    13    1
   13    11    14    1
   14    14    15    1
   15    14    16    1
   16    14    17    1
   17    17    18    1
   18    17    19    1
   19    17    20    1
   20    20    21    1
   21    20    22    1
   22    20    23    1
@<TRIPOS>SUBSTRUCTURE
       1 MOL1            1 RESIDUE      1      MOL     
@<SCITEGIC>MOL_PROPERTY
VConf Rank
SciTegic.value.IntegerValue
471

@<SCITEGIC>MOL_PROPERTY
Conf_Id
SciTegic.value.IntegerValue
50

@<SCITEGIC>MOL_PROPERTY
Delta U+W
SciTegic.value.DoubleValue
1.252

@<SCITEGIC>MOL_PROPERTY
U+W
SciTegic.value.DoubleValue
-7.130

@<SCITEGIC>MOL_PROPERTY
Grad RMS
SciTegic.value.DoubleValue
0.000000

@<SCITEGIC>MOL_PROPERTY
U
SciTegic.value.DoubleValue
48.727

@<SCITEGIC>MOL_PROPERTY
W
SciTegic.value.DoubleValue
-55.857

@<SCITEGIC>MOL_PROPERTY
W(PB)
SciTegic.value.DoubleValue
-57.937

@<SCITEGIC>MOL_PROPERTY
W(SA)
SciTegic.value.DoubleValue
2.080

@<SCITEGIC>MOL_PROPERTY
Valence
SciTegic.value.DoubleValue
2.671

@<SCITEGIC>MOL_PROPERTY
Coulomb
SciTegic.value.DoubleValue
45.371

@<SCITEGIC>MOL_PROPERTY
VdW
SciTegic.value.DoubleValue
0.684

@<SCITEGIC>MOL_PROPERTY
VdW6
SciTegic.value.DoubleValue
-6.511

@<SCITEGIC>MOL_PROPERTY
VdW12
SciTegic.value.DoubleValue
7.196

@<SCITEGIC>MOL_PROPERTY
Bond
SciTegic.value.DoubleValue
0.203

@<SCITEGIC>MOL_PROPERTY
Angle
SciTegic.value.DoubleValue
0.915

@<SCITEGIC>MOL_PROPERTY
Pdih
SciTegic.value.DoubleValue
1.554

@<SCITEGIC>MOL_PROPERTY
Idih
SciTegic.value.DoubleValue
0.000

@<SCITEGIC>MOL_PROPERTY
Tether
SciTegic.value.DoubleValue
0.000

@<TRIPOS>MOLECULE
guest-2_confgen4.mol2 : confsearch ligand conformer 472
          23          22           1
SMALL
USER_CHARGES
 
@<TRIPOS>ATOM
       1    N1      18.976736   15.977725   22.528164 N.4        1 MOL1        -0.5940
       2    H1      19.822720   15.963524   23.105782 H          1 MOL1         0.3649
       3    H2      18.972301   15.109566   21.982079 H          1 MOL1         0.3649
       4    H3      18.174336   15.934445   23.164486 H          1 MOL1         0.3649
       5    C1      18.924185   17.203387   21.636968 C.3        1 MOL1         0.0207
       6    H4      18.021295   17.129286   21.024699 H          1 MOL1         0.0950
       7    H5      19.790547   17.175852   20.970582 H          1 MOL1         0.0950
       8    C2      18.908028   18.535719   22.411170 C.3        1 MOL1        -0.1415
       9    H6      18.758880   19.348403   21.691473 H          1 MOL1         0.0976
      10    H7      18.039357   18.556361   23.082551 H          1 MOL1         0.0976
      11    C3      20.207092   18.769994   23.223711 C.3        1 MOL1        -0.1375
      12    H8      21.088332   18.656905   22.577195 H          1 MOL1         0.0976
      13    H9      20.286944   17.985050   23.987565 H          1 MOL1         0.0976
      14    C4      20.245759   20.145942   23.938818 C.3        1 MOL1        -0.1375
      15    H10     19.227477   20.476665   24.185630 H          1 MOL1         0.0976
      16    H11     20.756098   20.016221   24.903297 H          1 MOL1         0.0976
      17    C5      20.994519   21.259245   23.162209 C.3        1 MOL1        -0.1350
      18    H12     22.041273   20.961411   23.009324 H          1 MOL1         0.0976
      19    H13     21.023994   22.161697   23.788727 H          1 MOL1         0.0976
      20    C6      20.361593   21.622394   21.801121 C.3        1 MOL1        -0.2365
      21    H14     19.297721   21.868845   21.911905 H          1 MOL1         0.0987
      22    H15     20.457482   20.797761   21.084142 H          1 MOL1         0.0987
      23    H16     20.864569   22.495248   21.365197 H          1 MOL1         0.0987
@<TRIPOS>BOND
    1     1     2    1
    2     1     3    1
    3     1     4    1
    4     1     5    1
    5     5     6    1
    6     5     7    1
    7     5     8    1
    8     8     9    1
    9     8    10    1
   10     8    11    1
   11    11    12    1
   12    11    13    1
   13    11    14    1
   14    14    15    1
   15    14    16    1
   16    14    17    1
   17    17    18    1
   18    17    19    1
   19    17    20    1
   20    20    21    1
   21    20    22    1
   22    20    23    1
@<TRIPOS>SUBSTRUCTURE
       1 MOL1            1 RESIDUE      1      MOL     
@<SCITEGIC>MOL_PROPERTY
VConf Rank
SciTegic.value.IntegerValue
472

@<SCITEGIC>MOL_PROPERTY
Conf_Id
SciTegic.value.IntegerValue
55

@<SCITEGIC>MOL_PROPERTY
Delta U+W
SciTegic.value.DoubleValue
3.232

@<SCITEGIC>MOL_PROPERTY
U+W
SciTegic.value.DoubleValue
-5.150

@<SCITEGIC>MOL_PROPERTY
Grad RMS
SciTegic.value.DoubleValue
0.000000

@<SCITEGIC>MOL_PROPERTY
U
SciTegic.value.DoubleValue
50.625

@<SCITEGIC>MOL_PROPERTY
W
SciTegic.value.DoubleValue
-55.776

@<SCITEGIC>MOL_PROPERTY
W(PB)
SciTegic.value.DoubleValue
-57.839

@<SCITEGIC>MOL_PROPERTY
W(SA)
SciTegic.value.DoubleValue
2.064

@<SCITEGIC>MOL_PROPERTY
Valence
SciTegic.value.DoubleValue
4.837

@<SCITEGIC>MOL_PROPERTY
Coulomb
SciTegic.value.DoubleValue
45.097

@<SCITEGIC>MOL_PROPERTY
VdW
SciTegic.value.DoubleValue
0.692

@<SCITEGIC>MOL_PROPERTY
VdW6
SciTegic.value.DoubleValue
-6.655

@<SCITEGIC>MOL_PROPERTY
VdW12
SciTegic.value.DoubleValue
7.347

@<SCITEGIC>MOL_PROPERTY
Bond
SciTegic.value.DoubleValue
0.223

@<SCITEGIC>MOL_PROPERTY
Angle
SciTegic.value.DoubleValue
1.167

@<SCITEGIC>MOL_PROPERTY
Pdih
SciTegic.value.DoubleValue
3.447

@<SCITEGIC>MOL_PROPERTY
Idih
SciTegic.value.DoubleValue
0.000

@<SCITEGIC>MOL_PROPERTY
Tether
SciTegic.value.DoubleValue
0.000

@<TRIPOS>MOLECULE
guest-2_confgen4.mol2 : confsearch ligand conformer 473
          23          22           1
SMALL
USER_CHARGES
 
@<TRIPOS>ATOM
       1    N1      22.412147   19.921001   21.039019 N.4        1 MOL1        -0.5940
       2    H1      22.961482   20.740672   21.316865 H          1 MOL1         0.3649
       3    H2      22.444006   19.874615   20.014894 H          1 MOL1         0.3649
       4    H3      22.905839   19.094234   21.390417 H          1 MOL1         0.3649
       5    C1      20.989602   19.992609   21.555629 C.3        1 MOL1         0.0207
       6    H4      20.458366   19.110940   21.192603 H          1 MOL1         0.0950
       7    H5      20.518136   20.877685   21.120014 H          1 MOL1         0.0950
       8    C2      20.910211   20.070390   23.092974 C.3        1 MOL1        -0.1415
       9    H6      21.420987   19.210367   23.546109 H          1 MOL1         0.0976
      10    H7      21.460379   20.963767   23.417338 H          1 MOL1         0.0976
      11    C3      19.457186   20.167178   23.622893 C.3        1 MOL1        -0.1375
      12    H8      18.852522   20.792565   22.951420 H          1 MOL1         0.0976
      13    H9      19.479071   20.699070   24.584199 H          1 MOL1         0.0976
      14    C4      18.754667   18.804770   23.859084 C.3        1 MOL1        -0.1375
      15    H10     19.312960   18.230730   24.611466 H          1 MOL1         0.0976
      16    H11     17.766793   19.001580   24.298187 H          1 MOL1         0.0976
      17    C5      18.574477   17.943944   22.587466 C.3        1 MOL1        -0.1350
      18    H12     19.553171   17.606032   22.222929 H          1 MOL1         0.0976
      19    H13     18.119031   18.546610   21.789317 H          1 MOL1         0.0976
      20    C6      17.694648   16.705004   22.858775 C.3        1 MOL1        -0.2365
      21    H14     16.689663   16.998291   23.189235 H          1 MOL1         0.0987
      22    H15     18.138057   16.068771   23.635850 H          1 MOL1         0.0987
      23    H16     17.586238   16.099961   21.949269 H          1 MOL1         0.0987
@<TRIPOS>BOND
    1     1     2    1
    2     1     3    1
    3     1     4    1
    4     1     5    1
    5     5     6    1
    6     5     7    1
    7     5     8    1
    8     8     9    1
    9     8    10    1
   10     8    11    1
   11    11    12    1
   12    11    13    1
   13    11    14    1
   14    14    15    1
   15    14    16    1
   16    14    17    1
   17    17    18    1
   18    17    19    1
   19    17    20    1
   20    20    21    1
   21    20    22    1
   22    20    23    1
@<TRIPOS>SUBSTRUCTURE
       1 MOL1            1 RESIDUE      1      MOL     
@<SCITEGIC>MOL_PROPERTY
VConf Rank
SciTegic.value.IntegerValue
473

@<SCITEGIC>MOL_PROPERTY
Conf_Id
SciTegic.value.IntegerValue
93

@<SCITEGIC>MOL_PROPERTY
Delta U+W
SciTegic.value.DoubleValue
2.589

@<SCITEGIC>MOL_PROPERTY
U+W
SciTegic.value.DoubleValue
-5.793

@<SCITEGIC>MOL_PROPERTY
Grad RMS
SciTegic.value.DoubleValue
0.000000

@<SCITEGIC>MOL_PROPERTY
U
SciTegic.value.DoubleValue
50.122

@<SCITEGIC>MOL_PROPERTY
W
SciTegic.value.DoubleValue
-55.915

@<SCITEGIC>MOL_PROPERTY
W(PB)
SciTegic.value.DoubleValue
-58.031

@<SCITEGIC>MOL_PROPERTY
W(SA)
SciTegic.value.DoubleValue
2.115

@<SCITEGIC>MOL_PROPERTY
Valence
SciTegic.value.DoubleValue
4.132

@<SCITEGIC>MOL_PROPERTY
Coulomb
SciTegic.value.DoubleValue
45.536

@<SCITEGIC>MOL_PROPERTY
VdW
SciTegic.value.DoubleValue
0.454

@<SCITEGIC>MOL_PROPERTY
VdW6
SciTegic.value.DoubleValue
-6.262

@<SCITEGIC>MOL_PROPERTY
VdW12
SciTegic.value.DoubleValue
6.715

@<SCITEGIC>MOL_PROPERTY
Bond
SciTegic.value.DoubleValue
0.182

@<SCITEGIC>MOL_PROPERTY
Angle
SciTegic.value.DoubleValue
1.157

@<SCITEGIC>MOL_PROPERTY
Pdih
SciTegic.value.DoubleValue
2.794

@<SCITEGIC>MOL_PROPERTY
Idih
SciTegic.value.DoubleValue
0.000

@<SCITEGIC>MOL_PROPERTY
Tether
SciTegic.value.DoubleValue
0.000

@<TRIPOS>MOLECULE
guest-2_confgen4.mol2 : confsearch ligand conformer 474
          23          22           1
SMALL
USER_CHARGES
 
@<TRIPOS>ATOM
       1    N1      22.679056   19.929333   22.309819 N.4        1 MOL1        -0.5940
       2    H1      22.879532   19.563140   23.246018 H          1 MOL1         0.3649
       3    H2      22.908584   20.928875   22.325002 H          1 MOL1         0.3649
       4    H3      23.338051   19.482600   21.664076 H          1 MOL1         0.3649
       5    C1      21.239255   19.688139   21.904301 C.3        1 MOL1         0.0207
       6    H4      21.090979   20.127562   20.914189 H          1 MOL1         0.0950
       7    H5      20.600216   20.219974   22.611493 H          1 MOL1         0.0950
       8    C2      20.866713   18.192980   21.865563 C.3        1 MOL1        -0.1415
       9    H6      21.534441   17.694359   21.150345 H          1 MOL1         0.0976
      10    H7      21.054664   17.726796   22.841888 H          1 MOL1         0.0976
      11    C3      19.401212   17.942393   21.428555 C.3        1 MOL1        -0.1375
      12    H8      19.350817   16.952295   20.954566 H          1 MOL1         0.0976
      13    H9      19.113277   18.660149   20.647834 H          1 MOL1         0.0976
      14    C4      18.362481   17.962081   22.580129 C.3        1 MOL1        -0.1375
      15    H10     17.381009   17.703406   22.159129 H          1 MOL1         0.0976
      16    H11     18.601923   17.169549   23.302522 H          1 MOL1         0.0976
      17    C5      18.248292   19.314020   23.321562 C.3        1 MOL1        -0.1350
      18    H12     18.122739   20.129315   22.595473 H          1 MOL1         0.0976
      19    H13     19.172248   19.513626   23.879575 H          1 MOL1         0.0976
      20    C6      17.063236   19.322453   24.310629 C.3        1 MOL1        -0.2365
      21    H14     17.003538   20.284593   24.835751 H          1 MOL1         0.0987
      22    H15     17.173702   18.532928   25.065412 H          1 MOL1         0.0987
      23    H16     16.110731   19.165035   23.787974 H          1 MOL1         0.0987
@<TRIPOS>BOND
    1     1     2    1
    2     1     3    1
    3     1     4    1
    4     1     5    1
    5     5     6    1
    6     5     7    1
    7     5     8    1
    8     8     9    1
    9     8    10    1
   10     8    11    1
   11    11    12    1
   12    11    13    1
   13    11    14    1
   14    14    15    1
   15    14    16    1
   16    14    17    1
   17    17    18    1
   18    17    19    1
   19    17    20    1
   20    20    21    1
   21    20    22    1
   22    20    23    1
@<TRIPOS>SUBSTRUCTURE
       1 MOL1            1 RESIDUE      1      MOL     
@<SCITEGIC>MOL_PROPERTY
VConf Rank
SciTegic.value.IntegerValue
474

@<SCITEGIC>MOL_PROPERTY
Conf_Id
SciTegic.value.IntegerValue
70

@<SCITEGIC>MOL_PROPERTY
Delta U+W
SciTegic.value.DoubleValue
2.599

@<SCITEGIC>MOL_PROPERTY
U+W
SciTegic.value.DoubleValue
-5.783

@<SCITEGIC>MOL_PROPERTY
Grad RMS
SciTegic.value.DoubleValue
0.000000

@<SCITEGIC>MOL_PROPERTY
U
SciTegic.value.DoubleValue
50.122

@<SCITEGIC>MOL_PROPERTY
W
SciTegic.value.DoubleValue
-55.906

@<SCITEGIC>MOL_PROPERTY
W(PB)
SciTegic.value.DoubleValue
-58.010

@<SCITEGIC>MOL_PROPERTY
W(SA)
SciTegic.value.DoubleValue
2.105

@<SCITEGIC>MOL_PROPERTY
Valence
SciTegic.value.DoubleValue
4.132

@<SCITEGIC>MOL_PROPERTY
Coulomb
SciTegic.value.DoubleValue
45.536

@<SCITEGIC>MOL_PROPERTY
VdW
SciTegic.value.DoubleValue
0.454

@<SCITEGIC>MOL_PROPERTY
VdW6
SciTegic.value.DoubleValue
-6.262

@<SCITEGIC>MOL_PROPERTY
VdW12
SciTegic.value.DoubleValue
6.715

@<SCITEGIC>MOL_PROPERTY
Bond
SciTegic.value.DoubleValue
0.182

@<SCITEGIC>MOL_PROPERTY
Angle
SciTegic.value.DoubleValue
1.157

@<SCITEGIC>MOL_PROPERTY
Pdih
SciTegic.value.DoubleValue
2.794

@<SCITEGIC>MOL_PROPERTY
Idih
SciTegic.value.DoubleValue
0.000

@<SCITEGIC>MOL_PROPERTY
Tether
SciTegic.value.DoubleValue
0.000

@<TRIPOS>MOLECULE
guest-2_confgen4.mol2 : confsearch ligand conformer 475
          23          22           1
SMALL
USER_CHARGES
 
@<TRIPOS>ATOM
       1    N1      21.920043   17.705917   24.002465 N.4        1 MOL1        -0.5940
       2    H1      22.450736   18.134875   24.767232 H          1 MOL1         0.3649
       3    H2      22.422652   16.854449   23.730162 H          1 MOL1         0.3649
       4    H3      21.017137   17.412788   24.387565 H          1 MOL1         0.3649
       5    C1      21.747791   18.656882   22.834463 C.3        1 MOL1         0.0207
       6    H4      21.206368   18.129992   22.044404 H          1 MOL1         0.0950
       7    H5      22.743583   18.904441   22.456827 H          1 MOL1         0.0950
       8    C2      21.000960   19.955520   23.199929 C.3        1 MOL1        -0.1415
       9    H6      21.571199   20.493217   23.968970 H          1 MOL1         0.0976
      10    H7      20.987112   20.614964   22.322799 H          1 MOL1         0.0976
      11    C3      19.551905   19.728355   23.705541 C.3        1 MOL1        -0.1375
      12    H8      19.088276   20.705006   23.901511 H          1 MOL1         0.0976
      13    H9      19.583414   19.215306   24.676119 H          1 MOL1         0.0976
      14    C4      18.643178   18.921331   22.742355 C.3        1 MOL1        -0.1375
      15    H10     19.042133   17.906989   22.608807 H          1 MOL1         0.0976
      16    H11     17.659170   18.799215   23.215803 H          1 MOL1         0.0976
      17    C5      18.455775   19.592964   21.361528 C.3        1 MOL1        -0.1350
      18    H12     19.419432   19.660831   20.839324 H          1 MOL1         0.0976
      19    H13     18.092546   20.621473   21.495496 H          1 MOL1         0.0976
      20    C6      17.461596   18.809879   20.477917 C.3        1 MOL1        -0.2365
      21    H14     17.342475   19.298260   19.502054 H          1 MOL1         0.0987
      22    H15     16.471891   18.754991   20.949790 H          1 MOL1         0.0987
      23    H16     17.813441   17.785112   20.301106 H          1 MOL1         0.0987
@<TRIPOS>BOND
    1     1     2    1
    2     1     3    1
    3     1     4    1
    4     1     5    1
    5     5     6    1
    6     5     7    1
    7     5     8    1
    8     8     9    1
    9     8    10    1
   10     8    11    1
   11    11    12    1
   12    11    13    1
   13    11    14    1
   14    14    15    1
   15    14    16    1
   16    14    17    1
   17    17    18    1
   18    17    19    1
   19    17    20    1
   20    20    21    1
   21    20    22    1
   22    20    23    1
@<TRIPOS>SUBSTRUCTURE
       1 MOL1            1 RESIDUE      1      MOL     
@<SCITEGIC>MOL_PROPERTY
VConf Rank
SciTegic.value.IntegerValue
475

@<SCITEGIC>MOL_PROPERTY
Conf_Id
SciTegic.value.IntegerValue
72

@<SCITEGIC>MOL_PROPERTY
Delta U+W
SciTegic.value.DoubleValue
1.051

@<SCITEGIC>MOL_PROPERTY
U+W
SciTegic.value.DoubleValue
-7.331

@<SCITEGIC>MOL_PROPERTY
Grad RMS
SciTegic.value.DoubleValue
0.000000

@<SCITEGIC>MOL_PROPERTY
U
SciTegic.value.DoubleValue
48.590

@<SCITEGIC>MOL_PROPERTY
W
SciTegic.value.DoubleValue
-55.922

@<SCITEGIC>MOL_PROPERTY
W(PB)
SciTegic.value.DoubleValue
-58.012

@<SCITEGIC>MOL_PROPERTY
W(SA)
SciTegic.value.DoubleValue
2.090

@<SCITEGIC>MOL_PROPERTY
Valence
SciTegic.value.DoubleValue
2.601

@<SCITEGIC>MOL_PROPERTY
Coulomb
SciTegic.value.DoubleValue
45.520

@<SCITEGIC>MOL_PROPERTY
VdW
SciTegic.value.DoubleValue
0.469

@<SCITEGIC>MOL_PROPERTY
VdW6
SciTegic.value.DoubleValue
-6.867

@<SCITEGIC>MOL_PROPERTY
VdW12
SciTegic.value.DoubleValue
7.336

@<SCITEGIC>MOL_PROPERTY
Bond
SciTegic.value.DoubleValue
0.205

@<SCITEGIC>MOL_PROPERTY
Angle
SciTegic.value.DoubleValue
0.962

@<SCITEGIC>MOL_PROPERTY
Pdih
SciTegic.value.DoubleValue
1.434

@<SCITEGIC>MOL_PROPERTY
Idih
SciTegic.value.DoubleValue
0.000

@<SCITEGIC>MOL_PROPERTY
Tether
SciTegic.value.DoubleValue
0.000

@<TRIPOS>MOLECULE
guest-2_confgen4.mol2 : confsearch ligand conformer 476
          23          22           1
SMALL
USER_CHARGES
 
@<TRIPOS>ATOM
       1    N1      18.619168   19.345759   19.715719 N.4        1 MOL1        -0.5940
       2    H1      17.717416   19.722615   19.404624 H          1 MOL1         0.3649
       3    H2      18.882850   18.614888   19.047077 H          1 MOL1         0.3649
       4    H3      19.305851   20.101125   19.623243 H          1 MOL1         0.3649
       5    C1      18.548685   18.815667   21.133349 C.3        1 MOL1         0.0207
       6    H4      17.781110   18.037761   21.165619 H          1 MOL1         0.0950
       7    H5      18.234678   19.636308   21.783642 H          1 MOL1         0.0950
       8    C2      19.888491   18.242152   21.631162 C.3        1 MOL1        -0.1415
       9    H6      20.212999   17.444332   20.950055 H          1 MOL1         0.0976
      10    H7      20.662828   19.018606   21.586975 H          1 MOL1         0.0976
      11    C3      19.796090   17.667245   23.066435 C.3        1 MOL1        -0.1375
      12    H8      20.773437   17.255933   23.352029 H          1 MOL1         0.0976
      13    H9      19.105416   16.812690   23.062391 H          1 MOL1         0.0976
      14    C4      19.324062   18.679776   24.144734 C.3        1 MOL1        -0.1375
      15    H10     18.281849   18.964227   23.946789 H          1 MOL1         0.0976
      16    H11     19.311035   18.172983   25.119496 H          1 MOL1         0.0976
      17    C5      20.181091   19.965867   24.261743 C.3        1 MOL1        -0.1350
      18    H12     19.746463   20.606428   25.041789 H          1 MOL1         0.0976
      19    H13     20.124699   20.545931   23.330903 H          1 MOL1         0.0976
      20    C6      21.659798   19.687029   24.614151 C.3        1 MOL1        -0.2365
      21    H14     21.740904   19.096594   25.535968 H          1 MOL1         0.0987
      22    H15     22.202357   20.628489   24.769473 H          1 MOL1         0.0987
      23    H16     22.168888   19.140938   23.810305 H          1 MOL1         0.0987
@<TRIPOS>BOND
    1     1     2    1
    2     1     3    1
    3     1     4    1
    4     1     5    1
    5     5     6    1
    6     5     7    1
    7     5     8    1
    8     8     9    1
    9     8    10    1
   10     8    11    1
   11    11    12    1
   12    11    13    1
   13    11    14    1
   14    14    15    1
   15    14    16    1
   16    14    17    1
   17    17    18    1
   18    17    19    1
   19    17    20    1
   20    20    21    1
   21    20    22    1
   22    20    23    1
@<TRIPOS>SUBSTRUCTURE
       1 MOL1            1 RESIDUE      1      MOL     
@<SCITEGIC>MOL_PROPERTY
VConf Rank
SciTegic.value.IntegerValue
476

@<SCITEGIC>MOL_PROPERTY
Conf_Id
SciTegic.value.IntegerValue
26

@<SCITEGIC>MOL_PROPERTY
Delta U+W
SciTegic.value.DoubleValue
1.076

@<SCITEGIC>MOL_PROPERTY
U+W
SciTegic.value.DoubleValue
-7.306

@<SCITEGIC>MOL_PROPERTY
Grad RMS
SciTegic.value.DoubleValue
0.000000

@<SCITEGIC>MOL_PROPERTY
U
SciTegic.value.DoubleValue
48.641

@<SCITEGIC>MOL_PROPERTY
W
SciTegic.value.DoubleValue
-55.947

@<SCITEGIC>MOL_PROPERTY
W(PB)
SciTegic.value.DoubleValue
-58.031

@<SCITEGIC>MOL_PROPERTY
W(SA)
SciTegic.value.DoubleValue
2.084

@<SCITEGIC>MOL_PROPERTY
Valence
SciTegic.value.DoubleValue
2.922

@<SCITEGIC>MOL_PROPERTY
Coulomb
SciTegic.value.DoubleValue
45.269

@<SCITEGIC>MOL_PROPERTY
VdW
SciTegic.value.DoubleValue
0.449

@<SCITEGIC>MOL_PROPERTY
VdW6
SciTegic.value.DoubleValue
-7.045

@<SCITEGIC>MOL_PROPERTY
VdW12
SciTegic.value.DoubleValue
7.494

@<SCITEGIC>MOL_PROPERTY
Bond
SciTegic.value.DoubleValue
0.220

@<SCITEGIC>MOL_PROPERTY
Angle
SciTegic.value.DoubleValue
1.205

@<SCITEGIC>MOL_PROPERTY
Pdih
SciTegic.value.DoubleValue
1.497

@<SCITEGIC>MOL_PROPERTY
Idih
SciTegic.value.DoubleValue
0.000

@<SCITEGIC>MOL_PROPERTY
Tether
SciTegic.value.DoubleValue
0.000

@<TRIPOS>MOLECULE
guest-2_confgen4.mol2 : confsearch ligand conformer 477
          23          22           1
SMALL
USER_CHARGES
 
@<TRIPOS>ATOM
       1    N1      20.104650   21.734346   21.127602 N.4        1 MOL1        -0.5940
       2    H1      19.229535   22.251755   20.996286 H          1 MOL1         0.3649
       3    H2      20.728522   22.004785   20.359744 H          1 MOL1         0.3649
       4    H3      20.531397   22.078391   21.993734 H          1 MOL1         0.3649
       5    C1      19.875381   20.237144   21.165749 C.3        1 MOL1         0.0207
       6    H4      20.848170   19.751054   21.276793 H          1 MOL1         0.0950
       7    H5      19.447630   19.936070   20.205680 H          1 MOL1         0.0950
       8    C2      18.941861   19.797883   22.309169 C.3        1 MOL1        -0.1415
       9    H6      19.363845   20.111073   23.272640 H          1 MOL1         0.0976
      10    H7      17.981111   20.320101   22.209286 H          1 MOL1         0.0976
      11    C3      18.682495   18.270877   22.315755 C.3        1 MOL1        -0.1375
      12    H8      18.150474   17.997535   21.394045 H          1 MOL1         0.0976
      13    H9      17.995412   18.026963   23.136958 H          1 MOL1         0.0976
      14    C4      19.958655   17.393758   22.429046 C.3        1 MOL1        -0.1375
      15    H10     19.657736   16.337122   22.440714 H          1 MOL1         0.0976
      16    H11     20.567412   17.516571   21.523157 H          1 MOL1         0.0976
      17    C5      20.843954   17.674818   23.669801 C.3        1 MOL1        -0.1350
      18    H12     21.244566   18.696484   23.627053 H          1 MOL1         0.0976
      19    H13     21.716853   17.008071   23.635325 H          1 MOL1         0.0976
      20    C6      20.106230   17.459188   25.010616 C.3        1 MOL1        -0.2365
      21    H14     19.288937   18.179411   25.140498 H          1 MOL1         0.0987
      22    H15     20.796609   17.586770   25.854382 H          1 MOL1         0.0987
      23    H16     19.685542   16.447097   25.070905 H          1 MOL1         0.0987
@<TRIPOS>BOND
    1     1     2    1
    2     1     3    1
    3     1     4    1
    4     1     5    1
    5     5     6    1
    6     5     7    1
    7     5     8    1
    8     8     9    1
    9     8    10    1
   10     8    11    1
   11    11    12    1
   12    11    13    1
   13    11    14    1
   14    14    15    1
   15    14    16    1
   16    14    17    1
   17    17    18    1
   18    17    19    1
   19    17    20    1
   20    20    21    1
   21    20    22    1
   22    20    23    1
@<TRIPOS>SUBSTRUCTURE
       1 MOL1            1 RESIDUE      1      MOL     
@<SCITEGIC>MOL_PROPERTY
VConf Rank
SciTegic.value.IntegerValue
477

@<SCITEGIC>MOL_PROPERTY
Conf_Id
SciTegic.value.IntegerValue
90

@<SCITEGIC>MOL_PROPERTY
Delta U+W
SciTegic.value.DoubleValue
1.131

@<SCITEGIC>MOL_PROPERTY
U+W
SciTegic.value.DoubleValue
-7.251

@<SCITEGIC>MOL_PROPERTY
Grad RMS
SciTegic.value.DoubleValue
0.000000

@<SCITEGIC>MOL_PROPERTY
U
SciTegic.value.DoubleValue
48.641

@<SCITEGIC>MOL_PROPERTY
W
SciTegic.value.DoubleValue
-55.892

@<SCITEGIC>MOL_PROPERTY
W(PB)
SciTegic.value.DoubleValue
-57.962

@<SCITEGIC>MOL_PROPERTY
W(SA)
SciTegic.value.DoubleValue
2.070

@<SCITEGIC>MOL_PROPERTY
Valence
SciTegic.value.DoubleValue
2.922

@<SCITEGIC>MOL_PROPERTY
Coulomb
SciTegic.value.DoubleValue
45.269

@<SCITEGIC>MOL_PROPERTY
VdW
SciTegic.value.DoubleValue
0.450

@<SCITEGIC>MOL_PROPERTY
VdW6
SciTegic.value.DoubleValue
-7.045

@<SCITEGIC>MOL_PROPERTY
VdW12
SciTegic.value.DoubleValue
7.495

@<SCITEGIC>MOL_PROPERTY
Bond
SciTegic.value.DoubleValue
0.220

@<SCITEGIC>MOL_PROPERTY
Angle
SciTegic.value.DoubleValue
1.205

@<SCITEGIC>MOL_PROPERTY
Pdih
SciTegic.value.DoubleValue
1.497

@<SCITEGIC>MOL_PROPERTY
Idih
SciTegic.value.DoubleValue
0.000

@<SCITEGIC>MOL_PROPERTY
Tether
SciTegic.value.DoubleValue
0.000

@<TRIPOS>MOLECULE
guest-2_confgen4.mol2 : confsearch ligand conformer 478
          23          22           1
SMALL
USER_CHARGES
 
@<TRIPOS>ATOM
       1    N1      22.288730   19.215893   21.716171 N.4        1 MOL1        -0.5940
       2    H1      23.208099   18.830869   21.957767 H          1 MOL1         0.3649
       3    H2      21.894830   19.615720   22.573262 H          1 MOL1         0.3649
       4    H3      22.450721   19.991312   21.065742 H          1 MOL1         0.3649
       5    C1      21.375849   18.162515   21.119985 C.3        1 MOL1         0.0207
       6    H4      21.270101   17.354261   21.848174 H          1 MOL1         0.0950
       7    H5      21.870108   17.756917   20.233015 H          1 MOL1         0.0950
       8    C2      19.983223   18.698377   20.729686 C.3        1 MOL1        -0.1415
       9    H6      20.098959   19.476484   19.963562 H          1 MOL1         0.0976
      10    H7      19.413436   17.887005   20.257604 H          1 MOL1         0.0976
      11    C3      19.171210   19.267772   21.920066 C.3        1 MOL1        -0.1375
      12    H8      18.207609   19.636118   21.542038 H          1 MOL1         0.0976
      13    H9      19.691425   20.140947   22.333643 H          1 MOL1         0.0976
      14    C4      18.913459   18.221919   23.034171 C.3        1 MOL1        -0.1375
      15    H10     18.470305   17.322224   22.585361 H          1 MOL1         0.0976
      16    H11     19.863701   17.906778   23.485457 H          1 MOL1         0.0976
      17    C5      17.967800   18.732415   24.147956 C.3        1 MOL1        -0.1350
      18    H12     17.752712   17.902694   24.835804 H          1 MOL1         0.0976
      19    H13     17.003303   19.027006   23.711216 H          1 MOL1         0.0976
      20    C6      18.553988   19.911421   24.957563 C.3        1 MOL1        -0.2365
      21    H14     19.531742   19.651027   25.383157 H          1 MOL1         0.0987
      22    H15     17.886734   20.176034   25.788037 H          1 MOL1         0.0987
      23    H16     18.676203   20.806697   24.335508 H          1 MOL1         0.0987
@<TRIPOS>BOND
    1     1     2    1
    2     1     3    1
    3     1     4    1
    4     1     5    1
    5     5     6    1
    6     5     7    1
    7     5     8    1
    8     8     9    1
    9     8    10    1
   10     8    11    1
   11    11    12    1
   12    11    13    1
   13    11    14    1
   14    14    15    1
   15    14    16    1
   16    14    17    1
   17    17    18    1
   18    17    19    1
   19    17    20    1
   20    20    21    1
   21    20    22    1
   22    20    23    1
@<TRIPOS>SUBSTRUCTURE
       1 MOL1            1 RESIDUE      1      MOL     
@<SCITEGIC>MOL_PROPERTY
VConf Rank
SciTegic.value.IntegerValue
478

@<SCITEGIC>MOL_PROPERTY
Conf_Id
SciTegic.value.IntegerValue
85

@<SCITEGIC>MOL_PROPERTY
Delta U+W
SciTegic.value.DoubleValue
1.193

@<SCITEGIC>MOL_PROPERTY
U+W
SciTegic.value.DoubleValue
-7.189

@<SCITEGIC>MOL_PROPERTY
Grad RMS
SciTegic.value.DoubleValue
0.000000

@<SCITEGIC>MOL_PROPERTY
U
SciTegic.value.DoubleValue
48.775

@<SCITEGIC>MOL_PROPERTY
W
SciTegic.value.DoubleValue
-55.965

@<SCITEGIC>MOL_PROPERTY
W(PB)
SciTegic.value.DoubleValue
-58.038

@<SCITEGIC>MOL_PROPERTY
W(SA)
SciTegic.value.DoubleValue
2.073

@<SCITEGIC>MOL_PROPERTY
Valence
SciTegic.value.DoubleValue
2.602

@<SCITEGIC>MOL_PROPERTY
Coulomb
SciTegic.value.DoubleValue
45.581

@<SCITEGIC>MOL_PROPERTY
VdW
SciTegic.value.DoubleValue
0.592

@<SCITEGIC>MOL_PROPERTY
VdW6
SciTegic.value.DoubleValue
-6.616

@<SCITEGIC>MOL_PROPERTY
VdW12
SciTegic.value.DoubleValue
7.208

@<SCITEGIC>MOL_PROPERTY
Bond
SciTegic.value.DoubleValue
0.196

@<SCITEGIC>MOL_PROPERTY
Angle
SciTegic.value.DoubleValue
0.832

@<SCITEGIC>MOL_PROPERTY
Pdih
SciTegic.value.DoubleValue
1.574

@<SCITEGIC>MOL_PROPERTY
Idih
SciTegic.value.DoubleValue
0.000

@<SCITEGIC>MOL_PROPERTY
Tether
SciTegic.value.DoubleValue
0.000

@<TRIPOS>MOLECULE
guest-2_confgen4.mol2 : confsearch ligand conformer 479
          23          22           1
SMALL
USER_CHARGES
 
@<TRIPOS>ATOM
       1    N1      21.710942   18.774944   21.981860 N.4        1 MOL1        -0.5940
       2    H1      21.008357   18.138051   22.370977 H          1 MOL1         0.3649
       3    H2      22.575819   18.642980   22.517468 H          1 MOL1         0.3649
       4    H3      21.903986   18.468537   21.022765 H          1 MOL1         0.3649
       5    C1      21.235632   20.214323   22.025808 C.3        1 MOL1         0.0207
       6    H4      22.032526   20.826994   21.595569 H          1 MOL1         0.0950
       7    H5      21.107698   20.509285   23.070680 H          1 MOL1         0.0950
       8    C2      19.929331   20.467589   21.245967 C.3        1 MOL1        -0.1415
       9    H6      19.888880   21.537316   21.001253 H          1 MOL1         0.0976
      10    H7      19.964671   19.942249   20.282307 H          1 MOL1         0.0976
      11    C3      18.624177   20.105577   22.004671 C.3        1 MOL1        -0.1375
      12    H8      17.780478   20.387066   21.359349 H          1 MOL1         0.0976
      13    H9      18.527196   20.730429   22.903351 H          1 MOL1         0.0976
      14    C4      18.466064   18.608631   22.375364 C.3        1 MOL1        -0.1375
      15    H10     17.405444   18.336326   22.282229 H          1 MOL1         0.0976
      16    H11     18.997113   17.979852   21.648488 H          1 MOL1         0.0976
      17    C5      18.913158   18.288614   23.822705 C.3        1 MOL1        -0.1350
      18    H12     18.249792   18.806820   24.529488 H          1 MOL1         0.0976
      19    H13     19.921545   18.671923   24.018942 H          1 MOL1         0.0976
      20    C6      18.874594   16.772745   24.109900 C.3        1 MOL1        -0.2365
      21    H14     17.861815   16.371744   23.972623 H          1 MOL1         0.0987
      22    H15     19.179954   16.566452   25.144007 H          1 MOL1         0.0987
      23    H16     19.551634   16.223390   23.443123 H          1 MOL1         0.0987
@<TRIPOS>BOND
    1     1     2    1
    2     1     3    1
    3     1     4    1
    4     1     5    1
    5     5     6    1
    6     5     7    1
    7     5     8    1
    8     8     9    1
    9     8    10    1
   10     8    11    1
   11    11    12    1
   12    11    13    1
   13    11    14    1
   14    14    15    1
   15    14    16    1
   16    14    17    1
   17    17    18    1
   18    17    19    1
   19    17    20    1
   20    20    21    1
   21    20    22    1
   22    20    23    1
@<TRIPOS>SUBSTRUCTURE
       1 MOL1            1 RESIDUE      1      MOL     
@<SCITEGIC>MOL_PROPERTY
VConf Rank
SciTegic.value.IntegerValue
479

@<SCITEGIC>MOL_PROPERTY
Conf_Id
SciTegic.value.IntegerValue
82

@<SCITEGIC>MOL_PROPERTY
Delta U+W
SciTegic.value.DoubleValue
5.994

@<SCITEGIC>MOL_PROPERTY
U+W
SciTegic.value.DoubleValue
-2.388

@<SCITEGIC>MOL_PROPERTY
Grad RMS
SciTegic.value.DoubleValue
0.000000

@<SCITEGIC>MOL_PROPERTY
U
SciTegic.value.DoubleValue
52.836

@<SCITEGIC>MOL_PROPERTY
W
SciTegic.value.DoubleValue
-55.224

@<SCITEGIC>MOL_PROPERTY
W(PB)
SciTegic.value.DoubleValue
-57.261

@<SCITEGIC>MOL_PROPERTY
W(SA)
SciTegic.value.DoubleValue
2.037

@<SCITEGIC>MOL_PROPERTY
Valence
SciTegic.value.DoubleValue
5.785

@<SCITEGIC>MOL_PROPERTY
Coulomb
SciTegic.value.DoubleValue
46.744

@<SCITEGIC>MOL_PROPERTY
VdW
SciTegic.value.DoubleValue
0.307

@<SCITEGIC>MOL_PROPERTY
VdW6
SciTegic.value.DoubleValue
-7.672

@<SCITEGIC>MOL_PROPERTY
VdW12
SciTegic.value.DoubleValue
7.979

@<SCITEGIC>MOL_PROPERTY
Bond
SciTegic.value.DoubleValue
0.217

@<SCITEGIC>MOL_PROPERTY
Angle
SciTegic.value.DoubleValue
1.470

@<SCITEGIC>MOL_PROPERTY
Pdih
SciTegic.value.DoubleValue
4.098

@<SCITEGIC>MOL_PROPERTY
Idih
SciTegic.value.DoubleValue
0.000

@<SCITEGIC>MOL_PROPERTY
Tether
SciTegic.value.DoubleValue
0.000

@<TRIPOS>MOLECULE
guest-2_confgen4.mol2 : confsearch ligand conformer 480
          23          22           1
SMALL
USER_CHARGES
 
@<TRIPOS>ATOM
       1    N1      21.692449   18.180454   22.020881 N.4        1 MOL1        -0.5940
       2    H1      21.684477   17.340639   21.432951 H          1 MOL1         0.3649
       3    H2      22.631612   18.586749   21.948774 H          1 MOL1         0.3649
       4    H3      21.035517   18.849787   21.607230 H          1 MOL1         0.3649
       5    C1      21.325261   17.862793   23.457516 C.3        1 MOL1         0.0207
       6    H4      21.412252   18.776388   24.051575 H          1 MOL1         0.0950
       7    H5      22.065512   17.147171   23.825513 H          1 MOL1         0.0950
       8    C2      19.915567   17.260232   23.626044 C.3        1 MOL1        -0.1415
       9    H6      19.738363   16.507107   22.846766 H          1 MOL1         0.0976
      10    H7      19.897903   16.713888   24.578428 H          1 MOL1         0.0976
      11    C3      18.753638   18.289559   23.648839 C.3        1 MOL1        -0.1375
      12    H8      18.864587   18.961309   24.511343 H          1 MOL1         0.0976
      13    H9      17.824306   17.731639   23.829317 H          1 MOL1         0.0976
      14    C4      18.573085   19.114729   22.348932 C.3        1 MOL1        -0.1375
      15    H10     18.919452   18.536917   21.481817 H          1 MOL1         0.0976
      16    H11     17.498589   19.277355   22.185377 H          1 MOL1         0.0976
      17    C5      19.259785   20.501163   22.406765 C.3        1 MOL1        -0.1350
      18    H12     20.309127   20.410283   22.711568 H          1 MOL1         0.0976
      19    H13     18.772854   21.114457   23.178064 H          1 MOL1         0.0976
      20    C6      19.179978   21.234500   21.051156 C.3        1 MOL1        -0.2365
      21    H14     19.685881   20.666101   20.260111 H          1 MOL1         0.0987
      22    H15     19.658095   22.220633   21.115390 H          1 MOL1         0.0987
      23    H16     18.136150   21.386733   20.746826 H          1 MOL1         0.0987
@<TRIPOS>BOND
    1     1     2    1
    2     1     3    1
    3     1     4    1
    4     1     5    1
    5     5     6    1
    6     5     7    1
    7     5     8    1
    8     8     9    1
    9     8    10    1
   10     8    11    1
   11    11    12    1
   12    11    13    1
   13    11    14    1
   14    14    15    1
   15    14    16    1
   16    14    17    1
   17    17    18    1
   18    17    19    1
   19    17    20    1
   20    20    21    1
   21    20    22    1
   22    20    23    1
@<TRIPOS>SUBSTRUCTURE
       1 MOL1            1 RESIDUE      1      MOL     
@<SCITEGIC>MOL_PROPERTY
VConf Rank
SciTegic.value.IntegerValue
480

@<SCITEGIC>MOL_PROPERTY
Conf_Id
SciTegic.value.IntegerValue
5

@<SCITEGIC>MOL_PROPERTY
Delta U+W
SciTegic.value.DoubleValue
6.087

@<SCITEGIC>MOL_PROPERTY
U+W
SciTegic.value.DoubleValue
-2.295

@<SCITEGIC>MOL_PROPERTY
Grad RMS
SciTegic.value.DoubleValue
0.000000

@<SCITEGIC>MOL_PROPERTY
U
SciTegic.value.DoubleValue
52.836

@<SCITEGIC>MOL_PROPERTY
W
SciTegic.value.DoubleValue
-55.131

@<SCITEGIC>MOL_PROPERTY
W(PB)
SciTegic.value.DoubleValue
-57.202

@<SCITEGIC>MOL_PROPERTY
W(SA)
SciTegic.value.DoubleValue
2.071

@<SCITEGIC>MOL_PROPERTY
Valence
SciTegic.value.DoubleValue
5.785

@<SCITEGIC>MOL_PROPERTY
Coulomb
SciTegic.value.DoubleValue
46.744

@<SCITEGIC>MOL_PROPERTY
VdW
SciTegic.value.DoubleValue
0.307

@<SCITEGIC>MOL_PROPERTY
VdW6
SciTegic.value.DoubleValue
-7.672

@<SCITEGIC>MOL_PROPERTY
VdW12
SciTegic.value.DoubleValue
7.980

@<SCITEGIC>MOL_PROPERTY
Bond
SciTegic.value.DoubleValue
0.217

@<SCITEGIC>MOL_PROPERTY
Angle
SciTegic.value.DoubleValue
1.470

@<SCITEGIC>MOL_PROPERTY
Pdih
SciTegic.value.DoubleValue
4.098

@<SCITEGIC>MOL_PROPERTY
Idih
SciTegic.value.DoubleValue
0.000

@<SCITEGIC>MOL_PROPERTY
Tether
SciTegic.value.DoubleValue
0.000

@<TRIPOS>MOLECULE
guest-2_confgen4.mol2 : confsearch ligand conformer 481
          23          22           1
SMALL
USER_CHARGES
 
@<TRIPOS>ATOM
       1    N1      19.933739   20.969176   25.902275 N.4        1 MOL1        -0.5940
       2    H1      20.081658   20.157361   26.510518 H          1 MOL1         0.3649
       3    H2      19.383246   21.647618   26.439646 H          1 MOL1         0.3649
       4    H3      20.852007   21.394267   25.738060 H          1 MOL1         0.3649
       5    C1      19.247203   20.587551   24.606540 C.3        1 MOL1         0.0207
       6    H4      19.095238   21.500046   24.023655 H          1 MOL1         0.0950
       7    H5      18.267193   20.170582   24.853955 H          1 MOL1         0.0950
       8    C2      20.048538   19.569590   23.775760 C.3        1 MOL1        -0.1415
       9    H6      21.037825   19.986089   23.543511 H          1 MOL1         0.0976
      10    H7      20.212790   18.661356   24.370933 H          1 MOL1         0.0976
      11    C3      19.315644   19.207382   22.465091 C.3        1 MOL1        -0.1375
      12    H8      19.148489   20.119335   21.875002 H          1 MOL1         0.0976
      13    H9      18.324367   18.795974   22.701555 H          1 MOL1         0.0976
      14    C4      20.111931   18.185190   21.622445 C.3        1 MOL1        -0.1375
      15    H10     21.103074   18.596466   21.385801 H          1 MOL1         0.0976
      16    H11     20.279136   17.273268   22.212322 H          1 MOL1         0.0976
      17    C5      19.378632   17.823093   20.311752 C.3        1 MOL1        -0.1350
      18    H12     19.211140   18.731935   19.716835 H          1 MOL1         0.0976
      19    H13     18.387287   17.408845   20.543284 H          1 MOL1         0.0976
      20    C6      20.176734   16.802251   19.473049 C.3        1 MOL1        -0.2365
      21    H14     19.640470   16.557709   18.546946 H          1 MOL1         0.0987
      22    H15     20.330843   15.868564   20.029565 H          1 MOL1         0.0987
      23    H16     21.161146   17.201980   19.196681 H          1 MOL1         0.0987
@<TRIPOS>BOND
    1     1     2    1
    2     1     3    1
    3     1     4    1
    4     1     5    1
    5     5     6    1
    6     5     7    1
    7     5     8    1
    8     8     9    1
    9     8    10    1
   10     8    11    1
   11    11    12    1
   12    11    13    1
   13    11    14    1
   14    14    15    1
   15    14    16    1
   16    14    17    1
   17    17    18    1
   18    17    19    1
   19    17    20    1
   20    20    21    1
   21    20    22    1
   22    20    23    1
@<TRIPOS>SUBSTRUCTURE
       1 MOL1            1 RESIDUE      1      MOL     
@<SCITEGIC>MOL_PROPERTY
VConf Rank
SciTegic.value.IntegerValue
481

@<SCITEGIC>MOL_PROPERTY
Conf_Id
SciTegic.value.IntegerValue
40

@<SCITEGIC>MOL_PROPERTY
Delta U+W
SciTegic.value.DoubleValue
0.000

@<SCITEGIC>MOL_PROPERTY
U+W
SciTegic.value.DoubleValue
-8.382

@<SCITEGIC>MOL_PROPERTY
Grad RMS
SciTegic.value.DoubleValue
0.000000

@<SCITEGIC>MOL_PROPERTY
U
SciTegic.value.DoubleValue
46.604

@<SCITEGIC>MOL_PROPERTY
W
SciTegic.value.DoubleValue
-54.986

@<SCITEGIC>MOL_PROPERTY
W(PB)
SciTegic.value.DoubleValue
-57.162

@<SCITEGIC>MOL_PROPERTY
W(SA)
SciTegic.value.DoubleValue
2.176

@<SCITEGIC>MOL_PROPERTY
Valence
SciTegic.value.DoubleValue
1.727

@<SCITEGIC>MOL_PROPERTY
Coulomb
SciTegic.value.DoubleValue
44.434

@<SCITEGIC>MOL_PROPERTY
VdW
SciTegic.value.DoubleValue
0.443

@<SCITEGIC>MOL_PROPERTY
VdW6
SciTegic.value.DoubleValue
-4.623

@<SCITEGIC>MOL_PROPERTY
VdW12
SciTegic.value.DoubleValue
5.066

@<SCITEGIC>MOL_PROPERTY
Bond
SciTegic.value.DoubleValue
0.112

@<SCITEGIC>MOL_PROPERTY
Angle
SciTegic.value.DoubleValue
0.386

@<SCITEGIC>MOL_PROPERTY
Pdih
SciTegic.value.DoubleValue
1.228

@<SCITEGIC>MOL_PROPERTY
Idih
SciTegic.value.DoubleValue
0.000

@<SCITEGIC>MOL_PROPERTY
Tether
SciTegic.value.DoubleValue
0.000

@<TRIPOS>MOLECULE
guest-2_confgen4.mol2 : confsearch ligand conformer 482
          23          22           1
SMALL
USER_CHARGES
 
@<TRIPOS>ATOM
       1    N1      20.393891   19.478417   26.099696 N.4        1 MOL1        -0.5940
       2    H1      19.666321   20.066484   26.518813 H          1 MOL1         0.3649
       3    H2      21.231772   20.060539   26.000089 H          1 MOL1         0.3649
       4    H3      20.617836   18.748341   26.784435 H          1 MOL1         0.3649
       5    C1      19.952502   18.891156   24.774522 C.3        1 MOL1         0.0207
       6    H4      19.076954   18.262758   24.958758 H          1 MOL1         0.0950
       7    H5      20.760795   18.255432   24.404337 H          1 MOL1         0.0950
       8    C2      19.608327   19.963972   23.723932 C.3        1 MOL1        -0.1415
       9    H6      18.829015   20.623371   24.128670 H          1 MOL1         0.0976
      10    H7      20.487771   20.594714   23.537583 H          1 MOL1         0.0976
      11    C3      19.109638   19.359698   22.389846 C.3        1 MOL1        -0.1375
      12    H8      18.779822   20.182515   21.742423 H          1 MOL1         0.0976
      13    H9      18.224071   18.737039   22.578097 H          1 MOL1         0.0976
      14    C4      20.191292   18.524335   21.658569 C.3        1 MOL1        -0.1375
      15    H10     21.068324   19.153151   21.452104 H          1 MOL1         0.0976
      16    H11     20.538392   17.716441   22.316091 H          1 MOL1         0.0976
      17    C5      19.690570   17.888414   20.338945 C.3        1 MOL1        -0.1350
      18    H12     18.819358   17.249702   20.541019 H          1 MOL1         0.0976
      19    H13     20.474366   17.223871   19.949177 H          1 MOL1         0.0976
      20    C6      19.333680   18.926272   19.250427 C.3        1 MOL1        -0.2365
      21    H14     18.469052   19.535572   19.540991 H          1 MOL1         0.0987
      22    H15     19.079569   18.422725   18.308719 H          1 MOL1         0.0987
      23    H16     20.178680   19.598752   19.053554 H          1 MOL1         0.0987
@<TRIPOS>BOND
    1     1     2    1
    2     1     3    1
    3     1     4    1
    4     1     5    1
    5     5     6    1
    6     5     7    1
    7     5     8    1
    8     8     9    1
    9     8    10    1
   10     8    11    1
   11    11    12    1
   12    11    13    1
   13    11    14    1
   14    14    15    1
   15    14    16    1
   16    14    17    1
   17    17    18    1
   18    17    19    1
   19    17    20    1
   20    20    21    1
   21    20    22    1
   22    20    23    1
@<TRIPOS>SUBSTRUCTURE
       1 MOL1            1 RESIDUE      1      MOL     
@<SCITEGIC>MOL_PROPERTY
VConf Rank
SciTegic.value.IntegerValue
482

@<SCITEGIC>MOL_PROPERTY
Conf_Id
SciTegic.value.IntegerValue
65

@<SCITEGIC>MOL_PROPERTY
Delta U+W
SciTegic.value.DoubleValue
1.004

@<SCITEGIC>MOL_PROPERTY
U+W
SciTegic.value.DoubleValue
-7.378

@<SCITEGIC>MOL_PROPERTY
Grad RMS
SciTegic.value.DoubleValue
0.000000

@<SCITEGIC>MOL_PROPERTY
U
SciTegic.value.DoubleValue
48.047

@<SCITEGIC>MOL_PROPERTY
W
SciTegic.value.DoubleValue
-55.425

@<SCITEGIC>MOL_PROPERTY
W(PB)
SciTegic.value.DoubleValue
-57.542

@<SCITEGIC>MOL_PROPERTY
W(SA)
SciTegic.value.DoubleValue
2.116

@<SCITEGIC>MOL_PROPERTY
Valence
SciTegic.value.DoubleValue
2.583

@<SCITEGIC>MOL_PROPERTY
Coulomb
SciTegic.value.DoubleValue
44.791

@<SCITEGIC>MOL_PROPERTY
VdW
SciTegic.value.DoubleValue
0.673

@<SCITEGIC>MOL_PROPERTY
VdW6
SciTegic.value.DoubleValue
-5.788

@<SCITEGIC>MOL_PROPERTY
VdW12
SciTegic.value.DoubleValue
6.462

@<SCITEGIC>MOL_PROPERTY
Bond
SciTegic.value.DoubleValue
0.177

@<SCITEGIC>MOL_PROPERTY
Angle
SciTegic.value.DoubleValue
0.787

@<SCITEGIC>MOL_PROPERTY
Pdih
SciTegic.value.DoubleValue
1.619

@<SCITEGIC>MOL_PROPERTY
Idih
SciTegic.value.DoubleValue
0.000

@<SCITEGIC>MOL_PROPERTY
Tether
SciTegic.value.DoubleValue
0.000

@<TRIPOS>MOLECULE
guest-2_confgen4.mol2 : confsearch ligand conformer 483
          23          22           1
SMALL
USER_CHARGES
 
@<TRIPOS>ATOM
       1    N1      22.525501   18.584507   24.842002 N.4        1 MOL1        -0.5940
       2    H1      22.461057   17.677399   25.315121 H          1 MOL1         0.3649
       3    H2      22.867049   19.258542   25.535579 H          1 MOL1         0.3649
       4    H3      23.253550   18.499684   24.125354 H          1 MOL1         0.3649
       5    C1      21.196761   19.009469   24.250706 C.3        1 MOL1         0.0207
       6    H4      21.333211   19.992511   23.792962 H          1 MOL1         0.0950
       7    H5      20.478887   19.107482   25.069522 H          1 MOL1         0.0950
       8    C2      20.656704   18.016093   23.204437 C.3        1 MOL1        -0.1415
       9    H6      21.376837   17.918152   22.381150 H          1 MOL1         0.0976
      10    H7      20.570092   17.023272   23.665687 H          1 MOL1         0.0976
      11    C3      19.276016   18.428688   22.641339 C.3        1 MOL1        -0.1375
      12    H8      18.555332   18.516286   23.466149 H          1 MOL1         0.0976
      13    H9      18.912931   17.618906   21.995284 H          1 MOL1         0.0976
      14    C4      19.317761   19.754479   21.839399 C.3        1 MOL1        -0.1375
      15    H10     19.704328   20.558780   22.479063 H          1 MOL1         0.0976
      16    H11     20.023152   19.659193   21.002401 H          1 MOL1         0.0976
      17    C5      17.934100   20.192061   21.300395 C.3        1 MOL1        -0.1350
      18    H12     18.031442   21.190105   20.850612 H          1 MOL1         0.0976
      19    H13     17.226867   20.299226   22.134743 H          1 MOL1         0.0976
      20    C6      17.350069   19.226642   20.243862 C.3        1 MOL1        -0.2365
      21    H14     17.115422   18.246835   20.677656 H          1 MOL1         0.0987
      22    H15     18.053053   19.076822   19.414177 H          1 MOL1         0.0987
      23    H16     16.419771   19.632518   19.825827 H          1 MOL1         0.0987
@<TRIPOS>BOND
    1     1     2    1
    2     1     3    1
    3     1     4    1
    4     1     5    1
    5     5     6    1
    6     5     7    1
    7     5     8    1
    8     8     9    1
    9     8    10    1
   10     8    11    1
   11    11    12    1
   12    11    13    1
   13    11    14    1
   14    14    15    1
   15    14    16    1
   16    14    17    1
   17    17    18    1
   18    17    19    1
   19    17    20    1
   20    20    21    1
   21    20    22    1
   22    20    23    1
@<TRIPOS>SUBSTRUCTURE
       1 MOL1            1 RESIDUE      1      MOL     
@<SCITEGIC>MOL_PROPERTY
VConf Rank
SciTegic.value.IntegerValue
483

@<SCITEGIC>MOL_PROPERTY
Conf_Id
SciTegic.value.IntegerValue
92

@<SCITEGIC>MOL_PROPERTY
Delta U+W
SciTegic.value.DoubleValue
0.973

@<SCITEGIC>MOL_PROPERTY
U+W
SciTegic.value.DoubleValue
-7.409

@<SCITEGIC>MOL_PROPERTY
Grad RMS
SciTegic.value.DoubleValue
0.000000

@<SCITEGIC>MOL_PROPERTY
U
SciTegic.value.DoubleValue
48.047

@<SCITEGIC>MOL_PROPERTY
W
SciTegic.value.DoubleValue
-55.456

@<SCITEGIC>MOL_PROPERTY
W(PB)
SciTegic.value.DoubleValue
-57.595

@<SCITEGIC>MOL_PROPERTY
W(SA)
SciTegic.value.DoubleValue
2.138

@<SCITEGIC>MOL_PROPERTY
Valence
SciTegic.value.DoubleValue
2.583

@<SCITEGIC>MOL_PROPERTY
Coulomb
SciTegic.value.DoubleValue
44.791

@<SCITEGIC>MOL_PROPERTY
VdW
SciTegic.value.DoubleValue
0.674

@<SCITEGIC>MOL_PROPERTY
VdW6
SciTegic.value.DoubleValue
-5.789

@<SCITEGIC>MOL_PROPERTY
VdW12
SciTegic.value.DoubleValue
6.462

@<SCITEGIC>MOL_PROPERTY
Bond
SciTegic.value.DoubleValue
0.177

@<SCITEGIC>MOL_PROPERTY
Angle
SciTegic.value.DoubleValue
0.787

@<SCITEGIC>MOL_PROPERTY
Pdih
SciTegic.value.DoubleValue
1.619

@<SCITEGIC>MOL_PROPERTY
Idih
SciTegic.value.DoubleValue
0.000

@<SCITEGIC>MOL_PROPERTY
Tether
SciTegic.value.DoubleValue
0.000

@<TRIPOS>MOLECULE
guest-2_confgen4.mol2 : confsearch ligand conformer 484
          23          22           1
SMALL
USER_CHARGES
 
@<TRIPOS>ATOM
       1    N1      22.527362   20.908726   23.598525 N.4        1 MOL1        -0.5940
       2    H1      22.438868   21.915736   23.772114 H          1 MOL1         0.3649
       3    H2      23.391185   20.773759   23.063316 H          1 MOL1         0.3649
       4    H3      22.664336   20.460208   24.510067 H          1 MOL1         0.3649
       5    C1      21.319200   20.354402   22.871307 C.3        1 MOL1         0.0207
       6    H4      21.216923   20.894494   21.926183 H          1 MOL1         0.0950
       7    H5      20.436690   20.559989   23.482538 H          1 MOL1         0.0950
       8    C2      21.422187   18.842401   22.595436 C.3        1 MOL1        -0.1415
       9    H6      22.335760   18.644418   22.019127 H          1 MOL1         0.0976
      10    H7      21.525751   18.300068   23.544723 H          1 MOL1         0.0976
      11    C3      20.206176   18.293059   21.812765 C.3        1 MOL1        -0.1375
      12    H8      20.390342   17.236852   21.572018 H          1 MOL1         0.0976
      13    H9      20.120373   18.819940   20.852201 H          1 MOL1         0.0976
      14    C4      18.875679   18.412060   22.594480 C.3        1 MOL1        -0.1375
      15    H10     18.975827   17.912648   23.568121 H          1 MOL1         0.0976
      16    H11     18.653699   19.467847   22.799658 H          1 MOL1         0.0976
      17    C5      17.695458   17.788757   21.816442 C.3        1 MOL1        -0.1350
      18    H12     17.903133   16.728888   21.612706 H          1 MOL1         0.0976
      19    H13     17.591139   18.284355   20.841005 H          1 MOL1         0.0976
      20    C6      16.368867   17.909213   22.596322 C.3        1 MOL1        -0.2365
      21    H14     16.431311   17.393598   23.563518 H          1 MOL1         0.0987
      22    H15     15.543291   17.460942   22.028411 H          1 MOL1         0.0987
      23    H16     16.115840   18.960667   22.785113 H          1 MOL1         0.0987
@<TRIPOS>BOND
    1     1     2    1
    2     1     3    1
    3     1     4    1
    4     1     5    1
    5     5     6    1
    6     5     7    1
    7     5     8    1
    8     8     9    1
    9     8    10    1
   10     8    11    1
   11    11    12    1
   12    11    13    1
   13    11    14    1
   14    14    15    1
   15    14    16    1
   16    14    17    1
   17    17    18    1
   18    17    19    1
   19    17    20    1
   20    20    21    1
   21    20    22    1
   22    20    23    1
@<TRIPOS>SUBSTRUCTURE
       1 MOL1            1 RESIDUE      1      MOL     
@<SCITEGIC>MOL_PROPERTY
VConf Rank
SciTegic.value.IntegerValue
484

@<SCITEGIC>MOL_PROPERTY
Conf_Id
SciTegic.value.IntegerValue
42

@<SCITEGIC>MOL_PROPERTY
Delta U+W
SciTegic.value.DoubleValue
0.365

@<SCITEGIC>MOL_PROPERTY
U+W
SciTegic.value.DoubleValue
-8.017

@<SCITEGIC>MOL_PROPERTY
Grad RMS
SciTegic.value.DoubleValue
0.000000

@<SCITEGIC>MOL_PROPERTY
U
SciTegic.value.DoubleValue
47.375

@<SCITEGIC>MOL_PROPERTY
W
SciTegic.value.DoubleValue
-55.392

@<SCITEGIC>MOL_PROPERTY
W(PB)
SciTegic.value.DoubleValue
-57.543

@<SCITEGIC>MOL_PROPERTY
W(SA)
SciTegic.value.DoubleValue
2.152

@<SCITEGIC>MOL_PROPERTY
Valence
SciTegic.value.DoubleValue
2.032

@<SCITEGIC>MOL_PROPERTY
Coulomb
SciTegic.value.DoubleValue
44.843

@<SCITEGIC>MOL_PROPERTY
VdW
SciTegic.value.DoubleValue
0.499

@<SCITEGIC>MOL_PROPERTY
VdW6
SciTegic.value.DoubleValue
-5.218

@<SCITEGIC>MOL_PROPERTY
VdW12
SciTegic.value.DoubleValue
5.717

@<SCITEGIC>MOL_PROPERTY
Bond
SciTegic.value.DoubleValue
0.135

@<SCITEGIC>MOL_PROPERTY
Angle
SciTegic.value.DoubleValue
0.514

@<SCITEGIC>MOL_PROPERTY
Pdih
SciTegic.value.DoubleValue
1.383

@<SCITEGIC>MOL_PROPERTY
Idih
SciTegic.value.DoubleValue
0.000

@<SCITEGIC>MOL_PROPERTY
Tether
SciTegic.value.DoubleValue
0.000

@<TRIPOS>MOLECULE
guest-2_confgen4.mol2 : confsearch ligand conformer 485
          23          22           1
SMALL
USER_CHARGES
 
@<TRIPOS>ATOM
       1    N1      19.089636   19.912543   19.655261 N.4        1 MOL1        -0.5940
       2    H1      18.931225   18.954028   19.328475 H          1 MOL1         0.3649
       3    H2      19.215540   20.495671   18.820959 H          1 MOL1         0.3649
       4    H3      18.226223   20.224012   20.110131 H          1 MOL1         0.3649
       5    C1      20.281935   20.000389   20.588153 C.3        1 MOL1         0.0207
       6    H4      20.409838   21.046474   20.879303 H          1 MOL1         0.0950
       7    H5      21.166345   19.693964   20.022915 H          1 MOL1         0.0950
       8    C2      20.153719   19.122724   21.848509 C.3        1 MOL1        -0.1415
       9    H6      19.997749   18.076650   21.553463 H          1 MOL1         0.0976
      10    H7      21.109517   19.165203   22.384945 H          1 MOL1         0.0976
      11    C3      19.014965   19.587904   22.788538 C.3        1 MOL1        -0.1375
      12    H8      18.075418   19.645461   22.223497 H          1 MOL1         0.0976
      13    H9      19.224933   20.608693   23.136833 H          1 MOL1         0.0976
      14    C4      18.778961   18.665047   24.012341 C.3        1 MOL1        -0.1375
      15    H10     17.925821   19.071997   24.572725 H          1 MOL1         0.0976
      16    H11     18.462874   17.667431   23.677563 H          1 MOL1         0.0976
      17    C5      19.981880   18.548685   24.983879 C.3        1 MOL1        -0.1350
      18    H12     19.596787   18.477252   26.010803 H          1 MOL1         0.0976
      19    H13     20.588792   19.464260   24.952591 H          1 MOL1         0.0976
      20    C6      20.866052   17.307375   24.719963 C.3        1 MOL1        -0.2365
      21    H14     20.283589   16.382718   24.823907 H          1 MOL1         0.0987
      22    H15     21.691329   17.263284   25.442383 H          1 MOL1         0.0987
      23    H16     21.304128   17.318055   23.715924 H          1 MOL1         0.0987
@<TRIPOS>BOND
    1     1     2    1
    2     1     3    1
    3     1     4    1
    4     1     5    1
    5     5     6    1
    6     5     7    1
    7     5     8    1
    8     8     9    1
    9     8    10    1
   10     8    11    1
   11    11    12    1
   12    11    13    1
   13    11    14    1
   14    14    15    1
   15    14    16    1
   16    14    17    1
   17    17    18    1
   18    17    19    1
   19    17    20    1
   20    20    21    1
   21    20    22    1
   22    20    23    1
@<TRIPOS>SUBSTRUCTURE
       1 MOL1            1 RESIDUE      1      MOL     
@<SCITEGIC>MOL_PROPERTY
VConf Rank
SciTegic.value.IntegerValue
485

@<SCITEGIC>MOL_PROPERTY
Conf_Id
SciTegic.value.IntegerValue
3

@<SCITEGIC>MOL_PROPERTY
Delta U+W
SciTegic.value.DoubleValue
3.283

@<SCITEGIC>MOL_PROPERTY
U+W
SciTegic.value.DoubleValue
-5.099

@<SCITEGIC>MOL_PROPERTY
Grad RMS
SciTegic.value.DoubleValue
0.000000

@<SCITEGIC>MOL_PROPERTY
U
SciTegic.value.DoubleValue
50.701

@<SCITEGIC>MOL_PROPERTY
W
SciTegic.value.DoubleValue
-55.800

@<SCITEGIC>MOL_PROPERTY
W(PB)
SciTegic.value.DoubleValue
-57.867

@<SCITEGIC>MOL_PROPERTY
W(SA)
SciTegic.value.DoubleValue
2.067

@<SCITEGIC>MOL_PROPERTY
Valence
SciTegic.value.DoubleValue
4.880

@<SCITEGIC>MOL_PROPERTY
Coulomb
SciTegic.value.DoubleValue
45.095

@<SCITEGIC>MOL_PROPERTY
VdW
SciTegic.value.DoubleValue
0.726

@<SCITEGIC>MOL_PROPERTY
VdW6
SciTegic.value.DoubleValue
-6.620

@<SCITEGIC>MOL_PROPERTY
VdW12
SciTegic.value.DoubleValue
7.346

@<SCITEGIC>MOL_PROPERTY
Bond
SciTegic.value.DoubleValue
0.222

@<SCITEGIC>MOL_PROPERTY
Angle
SciTegic.value.DoubleValue
1.260

@<SCITEGIC>MOL_PROPERTY
Pdih
SciTegic.value.DoubleValue
3.398

@<SCITEGIC>MOL_PROPERTY
Idih
SciTegic.value.DoubleValue
0.000

@<SCITEGIC>MOL_PROPERTY
Tether
SciTegic.value.DoubleValue
0.000

@<TRIPOS>MOLECULE
guest-2_confgen4.mol2 : confsearch ligand conformer 486
          23          22           1
SMALL
USER_CHARGES
 
@<TRIPOS>ATOM
       1    N1      20.604775   16.270958   22.528180 N.4        1 MOL1        -0.5940
       2    H1      19.972981   15.672606   21.986549 H          1 MOL1         0.3649
       3    H2      21.372576   15.675612   22.856631 H          1 MOL1         0.3649
       4    H3      21.008980   16.952050   21.878309 H          1 MOL1         0.3649
       5    C1      19.888126   16.951599   23.677717 C.3        1 MOL1         0.0207
       6    H4      20.620523   17.546163   24.229602 H          1 MOL1         0.0950
       7    H5      19.514288   16.170759   24.345595 H          1 MOL1         0.0950
       8    C2      18.714581   17.848389   23.232930 C.3        1 MOL1        -0.1415
       9    H6      17.963235   17.228777   22.725619 H          1 MOL1         0.0976
      10    H7      18.222638   18.253991   24.126988 H          1 MOL1         0.0976
      11    C3      19.125805   19.017213   22.302128 C.3        1 MOL1        -0.1375
      12    H8      18.215698   19.560319   22.016444 H          1 MOL1         0.0976
      13    H9      19.550685   18.621480   21.370130 H          1 MOL1         0.0976
      14    C4      20.128939   19.997937   22.961165 C.3        1 MOL1        -0.1375
      15    H10     19.691152   20.414089   23.878950 H          1 MOL1         0.0976
      16    H11     21.029712   19.451056   23.269197 H          1 MOL1         0.0976
      17    C5      20.564588   21.153320   22.027492 C.3        1 MOL1        -0.1350
      18    H12     21.013390   20.743019   21.112093 H          1 MOL1         0.0976
      19    H13     21.356992   21.728739   22.526344 H          1 MOL1         0.0976
      20    C6      19.412367   22.114564   21.656355 C.3        1 MOL1        -0.2365
      21    H14     18.925097   22.512949   22.555723 H          1 MOL1         0.0987
      22    H15     18.650917   21.615456   21.044529 H          1 MOL1         0.0987
      23    H16     19.793915   22.965323   21.077076 H          1 MOL1         0.0987
@<TRIPOS>BOND
    1     1     2    1
    2     1     3    1
    3     1     4    1
    4     1     5    1
    5     5     6    1
    6     5     7    1
    7     5     8    1
    8     8     9    1
    9     8    10    1
   10     8    11    1
   11    11    12    1
   12    11    13    1
   13    11    14    1
   14    14    15    1
   15    14    16    1
   16    14    17    1
   17    17    18    1
   18    17    19    1
   19    17    20    1
   20    20    21    1
   21    20    22    1
   22    20    23    1
@<TRIPOS>SUBSTRUCTURE
       1 MOL1            1 RESIDUE      1      MOL     
@<SCITEGIC>MOL_PROPERTY
VConf Rank
SciTegic.value.IntegerValue
486

@<SCITEGIC>MOL_PROPERTY
Conf_Id
SciTegic.value.IntegerValue
83

@<SCITEGIC>MOL_PROPERTY
Delta U+W
SciTegic.value.DoubleValue
1.229

@<SCITEGIC>MOL_PROPERTY
U+W
SciTegic.value.DoubleValue
-7.154

@<SCITEGIC>MOL_PROPERTY
Grad RMS
SciTegic.value.DoubleValue
0.000000

@<SCITEGIC>MOL_PROPERTY
U
SciTegic.value.DoubleValue
48.727

@<SCITEGIC>MOL_PROPERTY
W
SciTegic.value.DoubleValue
-55.880

@<SCITEGIC>MOL_PROPERTY
W(PB)
SciTegic.value.DoubleValue
-57.960

@<SCITEGIC>MOL_PROPERTY
W(SA)
SciTegic.value.DoubleValue
2.080

@<SCITEGIC>MOL_PROPERTY
Valence
SciTegic.value.DoubleValue
2.671

@<SCITEGIC>MOL_PROPERTY
Coulomb
SciTegic.value.DoubleValue
45.371

@<SCITEGIC>MOL_PROPERTY
VdW
SciTegic.value.DoubleValue
0.684

@<SCITEGIC>MOL_PROPERTY
VdW6
SciTegic.value.DoubleValue
-6.511

@<SCITEGIC>MOL_PROPERTY
VdW12
SciTegic.value.DoubleValue
7.195

@<SCITEGIC>MOL_PROPERTY
Bond
SciTegic.value.DoubleValue
0.203

@<SCITEGIC>MOL_PROPERTY
Angle
SciTegic.value.DoubleValue
0.915

@<SCITEGIC>MOL_PROPERTY
Pdih
SciTegic.value.DoubleValue
1.554

@<SCITEGIC>MOL_PROPERTY
Idih
SciTegic.value.DoubleValue
0.000

@<SCITEGIC>MOL_PROPERTY
Tether
SciTegic.value.DoubleValue
0.000

@<TRIPOS>MOLECULE
guest-2_confgen4.mol2 : confsearch ligand conformer 487
          23          22           1
SMALL
USER_CHARGES
 
@<TRIPOS>ATOM
       1    N1      18.738424   19.383279   19.862656 N.4        1 MOL1        -0.5940
       2    H1      19.449704   19.736366   19.214610 H          1 MOL1         0.3649
       3    H2      18.593553   20.104071   20.576149 H          1 MOL1         0.3649
       4    H3      17.863881   19.303817   19.332849 H          1 MOL1         0.3649
       5    C1      19.145927   18.059647   20.479286 C.3        1 MOL1         0.0207
       6    H4      19.248725   17.332848   19.668902 H          1 MOL1         0.0950
       7    H5      18.335368   17.725654   21.131922 H          1 MOL1         0.0950
       8    C2      20.465113   18.126608   21.275869 C.3        1 MOL1        -0.1415
       9    H6      20.709664   17.119077   21.637719 H          1 MOL1         0.0976
      10    H7      21.278985   18.412951   20.596587 H          1 MOL1         0.0976
      11    C3      20.433116   19.106198   22.476297 C.3        1 MOL1        -0.1375
      12    H8      20.264374   20.130611   22.118733 H          1 MOL1         0.0976
      13    H9      21.427008   19.105172   22.942186 H          1 MOL1         0.0976
      14    C4      19.363846   18.737610   23.536124 C.3        1 MOL1        -0.1375
      15    H10     18.372143   18.714584   23.065647 H          1 MOL1         0.0976
      16    H11     19.550657   17.722624   23.913052 H          1 MOL1         0.0976
      17    C5      19.308232   19.727386   24.725113 C.3        1 MOL1        -0.1350
      18    H12     18.453964   19.462200   25.363678 H          1 MOL1         0.0976
      19    H13     19.110812   20.743112   24.354906 H          1 MOL1         0.0976
      20    C6      20.590861   19.728173   25.587785 C.3        1 MOL1        -0.2365
      21    H14     20.828579   18.717097   25.943065 H          1 MOL1         0.0987
      22    H15     20.460831   20.370873   26.468106 H          1 MOL1         0.0987
      23    H16     21.454172   20.108356   25.027967 H          1 MOL1         0.0987
@<TRIPOS>BOND
    1     1     2    1
    2     1     3    1
    3     1     4    1
    4     1     5    1
    5     5     6    1
    6     5     7    1
    7     5     8    1
    8     8     9    1
    9     8    10    1
   10     8    11    1
   11    11    12    1
   12    11    13    1
   13    11    14    1
   14    14    15    1
   15    14    16    1
   16    14    17    1
   17    17    18    1
   18    17    19    1
   19    17    20    1
   20    20    21    1
   21    20    22    1
   22    20    23    1
@<TRIPOS>SUBSTRUCTURE
       1 MOL1            1 RESIDUE      1      MOL     
@<SCITEGIC>MOL_PROPERTY
VConf Rank
SciTegic.value.IntegerValue
487

@<SCITEGIC>MOL_PROPERTY
Conf_Id
SciTegic.value.IntegerValue
50

@<SCITEGIC>MOL_PROPERTY
Delta U+W
SciTegic.value.DoubleValue
1.252

@<SCITEGIC>MOL_PROPERTY
U+W
SciTegic.value.DoubleValue
-7.130

@<SCITEGIC>MOL_PROPERTY
Grad RMS
SciTegic.value.DoubleValue
0.000000

@<SCITEGIC>MOL_PROPERTY
U
SciTegic.value.DoubleValue
48.727

@<SCITEGIC>MOL_PROPERTY
W
SciTegic.value.DoubleValue
-55.857

@<SCITEGIC>MOL_PROPERTY
W(PB)
SciTegic.value.DoubleValue
-57.937

@<SCITEGIC>MOL_PROPERTY
W(SA)
SciTegic.value.DoubleValue
2.080

@<SCITEGIC>MOL_PROPERTY
Valence
SciTegic.value.DoubleValue
2.671

@<SCITEGIC>MOL_PROPERTY
Coulomb
SciTegic.value.DoubleValue
45.371

@<SCITEGIC>MOL_PROPERTY
VdW
SciTegic.value.DoubleValue
0.684

@<SCITEGIC>MOL_PROPERTY
VdW6
SciTegic.value.DoubleValue
-6.511

@<SCITEGIC>MOL_PROPERTY
VdW12
SciTegic.value.DoubleValue
7.196

@<SCITEGIC>MOL_PROPERTY
Bond
SciTegic.value.DoubleValue
0.203

@<SCITEGIC>MOL_PROPERTY
Angle
SciTegic.value.DoubleValue
0.915

@<SCITEGIC>MOL_PROPERTY
Pdih
SciTegic.value.DoubleValue
1.554

@<SCITEGIC>MOL_PROPERTY
Idih
SciTegic.value.DoubleValue
0.000

@<SCITEGIC>MOL_PROPERTY
Tether
SciTegic.value.DoubleValue
0.000

@<TRIPOS>MOLECULE
guest-2_confgen4.mol2 : confsearch ligand conformer 488
          23          22           1
SMALL
USER_CHARGES
 
@<TRIPOS>ATOM
       1    N1      20.989542   17.413632   20.181088 N.4        1 MOL1        -0.5940
       2    H1      21.629657   17.171768   20.943511 H          1 MOL1         0.3649
       3    H2      21.546512   17.443170   19.320367 H          1 MOL1         0.3649
       4    H3      20.328222   16.636752   20.082417 H          1 MOL1         0.3649
       5    C1      20.280067   18.728942   20.437690 C.3        1 MOL1         0.0207
       6    H4      19.650027   18.940362   19.569402 H          1 MOL1         0.0950
       7    H5      21.037035   19.514699   20.508389 H          1 MOL1         0.0950
       8    C2      19.411748   18.729811   21.710789 C.3        1 MOL1        -0.1415
       9    H6      18.859764   19.675625   21.748386 H          1 MOL1         0.0976
      10    H7      18.656695   17.935925   21.637255 H          1 MOL1         0.0976
      11    C3      20.246889   18.543986   23.003339 C.3        1 MOL1        -0.1375
      12    H8      21.065471   19.276138   23.038458 H          1 MOL1         0.0976
      13    H9      20.723716   17.555252   22.971273 H          1 MOL1         0.0976
      14    C4      19.400572   18.630540   24.300398 C.3        1 MOL1        -0.1375
      15    H10     18.372147   18.294921   24.108315 H          1 MOL1         0.0976
      16    H11     19.813402   17.916761   25.026746 H          1 MOL1         0.0976
      17    C5      19.388837   20.026354   24.974766 C.3        1 MOL1        -0.1350
      18    H12     20.413279   20.308430   25.255347 H          1 MOL1         0.0976
      19    H13     18.825313   19.954124   25.915530 H          1 MOL1         0.0976
      20    C6      18.768004   21.145901   24.110930 C.3        1 MOL1        -0.2365
      21    H14     17.763814   20.868826   23.764999 H          1 MOL1         0.0987
      22    H15     19.391636   21.366529   23.235898 H          1 MOL1         0.0987
      23    H16     18.678889   22.073200   24.691502 H          1 MOL1         0.0987
@<TRIPOS>BOND
    1     1     2    1
    2     1     3    1
    3     1     4    1
    4     1     5    1
    5     5     6    1
    6     5     7    1
    7     5     8    1
    8     8     9    1
    9     8    10    1
   10     8    11    1
   11    11    12    1
   12    11    13    1
   13    11    14    1
   14    14    15    1
   15    14    16    1
   16    14    17    1
   17    17    18    1
   18    17    19    1
   19    17    20    1
   20    20    21    1
   21    20    22    1
   22    20    23    1
@<TRIPOS>SUBSTRUCTURE
       1 MOL1            1 RESIDUE      1      MOL     
@<SCITEGIC>MOL_PROPERTY
VConf Rank
SciTegic.value.IntegerValue
488

@<SCITEGIC>MOL_PROPERTY
Conf_Id
SciTegic.value.IntegerValue
55

@<SCITEGIC>MOL_PROPERTY
Delta U+W
SciTegic.value.DoubleValue
3.232

@<SCITEGIC>MOL_PROPERTY
U+W
SciTegic.value.DoubleValue
-5.150

@<SCITEGIC>MOL_PROPERTY
Grad RMS
SciTegic.value.DoubleValue
0.000000

@<SCITEGIC>MOL_PROPERTY
U
SciTegic.value.DoubleValue
50.625

@<SCITEGIC>MOL_PROPERTY
W
SciTegic.value.DoubleValue
-55.776

@<SCITEGIC>MOL_PROPERTY
W(PB)
SciTegic.value.DoubleValue
-57.839

@<SCITEGIC>MOL_PROPERTY
W(SA)
SciTegic.value.DoubleValue
2.064

@<SCITEGIC>MOL_PROPERTY
Valence
SciTegic.value.DoubleValue
4.837

@<SCITEGIC>MOL_PROPERTY
Coulomb
SciTegic.value.DoubleValue
45.097

@<SCITEGIC>MOL_PROPERTY
VdW
SciTegic.value.DoubleValue
0.692

@<SCITEGIC>MOL_PROPERTY
VdW6
SciTegic.value.DoubleValue
-6.655

@<SCITEGIC>MOL_PROPERTY
VdW12
SciTegic.value.DoubleValue
7.347

@<SCITEGIC>MOL_PROPERTY
Bond
SciTegic.value.DoubleValue
0.223

@<SCITEGIC>MOL_PROPERTY
Angle
SciTegic.value.DoubleValue
1.167

@<SCITEGIC>MOL_PROPERTY
Pdih
SciTegic.value.DoubleValue
3.447

@<SCITEGIC>MOL_PROPERTY
Idih
SciTegic.value.DoubleValue
0.000

@<SCITEGIC>MOL_PROPERTY
Tether
SciTegic.value.DoubleValue
0.000

@<TRIPOS>MOLECULE
guest-2_confgen4.mol2 : confsearch ligand conformer 489
          23          22           1
SMALL
USER_CHARGES
 
@<TRIPOS>ATOM
       1    N1      20.589943   18.778677   19.565251 N.4        1 MOL1        -0.5940
       2    H1      21.562340   18.756779   19.241534 H          1 MOL1         0.3649
       3    H2      20.050206   19.281149   18.852367 H          1 MOL1         0.3649
       4    H3      20.251586   17.811071   19.568372 H          1 MOL1         0.3649
       5    C1      20.462812   19.426914   20.928803 C.3        1 MOL1         0.0207
       6    H4      19.403365   19.447776   21.190485 H          1 MOL1         0.0950
       7    H5      20.813087   20.459155   20.844032 H          1 MOL1         0.0950
       8    C2      21.269774   18.696913   22.020451 C.3        1 MOL1        -0.1415
       9    H6      20.960753   17.645169   22.085283 H          1 MOL1         0.0976
      10    H7      22.325244   18.691692   21.717178 H          1 MOL1         0.0976
      11    C3      21.160142   19.371352   23.411342 C.3        1 MOL1        -0.1375
      12    H8      21.141138   20.464362   23.299214 H          1 MOL1         0.0976
      13    H9      22.077465   19.146587   23.973034 H          1 MOL1         0.0976
      14    C4      19.958596   18.902854   24.272891 C.3        1 MOL1        -0.1375
      15    H10     20.045098   17.824652   24.466000 H          1 MOL1         0.0976
      16    H11     20.029326   19.394015   25.253299 H          1 MOL1         0.0976
      17    C5      18.570988   19.204318   23.661201 C.3        1 MOL1        -0.1350
      18    H12     18.420689   18.598272   22.758410 H          1 MOL1         0.0976
      19    H13     18.516777   20.259481   23.358923 H          1 MOL1         0.0976
      20    C6      17.431496   18.897761   24.656319 C.3        1 MOL1        -0.2365
      21    H14     17.520504   19.512905   25.561245 H          1 MOL1         0.0987
      22    H15     17.444295   17.842190   24.957741 H          1 MOL1         0.0987
      23    H16     16.454014   19.106744   24.202574 H          1 MOL1         0.0987
@<TRIPOS>BOND
    1     1     2    1
    2     1     3    1
    3     1     4    1
    4     1     5    1
    5     5     6    1
    6     5     7    1
    7     5     8    1
    8     8     9    1
    9     8    10    1
   10     8    11    1
   11    11    12    1
   12    11    13    1
   13    11    14    1
   14    14    15    1
   15    14    16    1
   16    14    17    1
   17    17    18    1
   18    17    19    1
   19    17    20    1
   20    20    21    1
   21    20    22    1
   22    20    23    1
@<TRIPOS>SUBSTRUCTURE
       1 MOL1            1 RESIDUE      1      MOL     
@<SCITEGIC>MOL_PROPERTY
VConf Rank
SciTegic.value.IntegerValue
489

@<SCITEGIC>MOL_PROPERTY
Conf_Id
SciTegic.value.IntegerValue
93

@<SCITEGIC>MOL_PROPERTY
Delta U+W
SciTegic.value.DoubleValue
2.589

@<SCITEGIC>MOL_PROPERTY
U+W
SciTegic.value.DoubleValue
-5.793

@<SCITEGIC>MOL_PROPERTY
Grad RMS
SciTegic.value.DoubleValue
0.000000

@<SCITEGIC>MOL_PROPERTY
U
SciTegic.value.DoubleValue
50.122

@<SCITEGIC>MOL_PROPERTY
W
SciTegic.value.DoubleValue
-55.915

@<SCITEGIC>MOL_PROPERTY
W(PB)
SciTegic.value.DoubleValue
-58.031

@<SCITEGIC>MOL_PROPERTY
W(SA)
SciTegic.value.DoubleValue
2.115

@<SCITEGIC>MOL_PROPERTY
Valence
SciTegic.value.DoubleValue
4.132

@<SCITEGIC>MOL_PROPERTY
Coulomb
SciTegic.value.DoubleValue
45.536

@<SCITEGIC>MOL_PROPERTY
VdW
SciTegic.value.DoubleValue
0.454

@<SCITEGIC>MOL_PROPERTY
VdW6
SciTegic.value.DoubleValue
-6.262

@<SCITEGIC>MOL_PROPERTY
VdW12
SciTegic.value.DoubleValue
6.715

@<SCITEGIC>MOL_PROPERTY
Bond
SciTegic.value.DoubleValue
0.182

@<SCITEGIC>MOL_PROPERTY
Angle
SciTegic.value.DoubleValue
1.157

@<SCITEGIC>MOL_PROPERTY
Pdih
SciTegic.value.DoubleValue
2.794

@<SCITEGIC>MOL_PROPERTY
Idih
SciTegic.value.DoubleValue
0.000

@<SCITEGIC>MOL_PROPERTY
Tether
SciTegic.value.DoubleValue
0.000

@<TRIPOS>MOLECULE
guest-2_confgen4.mol2 : confsearch ligand conformer 490
          23          22           1
SMALL
USER_CHARGES
 
@<TRIPOS>ATOM
       1    N1      17.104415   17.561013   21.556171 N.4        1 MOL1        -0.5940
       2    H1      17.115672   16.949267   22.378603 H          1 MOL1         0.3649
       3    H2      17.131958   16.952246   20.731159 H          1 MOL1         0.3649
       4    H3      16.195613   18.035143   21.545758 H          1 MOL1         0.3649
       5    C1      18.255546   18.546105   21.567964 C.3        1 MOL1         0.0207
       6    H4      18.197006   19.142176   20.653266 H          1 MOL1         0.0950
       7    H5      19.184468   17.973601   21.541850 H          1 MOL1         0.0950
       8    C2      18.236490   19.480227   22.793868 C.3        1 MOL1        -0.1415
       9    H6      17.286449   20.031041   22.787208 H          1 MOL1         0.0976
      10    H7      18.247920   18.893286   23.721895 H          1 MOL1         0.0976
      11    C3      19.399652   20.504195   22.796487 C.3        1 MOL1        -0.1375
      12    H8      19.070342   21.393562   23.351535 H          1 MOL1         0.0976
      13    H9      19.598792   20.850240   21.772671 H          1 MOL1         0.0976
      14    C4      20.711564   20.002610   23.454341 C.3        1 MOL1        -0.1375
      15    H10     21.430457   20.833638   23.459337 H          1 MOL1         0.0976
      16    H11     20.522040   19.758160   24.508673 H          1 MOL1         0.0976
      17    C5      21.358740   18.785400   22.754294 C.3        1 MOL1        -0.1350
      18    H12     21.447277   18.977635   21.675924 H          1 MOL1         0.0976
      19    H13     20.720453   17.900780   22.876578 H          1 MOL1         0.0976
      20    C6      22.754145   18.470699   23.334371 C.3        1 MOL1        -0.2365
      21    H14     23.194032   17.598169   22.834152 H          1 MOL1         0.0987
      22    H15     22.694266   18.248962   24.407916 H          1 MOL1         0.0987
      23    H16     23.439400   19.317447   23.197780 H          1 MOL1         0.0987
@<TRIPOS>BOND
    1     1     2    1
    2     1     3    1
    3     1     4    1
    4     1     5    1
    5     5     6    1
    6     5     7    1
    7     5     8    1
    8     8     9    1
    9     8    10    1
   10     8    11    1
   11    11    12    1
   12    11    13    1
   13    11    14    1
   14    14    15    1
   15    14    16    1
   16    14    17    1
   17    17    18    1
   18    17    19    1
   19    17    20    1
   20    20    21    1
   21    20    22    1
   22    20    23    1
@<TRIPOS>SUBSTRUCTURE
       1 MOL1            1 RESIDUE      1      MOL     
@<SCITEGIC>MOL_PROPERTY
VConf Rank
SciTegic.value.IntegerValue
490

@<SCITEGIC>MOL_PROPERTY
Conf_Id
SciTegic.value.IntegerValue
70

@<SCITEGIC>MOL_PROPERTY
Delta U+W
SciTegic.value.DoubleValue
2.599

@<SCITEGIC>MOL_PROPERTY
U+W
SciTegic.value.DoubleValue
-5.783

@<SCITEGIC>MOL_PROPERTY
Grad RMS
SciTegic.value.DoubleValue
0.000000

@<SCITEGIC>MOL_PROPERTY
U
SciTegic.value.DoubleValue
50.122

@<SCITEGIC>MOL_PROPERTY
W
SciTegic.value.DoubleValue
-55.906

@<SCITEGIC>MOL_PROPERTY
W(PB)
SciTegic.value.DoubleValue
-58.010

@<SCITEGIC>MOL_PROPERTY
W(SA)
SciTegic.value.DoubleValue
2.105

@<SCITEGIC>MOL_PROPERTY
Valence
SciTegic.value.DoubleValue
4.132

@<SCITEGIC>MOL_PROPERTY
Coulomb
SciTegic.value.DoubleValue
45.536

@<SCITEGIC>MOL_PROPERTY
VdW
SciTegic.value.DoubleValue
0.454

@<SCITEGIC>MOL_PROPERTY
VdW6
SciTegic.value.DoubleValue
-6.262

@<SCITEGIC>MOL_PROPERTY
VdW12
SciTegic.value.DoubleValue
6.715

@<SCITEGIC>MOL_PROPERTY
Bond
SciTegic.value.DoubleValue
0.182

@<SCITEGIC>MOL_PROPERTY
Angle
SciTegic.value.DoubleValue
1.157

@<SCITEGIC>MOL_PROPERTY
Pdih
SciTegic.value.DoubleValue
2.794

@<SCITEGIC>MOL_PROPERTY
Idih
SciTegic.value.DoubleValue
0.000

@<SCITEGIC>MOL_PROPERTY
Tether
SciTegic.value.DoubleValue
0.000

@<TRIPOS>MOLECULE
guest-2_confgen4.mol2 : confsearch ligand conformer 491
          23          22           1
SMALL
USER_CHARGES
 
@<TRIPOS>ATOM
       1    N1      19.632505   17.838553   19.991483 N.4        1 MOL1        -0.5940
       2    H1      19.863360   18.329411   19.121845 H          1 MOL1         0.3649
       3    H2      19.147187   16.974472   19.727675 H          1 MOL1         0.3649
       4    H3      20.517540   17.565517   20.429238 H          1 MOL1         0.3649
       5    C1      18.792488   18.697191   20.916333 C.3        1 MOL1         0.0207
       6    H4      18.553961   18.106668   21.804777 H          1 MOL1         0.0950
       7    H5      17.856590   18.926345   20.399538 H          1 MOL1         0.0950
       8    C2      19.481725   20.011532   21.334955 C.3        1 MOL1        -0.1415
       9    H6      19.685202   20.611561   20.438140 H          1 MOL1         0.0976
      10    H7      18.780391   20.603038   21.937175 H          1 MOL1         0.0976
      11    C3      20.802941   19.807468   22.122198 C.3        1 MOL1        -0.1375
      12    H8      21.198243   20.791054   22.411158 H          1 MOL1         0.0976
      13    H9      21.557612   19.369144   21.455433 H          1 MOL1         0.0976
      14    C4      20.678412   18.920677   23.388252 C.3        1 MOL1        -0.1375
      15    H10     20.374222   17.903503   23.107685 H          1 MOL1         0.0976
      16    H11     21.674278   18.823928   23.842376 H          1 MOL1         0.0976
      17    C5      19.698232   19.484639   24.443756 C.3        1 MOL1        -0.1350
      18    H12     18.680470   19.523414   24.033151 H          1 MOL1         0.0976
      19    H13     19.979345   20.516352   24.697245 H          1 MOL1         0.0976
      20    C6      19.688069   18.626778   25.726859 C.3        1 MOL1        -0.2365
      21    H14     18.986195   19.039169   26.463283 H          1 MOL1         0.0987
      22    H15     20.682890   18.596885   26.190142 H          1 MOL1         0.0987
      23    H16     19.380955   17.595456   25.509467 H          1 MOL1         0.0987
@<TRIPOS>BOND
    1     1     2    1
    2     1     3    1
    3     1     4    1
    4     1     5    1
    5     5     6    1
    6     5     7    1
    7     5     8    1
    8     8     9    1
    9     8    10    1
   10     8    11    1
   11    11    12    1
   12    11    13    1
   13    11    14    1
   14    14    15    1
   15    14    16    1
   16    14    17    1
   17    17    18    1
   18    17    19    1
   19    17    20    1
   20    20    21    1
   21    20    22    1
   22    20    23    1
@<TRIPOS>SUBSTRUCTURE
       1 MOL1            1 RESIDUE      1      MOL     
@<SCITEGIC>MOL_PROPERTY
VConf Rank
SciTegic.value.IntegerValue
491

@<SCITEGIC>MOL_PROPERTY
Conf_Id
SciTegic.value.IntegerValue
72

@<SCITEGIC>MOL_PROPERTY
Delta U+W
SciTegic.value.DoubleValue
1.051

@<SCITEGIC>MOL_PROPERTY
U+W
SciTegic.value.DoubleValue
-7.331

@<SCITEGIC>MOL_PROPERTY
Grad RMS
SciTegic.value.DoubleValue
0.000000

@<SCITEGIC>MOL_PROPERTY
U
SciTegic.value.DoubleValue
48.590

@<SCITEGIC>MOL_PROPERTY
W
SciTegic.value.DoubleValue
-55.922

@<SCITEGIC>MOL_PROPERTY
W(PB)
SciTegic.value.DoubleValue
-58.012

@<SCITEGIC>MOL_PROPERTY
W(SA)
SciTegic.value.DoubleValue
2.090

@<SCITEGIC>MOL_PROPERTY
Valence
SciTegic.value.DoubleValue
2.601

@<SCITEGIC>MOL_PROPERTY
Coulomb
SciTegic.value.DoubleValue
45.520

@<SCITEGIC>MOL_PROPERTY
VdW
SciTegic.value.DoubleValue
0.469

@<SCITEGIC>MOL_PROPERTY
VdW6
SciTegic.value.DoubleValue
-6.867

@<SCITEGIC>MOL_PROPERTY
VdW12
SciTegic.value.DoubleValue
7.336

@<SCITEGIC>MOL_PROPERTY
Bond
SciTegic.value.DoubleValue
0.205

@<SCITEGIC>MOL_PROPERTY
Angle
SciTegic.value.DoubleValue
0.962

@<SCITEGIC>MOL_PROPERTY
Pdih
SciTegic.value.DoubleValue
1.434

@<SCITEGIC>MOL_PROPERTY
Idih
SciTegic.value.DoubleValue
0.000

@<SCITEGIC>MOL_PROPERTY
Tether
SciTegic.value.DoubleValue
0.000

@<TRIPOS>MOLECULE
guest-2_confgen4.mol2 : confsearch ligand conformer 492
          23          22           1
SMALL
USER_CHARGES
 
@<TRIPOS>ATOM
       1    N1      19.230003   17.470966   25.317538 N.4        1 MOL1        -0.5940
       2    H1      18.829622   16.542792   25.491160 H          1 MOL1         0.3649
       3    H2      18.939096   18.070911   26.096140 H          1 MOL1         0.3649
       4    H3      20.248513   17.372206   25.377090 H          1 MOL1         0.3649
       5    C1      18.793185   18.030935   23.979157 C.3        1 MOL1         0.0207
       6    H4      17.701071   18.082056   23.974278 H          1 MOL1         0.0950
       7    H5      19.108441   17.329345   23.202421 H          1 MOL1         0.0950
       8    C2      19.378204   19.425451   23.687790 C.3        1 MOL1        -0.1415
       9    H6      19.086698   20.112735   24.493019 H          1 MOL1         0.0976
      10    H7      20.474506   19.378042   23.705259 H          1 MOL1         0.0976
      11    C3      18.894557   20.005861   22.335654 C.3        1 MOL1        -0.1375
      12    H8      19.327473   21.005759   22.198766 H          1 MOL1         0.0976
      13    H9      17.807478   20.158374   22.383709 H          1 MOL1         0.0976
      14    C4      19.216549   19.126955   21.096862 C.3        1 MOL1        -0.1375
      15    H10     18.648332   18.188990   21.157322 H          1 MOL1         0.0976
      16    H11     18.845573   19.638691   20.198156 H          1 MOL1         0.0976
      17    C5      20.716737   18.792261   20.897779 C.3        1 MOL1        -0.1350
      18    H12     20.818889   18.160231   20.004586 H          1 MOL1         0.0976
      19    H13     21.085740   18.187811   21.737180 H          1 MOL1         0.0976
      20    C6      21.606368   20.044200   20.725383 C.3        1 MOL1        -0.2365
      21    H14     21.248620   20.671344   19.898554 H          1 MOL1         0.0987
      22    H15     22.641075   19.753162   20.502848 H          1 MOL1         0.0987
      23    H16     21.623434   20.654266   21.637023 H          1 MOL1         0.0987
@<TRIPOS>BOND
    1     1     2    1
    2     1     3    1
    3     1     4    1
    4     1     5    1
    5     5     6    1
    6     5     7    1
    7     5     8    1
    8     8     9    1
    9     8    10    1
   10     8    11    1
   11    11    12    1
   12    11    13    1
   13    11    14    1
   14    14    15    1
   15    14    16    1
   16    14    17    1
   17    17    18    1
   18    17    19    1
   19    17    20    1
   20    20    21    1
   21    20    22    1
   22    20    23    1
@<TRIPOS>SUBSTRUCTURE
       1 MOL1            1 RESIDUE      1      MOL     
@<SCITEGIC>MOL_PROPERTY
VConf Rank
SciTegic.value.IntegerValue
492

@<SCITEGIC>MOL_PROPERTY
Conf_Id
SciTegic.value.IntegerValue
26

@<SCITEGIC>MOL_PROPERTY
Delta U+W
SciTegic.value.DoubleValue
1.076

@<SCITEGIC>MOL_PROPERTY
U+W
SciTegic.value.DoubleValue
-7.306

@<SCITEGIC>MOL_PROPERTY
Grad RMS
SciTegic.value.DoubleValue
0.000000

@<SCITEGIC>MOL_PROPERTY
U
SciTegic.value.DoubleValue
48.641

@<SCITEGIC>MOL_PROPERTY
W
SciTegic.value.DoubleValue
-55.947

@<SCITEGIC>MOL_PROPERTY
W(PB)
SciTegic.value.DoubleValue
-58.031

@<SCITEGIC>MOL_PROPERTY
W(SA)
SciTegic.value.DoubleValue
2.084

@<SCITEGIC>MOL_PROPERTY
Valence
SciTegic.value.DoubleValue
2.922

@<SCITEGIC>MOL_PROPERTY
Coulomb
SciTegic.value.DoubleValue
45.269

@<SCITEGIC>MOL_PROPERTY
VdW
SciTegic.value.DoubleValue
0.449

@<SCITEGIC>MOL_PROPERTY
VdW6
SciTegic.value.DoubleValue
-7.045

@<SCITEGIC>MOL_PROPERTY
VdW12
SciTegic.value.DoubleValue
7.494

@<SCITEGIC>MOL_PROPERTY
Bond
SciTegic.value.DoubleValue
0.220

@<SCITEGIC>MOL_PROPERTY
Angle
SciTegic.value.DoubleValue
1.205

@<SCITEGIC>MOL_PROPERTY
Pdih
SciTegic.value.DoubleValue
1.497

@<SCITEGIC>MOL_PROPERTY
Idih
SciTegic.value.DoubleValue
0.000

@<SCITEGIC>MOL_PROPERTY
Tether
SciTegic.value.DoubleValue
0.000

@<TRIPOS>MOLECULE
guest-2_confgen4.mol2 : confsearch ligand conformer 493
          23          22           1
SMALL
USER_CHARGES
 
@<TRIPOS>ATOM
       1    N1      19.297538   21.813109   23.877904 N.4        1 MOL1        -0.5940
       2    H1      18.712918   21.811580   24.719926 H          1 MOL1         0.3649
       3    H2      19.164349   22.723469   23.424623 H          1 MOL1         0.3649
       4    H3      20.273649   21.774604   24.188368 H          1 MOL1         0.3649
       5    C1      18.953554   20.666360   22.949316 C.3        1 MOL1         0.0207
       6    H4      19.590611   20.747711   22.064740 H          1 MOL1         0.0950
       7    H5      17.912810   20.785410   22.636221 H          1 MOL1         0.0950
       8    C2      19.143491   19.283788   23.600649 C.3        1 MOL1        -0.1415
       9    H6      20.184889   19.168268   23.927112 H          1 MOL1         0.0976
      10    H7      18.527987   19.226588   24.508179 H          1 MOL1         0.0976
      11    C3      18.751972   18.119684   22.656913 C.3        1 MOL1        -0.1375
      12    H8      17.676973   18.185723   22.439365 H          1 MOL1         0.0976
      13    H9      18.888417   17.167138   23.186054 H          1 MOL1         0.0976
      14    C4      19.527455   18.082074   21.312305 C.3        1 MOL1        -0.1375
      15    H10     19.183619   17.213690   20.733641 H          1 MOL1         0.0976
      16    H11     19.258852   18.961366   20.711471 H          1 MOL1         0.0976
      17    C5      21.070478   18.016370   21.442629 C.3        1 MOL1        -0.1350
      18    H12     21.449992   18.926617   21.925887 H          1 MOL1         0.0976
      19    H13     21.506921   18.007272   20.434102 H          1 MOL1         0.0976
      20    C6      21.568176   16.771232   22.211034 C.3        1 MOL1        -0.2365
      21    H14     21.247135   16.790817   23.259894 H          1 MOL1         0.0987
      22    H15     22.664872   16.726360   22.201690 H          1 MOL1         0.0987
      23    H16     21.190319   15.848036   21.752914 H          1 MOL1         0.0987
@<TRIPOS>BOND
    1     1     2    1
    2     1     3    1
    3     1     4    1
    4     1     5    1
    5     5     6    1
    6     5     7    1
    7     5     8    1
    8     8     9    1
    9     8    10    1
   10     8    11    1
   11    11    12    1
   12    11    13    1
   13    11    14    1
   14    14    15    1
   15    14    16    1
   16    14    17    1
   17    17    18    1
   18    17    19    1
   19    17    20    1
   20    20    21    1
   21    20    22    1
   22    20    23    1
@<TRIPOS>SUBSTRUCTURE
       1 MOL1            1 RESIDUE      1      MOL     
@<SCITEGIC>MOL_PROPERTY
VConf Rank
SciTegic.value.IntegerValue
493

@<SCITEGIC>MOL_PROPERTY
Conf_Id
SciTegic.value.IntegerValue
90

@<SCITEGIC>MOL_PROPERTY
Delta U+W
SciTegic.value.DoubleValue
1.131

@<SCITEGIC>MOL_PROPERTY
U+W
SciTegic.value.DoubleValue
-7.251

@<SCITEGIC>MOL_PROPERTY
Grad RMS
SciTegic.value.DoubleValue
0.000000

@<SCITEGIC>MOL_PROPERTY
U
SciTegic.value.DoubleValue
48.641

@<SCITEGIC>MOL_PROPERTY
W
SciTegic.value.DoubleValue
-55.892

@<SCITEGIC>MOL_PROPERTY
W(PB)
SciTegic.value.DoubleValue
-57.962

@<SCITEGIC>MOL_PROPERTY
W(SA)
SciTegic.value.DoubleValue
2.070

@<SCITEGIC>MOL_PROPERTY
Valence
SciTegic.value.DoubleValue
2.922

@<SCITEGIC>MOL_PROPERTY
Coulomb
SciTegic.value.DoubleValue
45.269

@<SCITEGIC>MOL_PROPERTY
VdW
SciTegic.value.DoubleValue
0.450

@<SCITEGIC>MOL_PROPERTY
VdW6
SciTegic.value.DoubleValue
-7.045

@<SCITEGIC>MOL_PROPERTY
VdW12
SciTegic.value.DoubleValue
7.495

@<SCITEGIC>MOL_PROPERTY
Bond
SciTegic.value.DoubleValue
0.220

@<SCITEGIC>MOL_PROPERTY
Angle
SciTegic.value.DoubleValue
1.205

@<SCITEGIC>MOL_PROPERTY
Pdih
SciTegic.value.DoubleValue
1.497

@<SCITEGIC>MOL_PROPERTY
Idih
SciTegic.value.DoubleValue
0.000

@<SCITEGIC>MOL_PROPERTY
Tether
SciTegic.value.DoubleValue
0.000

@<TRIPOS>MOLECULE
guest-2_confgen4.mol2 : confsearch ligand conformer 494
          23          22           1
SMALL
USER_CHARGES
 
@<TRIPOS>ATOM
       1    N1      18.224607   19.813138   24.521587 N.4        1 MOL1        -0.5940
       2    H1      18.338562   20.122294   25.492818 H          1 MOL1         0.3649
       3    H2      18.647058   18.882522   24.450082 H          1 MOL1         0.3649
       4    H3      17.218624   19.703449   24.358683 H          1 MOL1         0.3649
       5    C1      18.850279   20.787601   23.543144 C.3        1 MOL1         0.0207
       6    H4      19.910853   20.881907   23.790140 H          1 MOL1         0.0950
       7    H5      18.378789   21.762161   23.696271 H          1 MOL1         0.0950
       8    C2      18.693775   20.369782   22.066721 C.3        1 MOL1        -0.1415
       9    H6      17.625413   20.324262   21.817080 H          1 MOL1         0.0976
      10    H7      19.122953   21.155656   21.431070 H          1 MOL1         0.0976
      11    C3      19.358974   19.013562   21.722107 C.3        1 MOL1        -0.1375
      12    H8      19.181478   18.796660   20.659770 H          1 MOL1         0.0976
      13    H9      18.866000   18.210693   22.284675 H          1 MOL1         0.0976
      14    C4      20.884268   18.999116   21.995497 C.3        1 MOL1        -0.1375
      15    H10     21.346485   19.859884   21.492802 H          1 MOL1         0.0976
      16    H11     21.078231   19.126665   23.068829 H          1 MOL1         0.0976
      17    C5      21.583504   17.708941   21.503653 C.3        1 MOL1        -0.1350
      18    H12     22.668472   17.823194   21.636411 H          1 MOL1         0.0976
      19    H13     21.417745   17.584045   20.424438 H          1 MOL1         0.0976
      20    C6      21.121313   16.437599   22.251454 C.3        1 MOL1        -0.2365
      21    H14     21.252186   16.547450   23.335770 H          1 MOL1         0.0987
      22    H15     21.708715   15.568019   21.929389 H          1 MOL1         0.0987
      23    H16     20.065963   16.213803   22.052554 H          1 MOL1         0.0987
@<TRIPOS>BOND
    1     1     2    1
    2     1     3    1
    3     1     4    1
    4     1     5    1
    5     5     6    1
    6     5     7    1
    7     5     8    1
    8     8     9    1
    9     8    10    1
   10     8    11    1
   11    11    12    1
   12    11    13    1
   13    11    14    1
   14    14    15    1
   15    14    16    1
   16    14    17    1
   17    17    18    1
   18    17    19    1
   19    17    20    1
   20    20    21    1
   21    20    22    1
   22    20    23    1
@<TRIPOS>SUBSTRUCTURE
       1 MOL1            1 RESIDUE      1      MOL     
@<SCITEGIC>MOL_PROPERTY
VConf Rank
SciTegic.value.IntegerValue
494

@<SCITEGIC>MOL_PROPERTY
Conf_Id
SciTegic.value.IntegerValue
85

@<SCITEGIC>MOL_PROPERTY
Delta U+W
SciTegic.value.DoubleValue
1.193

@<SCITEGIC>MOL_PROPERTY
U+W
SciTegic.value.DoubleValue
-7.189

@<SCITEGIC>MOL_PROPERTY
Grad RMS
SciTegic.value.DoubleValue
0.000000

@<SCITEGIC>MOL_PROPERTY
U
SciTegic.value.DoubleValue
48.775

@<SCITEGIC>MOL_PROPERTY
W
SciTegic.value.DoubleValue
-55.965

@<SCITEGIC>MOL_PROPERTY
W(PB)
SciTegic.value.DoubleValue
-58.038

@<SCITEGIC>MOL_PROPERTY
W(SA)
SciTegic.value.DoubleValue
2.073

@<SCITEGIC>MOL_PROPERTY
Valence
SciTegic.value.DoubleValue
2.602

@<SCITEGIC>MOL_PROPERTY
Coulomb
SciTegic.value.DoubleValue
45.581

@<SCITEGIC>MOL_PROPERTY
VdW
SciTegic.value.DoubleValue
0.592

@<SCITEGIC>MOL_PROPERTY
VdW6
SciTegic.value.DoubleValue
-6.616

@<SCITEGIC>MOL_PROPERTY
VdW12
SciTegic.value.DoubleValue
7.208

@<SCITEGIC>MOL_PROPERTY
Bond
SciTegic.value.DoubleValue
0.196

@<SCITEGIC>MOL_PROPERTY
Angle
SciTegic.value.DoubleValue
0.832

@<SCITEGIC>MOL_PROPERTY
Pdih
SciTegic.value.DoubleValue
1.574

@<SCITEGIC>MOL_PROPERTY
Idih
SciTegic.value.DoubleValue
0.000

@<SCITEGIC>MOL_PROPERTY
Tether
SciTegic.value.DoubleValue
0.000

@<TRIPOS>MOLECULE
guest-2_confgen4.mol2 : confsearch ligand conformer 495
          23          22           1
SMALL
USER_CHARGES
 
@<TRIPOS>ATOM
       1    N1      19.995004   20.720078   23.557921 N.4        1 MOL1        -0.5940
       2    H1      19.413962   20.396926   22.777772 H          1 MOL1         0.3649
       3    H2      20.416582   21.612483   23.278298 H          1 MOL1         0.3649
       4    H3      19.368180   20.919361   24.344300 H          1 MOL1         0.3649
       5    C1      21.046727   19.691392   23.925815 C.3        1 MOL1         0.0207
       6    H4      21.620207   20.105253   24.759692 H          1 MOL1         0.0950
       7    H5      21.724781   19.564829   23.077667 H          1 MOL1         0.0950
       8    C2      20.467836   18.323972   24.342669 C.3        1 MOL1        -0.1415
       9    H6      21.226413   17.811328   24.948965 H          1 MOL1         0.0976
      10    H7      19.605899   18.472751   25.006598 H          1 MOL1         0.0976
      11    C3      20.083084   17.382274   23.169946 C.3        1 MOL1        -0.1375
      12    H8      19.741966   16.434239   23.608551 H          1 MOL1         0.0976
      13    H9      20.977174   17.129112   22.583445 H          1 MOL1         0.0976
      14    C4      18.963388   17.909269   22.236235 C.3        1 MOL1        -0.1375
      15    H10     18.344987   17.058249   21.918298 H          1 MOL1         0.0976
      16    H11     18.288084   18.573652   22.791468 H          1 MOL1         0.0976
      17    C5      19.507376   18.602735   20.963332 C.3        1 MOL1        -0.1350
      18    H12     20.038390   17.863479   20.347167 H          1 MOL1         0.0976
      19    H13     20.247225   19.371147   21.217190 H          1 MOL1         0.0976
      20    C6      18.373511   19.236376   20.129859 C.3        1 MOL1        -0.2365
      21    H14     17.644495   18.477807   19.816048 H          1 MOL1         0.0987
      22    H15     18.775990   19.709762   19.224820 H          1 MOL1         0.0987
      23    H16     17.839545   20.005364   20.702837 H          1 MOL1         0.0987
@<TRIPOS>BOND
    1     1     2    1
    2     1     3    1
    3     1     4    1
    4     1     5    1
    5     5     6    1
    6     5     7    1
    7     5     8    1
    8     8     9    1
    9     8    10    1
   10     8    11    1
   11    11    12    1
   12    11    13    1
   13    11    14    1
   14    14    15    1
   15    14    16    1
   16    14    17    1
   17    17    18    1
   18    17    19    1
   19    17    20    1
   20    20    21    1
   21    20    22    1
   22    20    23    1
@<TRIPOS>SUBSTRUCTURE
       1 MOL1            1 RESIDUE      1      MOL     
@<SCITEGIC>MOL_PROPERTY
VConf Rank
SciTegic.value.IntegerValue
495

@<SCITEGIC>MOL_PROPERTY
Conf_Id
SciTegic.value.IntegerValue
82

@<SCITEGIC>MOL_PROPERTY
Delta U+W
SciTegic.value.DoubleValue
5.994

@<SCITEGIC>MOL_PROPERTY
U+W
SciTegic.value.DoubleValue
-2.388

@<SCITEGIC>MOL_PROPERTY
Grad RMS
SciTegic.value.DoubleValue
0.000000

@<SCITEGIC>MOL_PROPERTY
U
SciTegic.value.DoubleValue
52.836

@<SCITEGIC>MOL_PROPERTY
W
SciTegic.value.DoubleValue
-55.224

@<SCITEGIC>MOL_PROPERTY
W(PB)
SciTegic.value.DoubleValue
-57.261

@<SCITEGIC>MOL_PROPERTY
W(SA)
SciTegic.value.DoubleValue
2.037

@<SCITEGIC>MOL_PROPERTY
Valence
SciTegic.value.DoubleValue
5.785

@<SCITEGIC>MOL_PROPERTY
Coulomb
SciTegic.value.DoubleValue
46.744

@<SCITEGIC>MOL_PROPERTY
VdW
SciTegic.value.DoubleValue
0.307

@<SCITEGIC>MOL_PROPERTY
VdW6
SciTegic.value.DoubleValue
-7.672

@<SCITEGIC>MOL_PROPERTY
VdW12
SciTegic.value.DoubleValue
7.979

@<SCITEGIC>MOL_PROPERTY
Bond
SciTegic.value.DoubleValue
0.217

@<SCITEGIC>MOL_PROPERTY
Angle
SciTegic.value.DoubleValue
1.470

@<SCITEGIC>MOL_PROPERTY
Pdih
SciTegic.value.DoubleValue
4.098

@<SCITEGIC>MOL_PROPERTY
Idih
SciTegic.value.DoubleValue
0.000

@<SCITEGIC>MOL_PROPERTY
Tether
SciTegic.value.DoubleValue
0.000

@<TRIPOS>MOLECULE
guest-2_confgen4.mol2 : confsearch ligand conformer 496
          23          22           1
SMALL
USER_CHARGES
 
@<TRIPOS>ATOM
       1    N1      20.130192   19.066647   20.507901 N.4        1 MOL1        -0.5940
       2    H1      19.398085   18.656104   19.919269 H          1 MOL1         0.3649
       3    H2      20.682934   19.688068   19.907390 H          1 MOL1         0.3649
       4    H3      19.666021   19.651187   21.210420 H          1 MOL1         0.3649
       5    C1      20.990497   18.000520   21.158211 C.3        1 MOL1         0.0207
       6    H4      21.791031   18.490224   21.718982 H          1 MOL1         0.0950
       7    H5      21.447022   17.422045   20.350461 H          1 MOL1         0.0950
       8    C2      20.211239   17.044216   22.083931 C.3        1 MOL1        -0.1415
       9    H6      19.265451   16.754717   21.606912 H          1 MOL1         0.0976
      10    H7      20.794983   16.118589   22.175013 H          1 MOL1         0.0976
      11    C3      19.945462   17.579518   23.516736 C.3        1 MOL1        -0.1375
      12    H8      20.898473   17.743073   24.038742 H          1 MOL1         0.0976
      13    H9      19.437753   16.781661   24.076342 H          1 MOL1         0.0976
      14    C4      19.067371   18.854639   23.596005 C.3        1 MOL1        -0.1375
      15    H10     18.375927   18.892469   22.743832 H          1 MOL1         0.0976
      16    H11     18.431365   18.785236   24.489547 H          1 MOL1         0.0976
      17    C5      19.894866   20.158886   23.702285 C.3        1 MOL1        -0.1350
      18    H12     20.652783   20.211839   22.911690 H          1 MOL1         0.0976
      19    H13     20.448022   20.160298   24.652102 H          1 MOL1         0.0976
      20    C6      18.996101   21.411821   23.637450 C.3        1 MOL1        -0.2365
      21    H14     18.450782   21.462388   22.686221 H          1 MOL1         0.0987
      22    H15     19.597800   22.325424   23.729467 H          1 MOL1         0.0987
      23    H16     18.260280   21.411017   24.452272 H          1 MOL1         0.0987
@<TRIPOS>BOND
    1     1     2    1
    2     1     3    1
    3     1     4    1
    4     1     5    1
    5     5     6    1
    6     5     7    1
    7     5     8    1
    8     8     9    1
    9     8    10    1
   10     8    11    1
   11    11    12    1
   12    11    13    1
   13    11    14    1
   14    14    15    1
   15    14    16    1
   16    14    17    1
   17    17    18    1
   18    17    19    1
   19    17    20    1
   20    20    21    1
   21    20    22    1
   22    20    23    1
@<TRIPOS>SUBSTRUCTURE
       1 MOL1            1 RESIDUE      1      MOL     
@<SCITEGIC>MOL_PROPERTY
VConf Rank
SciTegic.value.IntegerValue
496

@<SCITEGIC>MOL_PROPERTY
Conf_Id
SciTegic.value.IntegerValue
5

@<SCITEGIC>MOL_PROPERTY
Delta U+W
SciTegic.value.DoubleValue
6.087

@<SCITEGIC>MOL_PROPERTY
U+W
SciTegic.value.DoubleValue
-2.295

@<SCITEGIC>MOL_PROPERTY
Grad RMS
SciTegic.value.DoubleValue
0.000000

@<SCITEGIC>MOL_PROPERTY
U
SciTegic.value.DoubleValue
52.836

@<SCITEGIC>MOL_PROPERTY
W
SciTegic.value.DoubleValue
-55.131

@<SCITEGIC>MOL_PROPERTY
W(PB)
SciTegic.value.DoubleValue
-57.202

@<SCITEGIC>MOL_PROPERTY
W(SA)
SciTegic.value.DoubleValue
2.071

@<SCITEGIC>MOL_PROPERTY
Valence
SciTegic.value.DoubleValue
5.785

@<SCITEGIC>MOL_PROPERTY
Coulomb
SciTegic.value.DoubleValue
46.744

@<SCITEGIC>MOL_PROPERTY
VdW
SciTegic.value.DoubleValue
0.307

@<SCITEGIC>MOL_PROPERTY
VdW6
SciTegic.value.DoubleValue
-7.672

@<SCITEGIC>MOL_PROPERTY
VdW12
SciTegic.value.DoubleValue
7.980

@<SCITEGIC>MOL_PROPERTY
Bond
SciTegic.value.DoubleValue
0.217

@<SCITEGIC>MOL_PROPERTY
Angle
SciTegic.value.DoubleValue
1.470

@<SCITEGIC>MOL_PROPERTY
Pdih
SciTegic.value.DoubleValue
4.098

@<SCITEGIC>MOL_PROPERTY
Idih
SciTegic.value.DoubleValue
0.000

@<SCITEGIC>MOL_PROPERTY
Tether
SciTegic.value.DoubleValue
0.000

@<TRIPOS>MOLECULE
guest-2_confgen4.mol2 : confsearch ligand conformer 497
          23          22           1
SMALL
USER_CHARGES
 
@<TRIPOS>ATOM
       1    N1      22.576292   18.963074   19.977755 N.4        1 MOL1        -0.5940
       2    H1      22.339814   19.859975   19.541258 H          1 MOL1         0.3649
       3    H2      22.946506   18.359194   19.235890 H          1 MOL1         0.3649
       4    H3      23.346865   19.139230   20.630495 H          1 MOL1         0.3649
       5    C1      21.381484   18.337766   20.668640 C.3        1 MOL1         0.0207
       6    H4      21.696461   17.376368   21.083369 H          1 MOL1         0.0950
       7    H5      20.614037   18.151032   19.912563 H          1 MOL1         0.0950
       8    C2      20.801630   19.220011   21.788457 C.3        1 MOL1        -0.1415
       9    H6      21.580327   19.418314   22.537060 H          1 MOL1         0.0976
      10    H7      20.501824   20.190288   21.370392 H          1 MOL1         0.0976
      11    C3      19.587193   18.547853   22.466344 C.3        1 MOL1        -0.1375
      12    H8      19.889961   17.575147   22.878628 H          1 MOL1         0.0976
      13    H9      18.812604   18.346352   21.713210 H          1 MOL1         0.0976
      14    C4      18.996608   19.425628   23.593164 C.3        1 MOL1        -0.1375
      15    H10     19.770952   19.627077   24.346371 H          1 MOL1         0.0976
      16    H11     18.693805   20.398261   23.181085 H          1 MOL1         0.0976
      17    C5      17.782001   18.753143   24.270848 C.3        1 MOL1        -0.1350
      18    H12     18.080436   17.780621   24.686911 H          1 MOL1         0.0976
      19    H13     17.003386   18.551751   23.521734 H          1 MOL1         0.0976
      20    C6      17.195023   19.632525   25.395415 C.3        1 MOL1        -0.2365
      21    H14     16.334102   19.138613   25.864364 H          1 MOL1         0.0987
      22    H15     16.855772   20.600267   25.003480 H          1 MOL1         0.0987
      23    H16     17.941247   19.823136   26.177749 H          1 MOL1         0.0987
@<TRIPOS>BOND
    1     1     2    1
    2     1     3    1
    3     1     4    1
    4     1     5    1
    5     5     6    1
    6     5     7    1
    7     5     8    1
    8     8     9    1
    9     8    10    1
   10     8    11    1
   11    11    12    1
   12    11    13    1
   13    11    14    1
   14    14    15    1
   15    14    16    1
   16    14    17    1
   17    17    18    1
   18    17    19    1
   19    17    20    1
   20    20    21    1
   21    20    22    1
   22    20    23    1
@<TRIPOS>SUBSTRUCTURE
       1 MOL1            1 RESIDUE      1      MOL     
@<SCITEGIC>MOL_PROPERTY
VConf Rank
SciTegic.value.IntegerValue
497

@<SCITEGIC>MOL_PROPERTY
Conf_Id
SciTegic.value.IntegerValue
40

@<SCITEGIC>MOL_PROPERTY
Delta U+W
SciTegic.value.DoubleValue
0.000

@<SCITEGIC>MOL_PROPERTY
U+W
SciTegic.value.DoubleValue
-8.382

@<SCITEGIC>MOL_PROPERTY
Grad RMS
SciTegic.value.DoubleValue
0.000000

@<SCITEGIC>MOL_PROPERTY
U
SciTegic.value.DoubleValue
46.604

@<SCITEGIC>MOL_PROPERTY
W
SciTegic.value.DoubleValue
-54.986

@<SCITEGIC>MOL_PROPERTY
W(PB)
SciTegic.value.DoubleValue
-57.162

@<SCITEGIC>MOL_PROPERTY
W(SA)
SciTegic.value.DoubleValue
2.176

@<SCITEGIC>MOL_PROPERTY
Valence
SciTegic.value.DoubleValue
1.727

@<SCITEGIC>MOL_PROPERTY
Coulomb
SciTegic.value.DoubleValue
44.434

@<SCITEGIC>MOL_PROPERTY
VdW
SciTegic.value.DoubleValue
0.443

@<SCITEGIC>MOL_PROPERTY
VdW6
SciTegic.value.DoubleValue
-4.623

@<SCITEGIC>MOL_PROPERTY
VdW12
SciTegic.value.DoubleValue
5.066

@<SCITEGIC>MOL_PROPERTY
Bond
SciTegic.value.DoubleValue
0.112

@<SCITEGIC>MOL_PROPERTY
Angle
SciTegic.value.DoubleValue
0.386

@<SCITEGIC>MOL_PROPERTY
Pdih
SciTegic.value.DoubleValue
1.228

@<SCITEGIC>MOL_PROPERTY
Idih
SciTegic.value.DoubleValue
0.000

@<SCITEGIC>MOL_PROPERTY
Tether
SciTegic.value.DoubleValue
0.000

@<TRIPOS>MOLECULE
guest-2_confgen4.mol2 : confsearch ligand conformer 498
          23          22           1
SMALL
USER_CHARGES
 
@<TRIPOS>ATOM
       1    N1      17.495309   17.043377   24.539966 N.4        1 MOL1        -0.5940
       2    H1      17.368389   16.122678   24.107480 H          1 MOL1         0.3649
       3    H2      16.651577   17.589767   24.338949 H          1 MOL1         0.3649
       4    H3      17.519647   16.895003   25.554571 H          1 MOL1         0.3649
       5    C1      18.748434   17.734199   24.041744 C.3        1 MOL1         0.0207
       6    H4      19.606642   17.113765   24.313685 H          1 MOL1         0.0950
       7    H5      18.834617   18.689633   24.565421 H          1 MOL1         0.0950
       8    C2      18.742101   17.971124   22.519589 C.3        1 MOL1        -0.1415
       9    H6      18.607150   17.008454   22.008704 H          1 MOL1         0.0976
      10    H7      17.880955   18.595276   22.246008 H          1 MOL1         0.0976
      11    C3      20.045319   18.630428   22.009135 C.3        1 MOL1        -0.1375
      12    H8      20.008641   18.659191   20.912418 H          1 MOL1         0.0976
      13    H9      20.904106   17.998973   22.275820 H          1 MOL1         0.0976
      14    C4      20.258049   20.063586   22.559934 C.3        1 MOL1        -0.1375
      15    H10     19.408781   20.699859   22.275119 H          1 MOL1         0.0976
      16    H11     20.269905   20.037371   23.657512 H          1 MOL1         0.0976
      17    C5      21.576425   20.718243   22.080521 C.3        1 MOL1        -0.1350
      18    H12     22.430545   20.091091   22.371996 H          1 MOL1         0.0976
      19    H13     21.705153   21.675161   22.605509 H          1 MOL1         0.0976
      20    C6      21.617760   20.978597   20.557400 C.3        1 MOL1        -0.2365
      21    H14     21.619354   20.041543   19.987151 H          1 MOL1         0.0987
      22    H15     22.527713   21.529732   20.286875 H          1 MOL1         0.0987
      23    H16     20.755425   21.576622   20.235290 H          1 MOL1         0.0987
@<TRIPOS>BOND
    1     1     2    1
    2     1     3    1
    3     1     4    1
    4     1     5    1
    5     5     6    1
    6     5     7    1
    7     5     8    1
    8     8     9    1
    9     8    10    1
   10     8    11    1
   11    11    12    1
   12    11    13    1
   13    11    14    1
   14    14    15    1
   15    14    16    1
   16    14    17    1
   17    17    18    1
   18    17    19    1
   19    17    20    1
   20    20    21    1
   21    20    22    1
   22    20    23    1
@<TRIPOS>SUBSTRUCTURE
       1 MOL1            1 RESIDUE      1      MOL     
@<SCITEGIC>MOL_PROPERTY
VConf Rank
SciTegic.value.IntegerValue
498

@<SCITEGIC>MOL_PROPERTY
Conf_Id
SciTegic.value.IntegerValue
65

@<SCITEGIC>MOL_PROPERTY
Delta U+W
SciTegic.value.DoubleValue
1.004

@<SCITEGIC>MOL_PROPERTY
U+W
SciTegic.value.DoubleValue
-7.378

@<SCITEGIC>MOL_PROPERTY
Grad RMS
SciTegic.value.DoubleValue
0.000000

@<SCITEGIC>MOL_PROPERTY
U
SciTegic.value.DoubleValue
48.047

@<SCITEGIC>MOL_PROPERTY
W
SciTegic.value.DoubleValue
-55.425

@<SCITEGIC>MOL_PROPERTY
W(PB)
SciTegic.value.DoubleValue
-57.542

@<SCITEGIC>MOL_PROPERTY
W(SA)
SciTegic.value.DoubleValue
2.116

@<SCITEGIC>MOL_PROPERTY
Valence
SciTegic.value.DoubleValue
2.583

@<SCITEGIC>MOL_PROPERTY
Coulomb
SciTegic.value.DoubleValue
44.791

@<SCITEGIC>MOL_PROPERTY
VdW
SciTegic.value.DoubleValue
0.673

@<SCITEGIC>MOL_PROPERTY
VdW6
SciTegic.value.DoubleValue
-5.788

@<SCITEGIC>MOL_PROPERTY
VdW12
SciTegic.value.DoubleValue
6.462

@<SCITEGIC>MOL_PROPERTY
Bond
SciTegic.value.DoubleValue
0.177

@<SCITEGIC>MOL_PROPERTY
Angle
SciTegic.value.DoubleValue
0.787

@<SCITEGIC>MOL_PROPERTY
Pdih
SciTegic.value.DoubleValue
1.619

@<SCITEGIC>MOL_PROPERTY
Idih
SciTegic.value.DoubleValue
0.000

@<SCITEGIC>MOL_PROPERTY
Tether
SciTegic.value.DoubleValue
0.000

@<TRIPOS>MOLECULE
guest-2_confgen4.mol2 : confsearch ligand conformer 499
          23          22           1
SMALL
USER_CHARGES
 
@<TRIPOS>ATOM
       1    N1      23.301982   18.622306   22.960345 N.4        1 MOL1        -0.5940
       2    H1      23.541990   18.408135   23.933671 H          1 MOL1         0.3649
       3    H2      24.029136   19.253050   22.606173 H          1 MOL1         0.3649
       4    H3      23.382010   17.748242   22.430777 H          1 MOL1         0.3649
       5    C1      21.920155   19.232052   22.839758 C.3        1 MOL1         0.0207
       6    H4      21.746381   19.461396   21.785375 H          1 MOL1         0.0950
       7    H5      21.914930   20.169968   23.401627 H          1 MOL1         0.0950
       8    C2      20.804993   18.307728   23.364327 C.3        1 MOL1        -0.1415
       9    H6      20.809004   17.365943   22.799517 H          1 MOL1         0.0976
      10    H7      21.018527   18.047888   24.409714 H          1 MOL1         0.0976
      11    C3      19.402039   18.955174   23.285919 C.3        1 MOL1        -0.1375
      12    H8      19.398371   19.892085   23.859987 H          1 MOL1         0.0976
      13    H9      18.686586   18.284759   23.779512 H          1 MOL1         0.0976
      14    C4      18.939370   19.229896   21.832289 C.3        1 MOL1        -0.1375
      15    H10     19.668278   19.880582   21.331483 H          1 MOL1         0.0976
      16    H11     18.923328   18.289355   21.264535 H          1 MOL1         0.0976
      17    C5      17.550492   19.908174   21.745815 C.3        1 MOL1        -0.1350
      18    H12     17.352689   20.172217   20.697470 H          1 MOL1         0.0976
      19    H13     17.563678   20.855104   22.303443 H          1 MOL1         0.0976
      20    C6      16.395998   19.017815   22.259424 C.3        1 MOL1        -0.2365
      21    H14     16.479925   18.828850   23.336692 H          1 MOL1         0.0987
      22    H15     16.381677   18.050873   21.739974 H          1 MOL1         0.0987
      23    H16     15.428350   19.506062   22.085599 H          1 MOL1         0.0987
@<TRIPOS>BOND
    1     1     2    1
    2     1     3    1
    3     1     4    1
    4     1     5    1
    5     5     6    1
    6     5     7    1
    7     5     8    1
    8     8     9    1
    9     8    10    1
   10     8    11    1
   11    11    12    1
   12    11    13    1
   13    11    14    1
   14    14    15    1
   15    14    16    1
   16    14    17    1
   17    17    18    1
   18    17    19    1
   19    17    20    1
   20    20    21    1
   21    20    22    1
   22    20    23    1
@<TRIPOS>SUBSTRUCTURE
       1 MOL1            1 RESIDUE      1      MOL     
@<SCITEGIC>MOL_PROPERTY
VConf Rank
SciTegic.value.IntegerValue
499

@<SCITEGIC>MOL_PROPERTY
Conf_Id
SciTegic.value.IntegerValue
92

@<SCITEGIC>MOL_PROPERTY
Delta U+W
SciTegic.value.DoubleValue
0.973

@<SCITEGIC>MOL_PROPERTY
U+W
SciTegic.value.DoubleValue
-7.409

@<SCITEGIC>MOL_PROPERTY
Grad RMS
SciTegic.value.DoubleValue
0.000000

@<SCITEGIC>MOL_PROPERTY
U
SciTegic.value.DoubleValue
48.047

@<SCITEGIC>MOL_PROPERTY
W
SciTegic.value.DoubleValue
-55.456

@<SCITEGIC>MOL_PROPERTY
W(PB)
SciTegic.value.DoubleValue
-57.595

@<SCITEGIC>MOL_PROPERTY
W(SA)
SciTegic.value.DoubleValue
2.138

@<SCITEGIC>MOL_PROPERTY
Valence
SciTegic.value.DoubleValue
2.583

@<SCITEGIC>MOL_PROPERTY
Coulomb
SciTegic.value.DoubleValue
44.791

@<SCITEGIC>MOL_PROPERTY
VdW
SciTegic.value.DoubleValue
0.674

@<SCITEGIC>MOL_PROPERTY
VdW6
SciTegic.value.DoubleValue
-5.789

@<SCITEGIC>MOL_PROPERTY
VdW12
SciTegic.value.DoubleValue
6.462

@<SCITEGIC>MOL_PROPERTY
Bond
SciTegic.value.DoubleValue
0.177

@<SCITEGIC>MOL_PROPERTY
Angle
SciTegic.value.DoubleValue
0.787

@<SCITEGIC>MOL_PROPERTY
Pdih
SciTegic.value.DoubleValue
1.619

@<SCITEGIC>MOL_PROPERTY
Idih
SciTegic.value.DoubleValue
0.000

@<SCITEGIC>MOL_PROPERTY
Tether
SciTegic.value.DoubleValue
0.000

@<TRIPOS>MOLECULE
guest-2_confgen4.mol2 : confsearch ligand conformer 500
          23          22           1
SMALL
USER_CHARGES
 
@<TRIPOS>ATOM
       1    N1      18.162028   16.210856   24.139161 N.4        1 MOL1        -0.5940
       2    H1      17.265618   16.316032   24.626419 H          1 MOL1         0.3649
       3    H2      18.753977   15.617794   24.729693 H          1 MOL1         0.3649
       4    H3      17.973583   15.686826   23.278510 H          1 MOL1         0.3649
       5    C1      18.809113   17.551129   23.855037 C.3        1 MOL1         0.0207
       6    H4      18.954222   18.064966   24.809151 H          1 MOL1         0.0950
       7    H5      18.112868   18.137946   23.250404 H          1 MOL1         0.0950
       8    C2      20.158834   17.426539   23.123199 C.3        1 MOL1        -0.1415
       9    H6      20.833611   16.798288   23.719793 H          1 MOL1         0.0976
      10    H7      20.013137   16.909686   22.165268 H          1 MOL1         0.0976
      11    C3      20.834608   18.796204   22.877475 C.3        1 MOL1        -0.1375
      12    H8      21.827720   18.625298   22.439329 H          1 MOL1         0.0976
      13    H9      21.002385   19.299808   23.839703 H          1 MOL1         0.0976
      14    C4      20.017268   19.718245   21.940855 C.3        1 MOL1        -0.1375
      15    H10     19.823042   19.198898   20.992186 H          1 MOL1         0.0976
      16    H11     19.039251   19.937676   22.389622 H          1 MOL1         0.0976
      17    C5      20.753667   21.046558   21.657888 C.3        1 MOL1        -0.1350
      18    H12     21.731282   20.839281   21.200432 H          1 MOL1         0.0976
      19    H13     20.951151   21.570078   22.603883 H          1 MOL1         0.0976
      20    C6      19.937059   21.965878   20.724846 C.3        1 MOL1        -0.2365
      21    H14     19.752228   21.482084   19.756854 H          1 MOL1         0.0987
      22    H15     20.476099   22.903205   20.535376 H          1 MOL1         0.0987
      23    H16     18.966645   22.219756   21.171011 H          1 MOL1         0.0987
@<TRIPOS>BOND
    1     1     2    1
    2     1     3    1
    3     1     4    1
    4     1     5    1
    5     5     6    1
    6     5     7    1
    7     5     8    1
    8     8     9    1
    9     8    10    1
   10     8    11    1
   11    11    12    1
   12    11    13    1
   13    11    14    1
   14    14    15    1
   15    14    16    1
   16    14    17    1
   17    17    18    1
   18    17    19    1
   19    17    20    1
   20    20    21    1
   21    20    22    1
   22    20    23    1
@<TRIPOS>SUBSTRUCTURE
       1 MOL1            1 RESIDUE      1      MOL     
@<SCITEGIC>MOL_PROPERTY
VConf Rank
SciTegic.value.IntegerValue
500

@<SCITEGIC>MOL_PROPERTY
Conf_Id
SciTegic.value.IntegerValue
42

@<SCITEGIC>MOL_PROPERTY
Delta U+W
SciTegic.value.DoubleValue
0.365

@<SCITEGIC>MOL_PROPERTY
U+W
SciTegic.value.DoubleValue
-8.017

@<SCITEGIC>MOL_PROPERTY
Grad RMS
SciTegic.value.DoubleValue
0.000000

@<SCITEGIC>MOL_PROPERTY
U
SciTegic.value.DoubleValue
47.375

@<SCITEGIC>MOL_PROPERTY
W
SciTegic.value.DoubleValue
-55.392

@<SCITEGIC>MOL_PROPERTY
W(PB)
SciTegic.value.DoubleValue
-57.543

@<SCITEGIC>MOL_PROPERTY
W(SA)
SciTegic.value.DoubleValue
2.152

@<SCITEGIC>MOL_PROPERTY
Valence
SciTegic.value.DoubleValue
2.032

@<SCITEGIC>MOL_PROPERTY
Coulomb
SciTegic.value.DoubleValue
44.843

@<SCITEGIC>MOL_PROPERTY
VdW
SciTegic.value.DoubleValue
0.499

@<SCITEGIC>MOL_PROPERTY
VdW6
SciTegic.value.DoubleValue
-5.218

@<SCITEGIC>MOL_PROPERTY
VdW12
SciTegic.value.DoubleValue
5.717

@<SCITEGIC>MOL_PROPERTY
Bond
SciTegic.value.DoubleValue
0.135

@<SCITEGIC>MOL_PROPERTY
Angle
SciTegic.value.DoubleValue
0.514

@<SCITEGIC>MOL_PROPERTY
Pdih
SciTegic.value.DoubleValue
1.383

@<SCITEGIC>MOL_PROPERTY
Idih
SciTegic.value.DoubleValue
0.000

@<SCITEGIC>MOL_PROPERTY
Tether
SciTegic.value.DoubleValue
0.000

@<TRIPOS>MOLECULE
guest-2_confgen4.mol2 : confsearch ligand conformer 501
          23          22           1
SMALL
USER_CHARGES
 
@<TRIPOS>ATOM
       1    N1      19.525545   22.038338   23.470674 N.4        1 MOL1        -0.5940
       2    H1      20.513663   22.228530   23.275526 H          1 MOL1         0.3649
       3    H2      19.181870   22.810230   24.052069 H          1 MOL1         0.3649
       4    H3      19.025128   22.090469   22.578337 H          1 MOL1         0.3649
       5    C1      19.332904   20.695159   24.147684 C.3        1 MOL1         0.0207
       6    H4      18.266046   20.565269   24.348592 H          1 MOL1         0.0950
       7    H5      19.857788   20.730578   25.106231 H          1 MOL1         0.0950
       8    C2      19.855283   19.501328   23.324811 C.3        1 MOL1        -0.1415
       9    H6      20.920223   19.647445   23.100751 H          1 MOL1         0.0976
      10    H7      19.779853   18.604099   23.951236 H          1 MOL1         0.0976
      11    C3      19.059104   19.282930   22.015152 C.3        1 MOL1        -0.1375
      12    H8      19.046824   20.215135   21.435346 H          1 MOL1         0.0976
      13    H9      18.010934   19.061283   22.259324 H          1 MOL1         0.0976
      14    C4      19.623032   18.162350   21.103371 C.3        1 MOL1        -0.1375
      15    H10     19.005652   18.134414   20.194774 H          1 MOL1         0.0976
      16    H11     20.634698   18.424741   20.764393 H          1 MOL1         0.0976
      17    C5      19.618773   16.744984   21.732257 C.3        1 MOL1        -0.1350
      18    H12     19.395361   16.012791   20.943617 H          1 MOL1         0.0976
      19    H13     18.806042   16.654677   22.466364 H          1 MOL1         0.0976
      20    C6      20.970459   16.354594   22.374753 C.3        1 MOL1        -0.2365
      21    H14     21.776545   16.368775   21.629714 H          1 MOL1         0.0987
      22    H15     20.919327   15.339687   22.789798 H          1 MOL1         0.0987
      23    H16     21.252201   17.032017   23.188288 H          1 MOL1         0.0987
@<TRIPOS>BOND
    1     1     2    1
    2     1     3    1
    3     1     4    1
    4     1     5    1
    5     5     6    1
    6     5     7    1
    7     5     8    1
    8     8     9    1
    9     8    10    1
   10     8    11    1
   11    11    12    1
   12    11    13    1
   13    11    14    1
   14    14    15    1
   15    14    16    1
   16    14    17    1
   17    17    18    1
   18    17    19    1
   19    17    20    1
   20    20    21    1
   21    20    22    1
   22    20    23    1
@<TRIPOS>SUBSTRUCTURE
       1 MOL1            1 RESIDUE      1      MOL     
@<SCITEGIC>MOL_PROPERTY
VConf Rank
SciTegic.value.IntegerValue
501

@<SCITEGIC>MOL_PROPERTY
Conf_Id
SciTegic.value.IntegerValue
3

@<SCITEGIC>MOL_PROPERTY
Delta U+W
SciTegic.value.DoubleValue
3.283

@<SCITEGIC>MOL_PROPERTY
U+W
SciTegic.value.DoubleValue
-5.099

@<SCITEGIC>MOL_PROPERTY
Grad RMS
SciTegic.value.DoubleValue
0.000000

@<SCITEGIC>MOL_PROPERTY
U
SciTegic.value.DoubleValue
50.701

@<SCITEGIC>MOL_PROPERTY
W
SciTegic.value.DoubleValue
-55.800

@<SCITEGIC>MOL_PROPERTY
W(PB)
SciTegic.value.DoubleValue
-57.867

@<SCITEGIC>MOL_PROPERTY
W(SA)
SciTegic.value.DoubleValue
2.067

@<SCITEGIC>MOL_PROPERTY
Valence
SciTegic.value.DoubleValue
4.880

@<SCITEGIC>MOL_PROPERTY
Coulomb
SciTegic.value.DoubleValue
45.095

@<SCITEGIC>MOL_PROPERTY
VdW
SciTegic.value.DoubleValue
0.726

@<SCITEGIC>MOL_PROPERTY
VdW6
SciTegic.value.DoubleValue
-6.620

@<SCITEGIC>MOL_PROPERTY
VdW12
SciTegic.value.DoubleValue
7.346

@<SCITEGIC>MOL_PROPERTY
Bond
SciTegic.value.DoubleValue
0.222

@<SCITEGIC>MOL_PROPERTY
Angle
SciTegic.value.DoubleValue
1.260

@<SCITEGIC>MOL_PROPERTY
Pdih
SciTegic.value.DoubleValue
3.398

@<SCITEGIC>MOL_PROPERTY
Idih
SciTegic.value.DoubleValue
0.000

@<SCITEGIC>MOL_PROPERTY
Tether
SciTegic.value.DoubleValue
0.000

@<TRIPOS>MOLECULE
guest-2_confgen4.mol2 : confsearch ligand conformer 502
          23          22           1
SMALL
USER_CHARGES
 
@<TRIPOS>ATOM
       1    N1      21.299237   20.487620   24.624455 N.4        1 MOL1        -0.5940
       2    H1      20.865051   20.450659   25.552178 H          1 MOL1         0.3649
       3    H2      22.181012   21.001240   24.726935 H          1 MOL1         0.3649
       4    H3      21.539453   19.526489   24.363449 H          1 MOL1         0.3649
       5    C1      20.386448   21.133760   23.600926 C.3        1 MOL1         0.0207
       6    H4      20.918323   21.169609   22.646823 H          1 MOL1         0.0950
       7    H5      20.200562   22.161929   23.923171 H          1 MOL1         0.0950
       8    C2      19.039834   20.403066   23.422064 C.3        1 MOL1        -0.1415
       9    H6      18.494365   20.420009   24.374945 H          1 MOL1         0.0976
      10    H7      18.424998   20.967231   22.708234 H          1 MOL1         0.0976
      11    C3      19.172133   18.937788   22.935131 C.3        1 MOL1        -0.1375
      12    H8      18.164765   18.504962   22.882727 H          1 MOL1         0.0976
      13    H9      19.721183   18.344721   23.678477 H          1 MOL1         0.0976
      14    C4      19.861537   18.814349   21.552411 C.3        1 MOL1        -0.1375
      15    H10     19.295323   19.385824   20.804089 H          1 MOL1         0.0976
      16    H11     20.859985   19.268713   21.597241 H          1 MOL1         0.0976
      17    C5      20.020996   17.351401   21.071992 C.3        1 MOL1        -0.1350
      18    H12     20.596240   16.777338   21.811770 H          1 MOL1         0.0976
      19    H13     20.617832   17.347468   20.149151 H          1 MOL1         0.0976
      20    C6      18.675434   16.642664   20.795406 C.3        1 MOL1        -0.2365
      21    H14     18.066759   17.214683   20.083144 H          1 MOL1         0.0987
      22    H15     18.093260   16.507599   21.715231 H          1 MOL1         0.0987
      23    H16     18.847229   15.647245   20.365798 H          1 MOL1         0.0987
@<TRIPOS>BOND
    1     1     2    1
    2     1     3    1
    3     1     4    1
    4     1     5    1
    5     5     6    1
    6     5     7    1
    7     5     8    1
    8     8     9    1
    9     8    10    1
   10     8    11    1
   11    11    12    1
   12    11    13    1
   13    11    14    1
   14    14    15    1
   15    14    16    1
   16    14    17    1
   17    17    18    1
   18    17    19    1
   19    17    20    1
   20    20    21    1
   21    20    22    1
   22    20    23    1
@<TRIPOS>SUBSTRUCTURE
       1 MOL1            1 RESIDUE      1      MOL     
@<SCITEGIC>MOL_PROPERTY
VConf Rank
SciTegic.value.IntegerValue
502

@<SCITEGIC>MOL_PROPERTY
Conf_Id
SciTegic.value.IntegerValue
83

@<SCITEGIC>MOL_PROPERTY
Delta U+W
SciTegic.value.DoubleValue
1.229

@<SCITEGIC>MOL_PROPERTY
U+W
SciTegic.value.DoubleValue
-7.154

@<SCITEGIC>MOL_PROPERTY
Grad RMS
SciTegic.value.DoubleValue
0.000000

@<SCITEGIC>MOL_PROPERTY
U
SciTegic.value.DoubleValue
48.727

@<SCITEGIC>MOL_PROPERTY
W
SciTegic.value.DoubleValue
-55.880

@<SCITEGIC>MOL_PROPERTY
W(PB)
SciTegic.value.DoubleValue
-57.960

@<SCITEGIC>MOL_PROPERTY
W(SA)
SciTegic.value.DoubleValue
2.080

@<SCITEGIC>MOL_PROPERTY
Valence
SciTegic.value.DoubleValue
2.671

@<SCITEGIC>MOL_PROPERTY
Coulomb
SciTegic.value.DoubleValue
45.371

@<SCITEGIC>MOL_PROPERTY
VdW
SciTegic.value.DoubleValue
0.684

@<SCITEGIC>MOL_PROPERTY
VdW6
SciTegic.value.DoubleValue
-6.511

@<SCITEGIC>MOL_PROPERTY
VdW12
SciTegic.value.DoubleValue
7.195

@<SCITEGIC>MOL_PROPERTY
Bond
SciTegic.value.DoubleValue
0.203

@<SCITEGIC>MOL_PROPERTY
Angle
SciTegic.value.DoubleValue
0.915

@<SCITEGIC>MOL_PROPERTY
Pdih
SciTegic.value.DoubleValue
1.554

@<SCITEGIC>MOL_PROPERTY
Idih
SciTegic.value.DoubleValue
0.000

@<SCITEGIC>MOL_PROPERTY
Tether
SciTegic.value.DoubleValue
0.000

@<TRIPOS>MOLECULE
guest-2_confgen4.mol2 : confsearch ligand conformer 503
          23          22           1
SMALL
USER_CHARGES
 
@<TRIPOS>ATOM
       1    N1      19.718255   19.366256   19.690317 N.4        1 MOL1        -0.5940
       2    H1      18.779438   19.385251   19.279445 H          1 MOL1         0.3649
       3    H2      19.844272   18.443134   20.116424 H          1 MOL1         0.3649
       4    H3      20.385835   19.433647   18.914669 H          1 MOL1         0.3649
       5    C1      19.913538   20.479939   20.700202 C.3        1 MOL1         0.0207
       6    H4      19.799690   21.430919   20.172754 H          1 MOL1         0.0950
       7    H5      20.938547   20.422034   21.075030 H          1 MOL1         0.0950
       8    C2      18.921336   20.428173   21.880089 C.3        1 MOL1        -0.1415
       9    H6      19.098794   21.296858   22.527973 H          1 MOL1         0.0976
      10    H7      17.899623   20.539364   21.493380 H          1 MOL1         0.0976
      11    C3      19.008867   19.133393   22.727161 C.3        1 MOL1        -0.1375
      12    H8      18.758597   18.262771   22.106572 H          1 MOL1         0.0976
      13    H9      18.237734   19.184618   23.506651 H          1 MOL1         0.0976
      14    C4      20.397229   18.927292   23.384734 C.3        1 MOL1        -0.1375
      15    H10     21.172111   18.900263   22.607443 H          1 MOL1         0.0976
      16    H11     20.633847   19.786638   24.027156 H          1 MOL1         0.0976
      17    C5      20.499994   17.621986   24.210603 C.3        1 MOL1        -0.1350
      18    H12     21.540565   17.496019   24.541069 H          1 MOL1         0.0976
      19    H13     20.274766   16.757718   23.570260 H          1 MOL1         0.0976
      20    C6      19.579604   17.603419   25.452328 C.3        1 MOL1        -0.2365
      21    H14     19.762437   18.476113   26.092630 H          1 MOL1         0.0987
      22    H15     19.763143   16.702901   26.052591 H          1 MOL1         0.0987
      23    H16     18.519716   17.599606   25.169725 H          1 MOL1         0.0987
@<TRIPOS>BOND
    1     1     2    1
    2     1     3    1
    3     1     4    1
    4     1     5    1
    5     5     6    1
    6     5     7    1
    7     5     8    1
    8     8     9    1
    9     8    10    1
   10     8    11    1
   11    11    12    1
   12    11    13    1
   13    11    14    1
   14    14    15    1
   15    14    16    1
   16    14    17    1
   17    17    18    1
   18    17    19    1
   19    17    20    1
   20    20    21    1
   21    20    22    1
   22    20    23    1
@<TRIPOS>SUBSTRUCTURE
       1 MOL1            1 RESIDUE      1      MOL     
@<SCITEGIC>MOL_PROPERTY
VConf Rank
SciTegic.value.IntegerValue
503

@<SCITEGIC>MOL_PROPERTY
Conf_Id
SciTegic.value.IntegerValue
50

@<SCITEGIC>MOL_PROPERTY
Delta U+W
SciTegic.value.DoubleValue
1.252

@<SCITEGIC>MOL_PROPERTY
U+W
SciTegic.value.DoubleValue
-7.130

@<SCITEGIC>MOL_PROPERTY
Grad RMS
SciTegic.value.DoubleValue
0.000000

@<SCITEGIC>MOL_PROPERTY
U
SciTegic.value.DoubleValue
48.727

@<SCITEGIC>MOL_PROPERTY
W
SciTegic.value.DoubleValue
-55.857

@<SCITEGIC>MOL_PROPERTY
W(PB)
SciTegic.value.DoubleValue
-57.937

@<SCITEGIC>MOL_PROPERTY
W(SA)
SciTegic.value.DoubleValue
2.080

@<SCITEGIC>MOL_PROPERTY
Valence
SciTegic.value.DoubleValue
2.671

@<SCITEGIC>MOL_PROPERTY
Coulomb
SciTegic.value.DoubleValue
45.371

@<SCITEGIC>MOL_PROPERTY
VdW
SciTegic.value.DoubleValue
0.684

@<SCITEGIC>MOL_PROPERTY
VdW6
SciTegic.value.DoubleValue
-6.511

@<SCITEGIC>MOL_PROPERTY
VdW12
SciTegic.value.DoubleValue
7.196

@<SCITEGIC>MOL_PROPERTY
Bond
SciTegic.value.DoubleValue
0.203

@<SCITEGIC>MOL_PROPERTY
Angle
SciTegic.value.DoubleValue
0.915

@<SCITEGIC>MOL_PROPERTY
Pdih
SciTegic.value.DoubleValue
1.554

@<SCITEGIC>MOL_PROPERTY
Idih
SciTegic.value.DoubleValue
0.000

@<SCITEGIC>MOL_PROPERTY
Tether
SciTegic.value.DoubleValue
0.000

@<TRIPOS>MOLECULE
guest-2_confgen4.mol2 : confsearch ligand conformer 504
          23          22           1
SMALL
USER_CHARGES
 
@<TRIPOS>ATOM
       1    N1      17.915556   20.417467   20.459106 N.4        1 MOL1        -0.5940
       2    H1      17.990407   19.455603   20.114508 H          1 MOL1         0.3649
       3    H2      17.859113   21.026934   19.636128 H          1 MOL1         0.3649
       4    H3      17.019127   20.494775   20.950089 H          1 MOL1         0.3649
       5    C1      19.082397   20.787110   21.354140 C.3        1 MOL1         0.0207
       6    H4      18.956301   21.832768   21.647860 H          1 MOL1         0.0950
       7    H5      20.000273   20.707220   20.765469 H          1 MOL1         0.0950
       8    C2      19.199258   19.912529   22.617552 C.3        1 MOL1        -0.1415
       9    H6      19.996080   20.324438   23.246892 H          1 MOL1         0.0976
      10    H7      18.273382   19.992049   23.202529 H          1 MOL1         0.0976
      11    C3      19.488795   18.425460   22.289724 C.3        1 MOL1        -0.1375
      12    H8      20.359988   18.342821   21.625232 H          1 MOL1         0.0976
      13    H9      18.637127   18.020171   21.727238 H          1 MOL1         0.0976
      14    C4      19.697186   17.546725   23.550875 C.3        1 MOL1        -0.1375
      15    H10     19.124776   17.951341   24.396940 H          1 MOL1         0.0976
      16    H11     19.268405   16.554797   23.351583 H          1 MOL1         0.0976
      17    C5      21.178280   17.339919   23.959284 C.3        1 MOL1        -0.1350
      18    H12     21.719238   16.841259   23.142903 H          1 MOL1         0.0976
      19    H13     21.211136   16.647971   24.812479 H          1 MOL1         0.0976
      20    C6      21.919481   18.638273   24.346491 C.3        1 MOL1        -0.2365
      21    H14     21.372389   19.190999   25.121100 H          1 MOL1         0.0987
      22    H15     22.055179   19.294120   23.477742 H          1 MOL1         0.0987
      23    H16     22.917364   18.406901   24.740934 H          1 MOL1         0.0987
@<TRIPOS>BOND
    1     1     2    1
    2     1     3    1
    3     1     4    1
    4     1     5    1
    5     5     6    1
    6     5     7    1
    7     5     8    1
    8     8     9    1
    9     8    10    1
   10     8    11    1
   11    11    12    1
   12    11    13    1
   13    11    14    1
   14    14    15    1
   15    14    16    1
   16    14    17    1
   17    17    18    1
   18    17    19    1
   19    17    20    1
   20    20    21    1
   21    20    22    1
   22    20    23    1
@<TRIPOS>SUBSTRUCTURE
       1 MOL1            1 RESIDUE      1      MOL     
@<SCITEGIC>MOL_PROPERTY
VConf Rank
SciTegic.value.IntegerValue
504

@<SCITEGIC>MOL_PROPERTY
Conf_Id
SciTegic.value.IntegerValue
55

@<SCITEGIC>MOL_PROPERTY
Delta U+W
SciTegic.value.DoubleValue
3.232

@<SCITEGIC>MOL_PROPERTY
U+W
SciTegic.value.DoubleValue
-5.150

@<SCITEGIC>MOL_PROPERTY
Grad RMS
SciTegic.value.DoubleValue
0.000000

@<SCITEGIC>MOL_PROPERTY
U
SciTegic.value.DoubleValue
50.625

@<SCITEGIC>MOL_PROPERTY
W
SciTegic.value.DoubleValue
-55.776

@<SCITEGIC>MOL_PROPERTY
W(PB)
SciTegic.value.DoubleValue
-57.839

@<SCITEGIC>MOL_PROPERTY
W(SA)
SciTegic.value.DoubleValue
2.064

@<SCITEGIC>MOL_PROPERTY
Valence
SciTegic.value.DoubleValue
4.837

@<SCITEGIC>MOL_PROPERTY
Coulomb
SciTegic.value.DoubleValue
45.097

@<SCITEGIC>MOL_PROPERTY
VdW
SciTegic.value.DoubleValue
0.692

@<SCITEGIC>MOL_PROPERTY
VdW6
SciTegic.value.DoubleValue
-6.655

@<SCITEGIC>MOL_PROPERTY
VdW12
SciTegic.value.DoubleValue
7.347

@<SCITEGIC>MOL_PROPERTY
Bond
SciTegic.value.DoubleValue
0.223

@<SCITEGIC>MOL_PROPERTY
Angle
SciTegic.value.DoubleValue
1.167

@<SCITEGIC>MOL_PROPERTY
Pdih
SciTegic.value.DoubleValue
3.447

@<SCITEGIC>MOL_PROPERTY
Idih
SciTegic.value.DoubleValue
0.000

@<SCITEGIC>MOL_PROPERTY
Tether
SciTegic.value.DoubleValue
0.000

@<TRIPOS>MOLECULE
guest-2_confgen4.mol2 : confsearch ligand conformer 505
          23          22           1
SMALL
USER_CHARGES
 
@<TRIPOS>ATOM
       1    N1      18.290306   17.516752   24.870606 N.4        1 MOL1        -0.5940
       2    H1      18.069335   16.517568   24.810342 H          1 MOL1         0.3649
       3    H2      17.505499   17.966467   25.354168 H          1 MOL1         0.3649
       4    H3      19.108539   17.608059   25.481274 H          1 MOL1         0.3649
       5    C1      18.533248   18.125119   23.504401 C.3        1 MOL1         0.0207
       6    H4      18.725110   19.190592   23.643311 H          1 MOL1         0.0950
       7    H5      17.615022   18.017664   22.920693 H          1 MOL1         0.0950
       8    C2      19.703684   17.464114   22.750121 C.3        1 MOL1        -0.1415
       9    H6      20.624331   17.523279   23.345749 H          1 MOL1         0.0976
      10    H7      19.475702   16.395798   22.637240 H          1 MOL1         0.0976
      11    C3      19.939460   18.068937   21.342974 C.3        1 MOL1        -0.1375
      12    H8      18.977146   18.316192   20.873485 H          1 MOL1         0.0976
      13    H9      20.388372   17.292256   20.708353 H          1 MOL1         0.0976
      14    C4      20.881061   19.300906   21.309611 C.3        1 MOL1        -0.1375
      15    H10     21.872966   19.013655   21.684984 H          1 MOL1         0.0976
      16    H11     21.025697   19.591794   20.259895 H          1 MOL1         0.0976
      17    C5      20.368017   20.525414   22.101992 C.3        1 MOL1        -0.1350
      18    H12     20.366402   20.301460   23.176588 H          1 MOL1         0.0976
      19    H13     19.331613   20.749955   21.813676 H          1 MOL1         0.0976
      20    C6      21.248027   21.770082   21.858959 C.3        1 MOL1        -0.2365
      21    H14     21.246905   22.054322   20.798572 H          1 MOL1         0.0987
      22    H15     22.286685   21.584165   22.162070 H          1 MOL1         0.0987
      23    H16     20.876511   22.626239   22.436887 H          1 MOL1         0.0987
@<TRIPOS>BOND
    1     1     2    1
    2     1     3    1
    3     1     4    1
    4     1     5    1
    5     5     6    1
    6     5     7    1
    7     5     8    1
    8     8     9    1
    9     8    10    1
   10     8    11    1
   11    11    12    1
   12    11    13    1
   13    11    14    1
   14    14    15    1
   15    14    16    1
   16    14    17    1
   17    17    18    1
   18    17    19    1
   19    17    20    1
   20    20    21    1
   21    20    22    1
   22    20    23    1
@<TRIPOS>SUBSTRUCTURE
       1 MOL1            1 RESIDUE      1      MOL     
@<SCITEGIC>MOL_PROPERTY
VConf Rank
SciTegic.value.IntegerValue
505

@<SCITEGIC>MOL_PROPERTY
Conf_Id
SciTegic.value.IntegerValue
93

@<SCITEGIC>MOL_PROPERTY
Delta U+W
SciTegic.value.DoubleValue
2.589

@<SCITEGIC>MOL_PROPERTY
U+W
SciTegic.value.DoubleValue
-5.793

@<SCITEGIC>MOL_PROPERTY
Grad RMS
SciTegic.value.DoubleValue
0.000000

@<SCITEGIC>MOL_PROPERTY
U
SciTegic.value.DoubleValue
50.122

@<SCITEGIC>MOL_PROPERTY
W
SciTegic.value.DoubleValue
-55.915

@<SCITEGIC>MOL_PROPERTY
W(PB)
SciTegic.value.DoubleValue
-58.031

@<SCITEGIC>MOL_PROPERTY
W(SA)
SciTegic.value.DoubleValue
2.115

@<SCITEGIC>MOL_PROPERTY
Valence
SciTegic.value.DoubleValue
4.132

@<SCITEGIC>MOL_PROPERTY
Coulomb
SciTegic.value.DoubleValue
45.536

@<SCITEGIC>MOL_PROPERTY
VdW
SciTegic.value.DoubleValue
0.454

@<SCITEGIC>MOL_PROPERTY
VdW6
SciTegic.value.DoubleValue
-6.262

@<SCITEGIC>MOL_PROPERTY
VdW12
SciTegic.value.DoubleValue
6.715

@<SCITEGIC>MOL_PROPERTY
Bond
SciTegic.value.DoubleValue
0.182

@<SCITEGIC>MOL_PROPERTY
Angle
SciTegic.value.DoubleValue
1.157

@<SCITEGIC>MOL_PROPERTY
Pdih
SciTegic.value.DoubleValue
2.794

@<SCITEGIC>MOL_PROPERTY
Idih
SciTegic.value.DoubleValue
0.000

@<SCITEGIC>MOL_PROPERTY
Tether
SciTegic.value.DoubleValue
0.000

@<TRIPOS>MOLECULE
guest-2_confgen4.mol2 : confsearch ligand conformer 506
          23          22           1
SMALL
USER_CHARGES
 
@<TRIPOS>ATOM
       1    N1      22.418053   19.377170   24.120127 N.4        1 MOL1        -0.5940
       2    H1      21.920879   19.904761   24.844849 H          1 MOL1         0.3649
       3    H2      23.141739   19.998214   23.742527 H          1 MOL1         0.3649
       4    H3      22.903359   18.605367   24.588772 H          1 MOL1         0.3649
       5    C1      21.480762   18.881164   23.037950 C.3        1 MOL1         0.0207
       6    H4      22.079999   18.355939   22.289316 H          1 MOL1         0.0950
       7    H5      21.030130   19.753741   22.561629 H          1 MOL1         0.0950
       8    C2      20.385570   17.938868   23.574997 C.3        1 MOL1        -0.1415
       9    H6      20.878479   17.080537   24.050736 H          1 MOL1         0.0976
      10    H7      19.804273   18.437682   24.361853 H          1 MOL1         0.0976
      11    C3      19.439601   17.411625   22.466565 C.3        1 MOL1        -0.1375
      12    H8      19.051183   16.434439   22.785528 H          1 MOL1         0.0976
      13    H9      20.008620   17.218806   21.546434 H          1 MOL1         0.0976
      14    C4      18.221087   18.320605   22.159231 C.3        1 MOL1        -0.1375
      15    H10     17.593460   17.810386   21.415456 H          1 MOL1         0.0976
      16    H11     17.602440   18.420840   23.061739 H          1 MOL1         0.0976
      17    C5      18.583963   19.726454   21.627808 C.3        1 MOL1        -0.1350
      18    H12     19.295056   19.639203   20.794495 H          1 MOL1         0.0976
      19    H13     19.076427   20.308928   22.417187 H          1 MOL1         0.0976
      20    C6      17.332699   20.496483   21.154443 C.3        1 MOL1        -0.2365
      21    H14     17.606810   21.495378   20.790986 H          1 MOL1         0.0987
      22    H15     16.613126   20.621878   21.974042 H          1 MOL1         0.0987
      23    H16     16.828982   19.967135   20.335130 H          1 MOL1         0.0987
@<TRIPOS>BOND
    1     1     2    1
    2     1     3    1
    3     1     4    1
    4     1     5    1
    5     5     6    1
    6     5     7    1
    7     5     8    1
    8     8     9    1
    9     8    10    1
   10     8    11    1
   11    11    12    1
   12    11    13    1
   13    11    14    1
   14    14    15    1
   15    14    16    1
   16    14    17    1
   17    17    18    1
   18    17    19    1
   19    17    20    1
   20    20    21    1
   21    20    22    1
   22    20    23    1
@<TRIPOS>SUBSTRUCTURE
       1 MOL1            1 RESIDUE      1      MOL     
@<SCITEGIC>MOL_PROPERTY
VConf Rank
SciTegic.value.IntegerValue
506

@<SCITEGIC>MOL_PROPERTY
Conf_Id
SciTegic.value.IntegerValue
70

@<SCITEGIC>MOL_PROPERTY
Delta U+W
SciTegic.value.DoubleValue
2.599

@<SCITEGIC>MOL_PROPERTY
U+W
SciTegic.value.DoubleValue
-5.783

@<SCITEGIC>MOL_PROPERTY
Grad RMS
SciTegic.value.DoubleValue
0.000000

@<SCITEGIC>MOL_PROPERTY
U
SciTegic.value.DoubleValue
50.122

@<SCITEGIC>MOL_PROPERTY
W
SciTegic.value.DoubleValue
-55.906

@<SCITEGIC>MOL_PROPERTY
W(PB)
SciTegic.value.DoubleValue
-58.010

@<SCITEGIC>MOL_PROPERTY
W(SA)
SciTegic.value.DoubleValue
2.105

@<SCITEGIC>MOL_PROPERTY
Valence
SciTegic.value.DoubleValue
4.132

@<SCITEGIC>MOL_PROPERTY
Coulomb
SciTegic.value.DoubleValue
45.536

@<SCITEGIC>MOL_PROPERTY
VdW
SciTegic.value.DoubleValue
0.454

@<SCITEGIC>MOL_PROPERTY
VdW6
SciTegic.value.DoubleValue
-6.262

@<SCITEGIC>MOL_PROPERTY
VdW12
SciTegic.value.DoubleValue
6.715

@<SCITEGIC>MOL_PROPERTY
Bond
SciTegic.value.DoubleValue
0.182

@<SCITEGIC>MOL_PROPERTY
Angle
SciTegic.value.DoubleValue
1.157

@<SCITEGIC>MOL_PROPERTY
Pdih
SciTegic.value.DoubleValue
2.794

@<SCITEGIC>MOL_PROPERTY
Idih
SciTegic.value.DoubleValue
0.000

@<SCITEGIC>MOL_PROPERTY
Tether
SciTegic.value.DoubleValue
0.000

@<TRIPOS>MOLECULE
guest-2_confgen4.mol2 : confsearch ligand conformer 507
          23          22           1
SMALL
USER_CHARGES
 
@<TRIPOS>ATOM
       1    N1      18.921578   21.155466   24.192448 N.4        1 MOL1        -0.5940
       2    H1      18.820106   21.120918   25.211770 H          1 MOL1         0.3649
       3    H2      18.456537   22.012350   23.874250 H          1 MOL1         0.3649
       4    H3      19.920341   21.261985   23.990973 H          1 MOL1         0.3649
       5    C1      18.345353   19.920977   23.527439 C.3        1 MOL1         0.0207
       6    H4      18.454411   20.035562   22.445809 H          1 MOL1         0.0950
       7    H5      17.277403   19.885556   23.759219 H          1 MOL1         0.0950
       8    C2      19.011980   18.606611   23.981127 C.3        1 MOL1        -0.1415
       9    H6      18.866328   18.484971   25.062655 H          1 MOL1         0.0976
      10    H7      18.488147   17.763686   23.512627 H          1 MOL1         0.0976
      11    C3      20.527283   18.524286   23.658504 C.3        1 MOL1        -0.1375
      12    H8      20.904678   17.543598   23.979485 H          1 MOL1         0.0976
      13    H9      21.067385   19.262849   24.265998 H          1 MOL1         0.0976
      14    C4      20.890082   18.742171   22.166625 C.3        1 MOL1        -0.1375
      15    H10     20.604364   19.755087   21.853164 H          1 MOL1         0.0976
      16    H11     21.983001   18.691372   22.065219 H          1 MOL1         0.0976
      17    C5      20.249158   17.703075   21.216684 C.3        1 MOL1        -0.1350
      18    H12     19.154522   17.784736   21.248960 H          1 MOL1         0.0976
      19    H13     20.503205   16.687753   21.551788 H          1 MOL1         0.0976
      20    C6      20.722775   17.895066   19.760247 C.3        1 MOL1        -0.2365
      21    H14     20.256921   17.152024   19.100032 H          1 MOL1         0.0987
      22    H15     21.811665   17.780449   19.680420 H          1 MOL1         0.0987
      23    H16     20.455590   18.892210   19.386723 H          1 MOL1         0.0987
@<TRIPOS>BOND
    1     1     2    1
    2     1     3    1
    3     1     4    1
    4     1     5    1
    5     5     6    1
    6     5     7    1
    7     5     8    1
    8     8     9    1
    9     8    10    1
   10     8    11    1
   11    11    12    1
   12    11    13    1
   13    11    14    1
   14    14    15    1
   15    14    16    1
   16    14    17    1
   17    17    18    1
   18    17    19    1
   19    17    20    1
   20    20    21    1
   21    20    22    1
   22    20    23    1
@<TRIPOS>SUBSTRUCTURE
       1 MOL1            1 RESIDUE      1      MOL     
@<SCITEGIC>MOL_PROPERTY
VConf Rank
SciTegic.value.IntegerValue
507

@<SCITEGIC>MOL_PROPERTY
Conf_Id
SciTegic.value.IntegerValue
72

@<SCITEGIC>MOL_PROPERTY
Delta U+W
SciTegic.value.DoubleValue
1.051

@<SCITEGIC>MOL_PROPERTY
U+W
SciTegic.value.DoubleValue
-7.331

@<SCITEGIC>MOL_PROPERTY
Grad RMS
SciTegic.value.DoubleValue
0.000000

@<SCITEGIC>MOL_PROPERTY
U
SciTegic.value.DoubleValue
48.590

@<SCITEGIC>MOL_PROPERTY
W
SciTegic.value.DoubleValue
-55.922

@<SCITEGIC>MOL_PROPERTY
W(PB)
SciTegic.value.DoubleValue
-58.012

@<SCITEGIC>MOL_PROPERTY
W(SA)
SciTegic.value.DoubleValue
2.090

@<SCITEGIC>MOL_PROPERTY
Valence
SciTegic.value.DoubleValue
2.601

@<SCITEGIC>MOL_PROPERTY
Coulomb
SciTegic.value.DoubleValue
45.520

@<SCITEGIC>MOL_PROPERTY
VdW
SciTegic.value.DoubleValue
0.469

@<SCITEGIC>MOL_PROPERTY
VdW6
SciTegic.value.DoubleValue
-6.867

@<SCITEGIC>MOL_PROPERTY
VdW12
SciTegic.value.DoubleValue
7.336

@<SCITEGIC>MOL_PROPERTY
Bond
SciTegic.value.DoubleValue
0.205

@<SCITEGIC>MOL_PROPERTY
Angle
SciTegic.value.DoubleValue
0.962

@<SCITEGIC>MOL_PROPERTY
Pdih
SciTegic.value.DoubleValue
1.434

@<SCITEGIC>MOL_PROPERTY
Idih
SciTegic.value.DoubleValue
0.000

@<SCITEGIC>MOL_PROPERTY
Tether
SciTegic.value.DoubleValue
0.000

@<TRIPOS>MOLECULE
guest-2_confgen4.mol2 : confsearch ligand conformer 508
          23          22           1
SMALL
USER_CHARGES
 
@<TRIPOS>ATOM
       1    N1      21.562522   17.208156   20.755650 N.4        1 MOL1        -0.5940
       2    H1      21.388166   16.853489   19.809199 H          1 MOL1         0.3649
       3    H2      22.123513   16.500079   21.240108 H          1 MOL1         0.3649
       4    H3      22.149383   18.042835   20.657843 H          1 MOL1         0.3649
       5    C1      20.272097   17.506887   21.491315 C.3        1 MOL1         0.0207
       6    H4      19.685960   16.584939   21.533805 H          1 MOL1         0.0950
       7    H5      19.714391   18.242720   20.906126 H          1 MOL1         0.0950
       8    C2      20.499673   18.042056   22.917366 C.3        1 MOL1        -0.1415
       9    H6      21.092361   17.312234   23.484647 H          1 MOL1         0.0976
      10    H7      21.098997   18.960533   22.876850 H          1 MOL1         0.0976
      11    C3      19.174842   18.306986   23.674796 C.3        1 MOL1        -0.1375
      12    H8      19.405423   18.663715   24.687478 H          1 MOL1         0.0976
      13    H9      18.646983   17.352902   23.810445 H          1 MOL1         0.0976
      14    C4      18.214936   19.308733   22.977773 C.3        1 MOL1        -0.1375
      15    H10     17.854624   18.873632   22.035879 H          1 MOL1         0.0976
      16    H11     17.321829   19.432890   23.605559 H          1 MOL1         0.0976
      17    C5      18.818581   20.706094   22.685854 C.3        1 MOL1        -0.1350
      18    H12     18.056685   21.318669   22.183900 H          1 MOL1         0.0976
      19    H13     19.650707   20.619342   21.974407 H          1 MOL1         0.0976
      20    C6      19.293523   21.446218   23.956744 C.3        1 MOL1        -0.2365
      21    H14     18.480497   21.533928   24.689025 H          1 MOL1         0.0987
      22    H15     19.631937   22.460228   23.707540 H          1 MOL1         0.0987
      23    H16     20.132533   20.926079   24.435362 H          1 MOL1         0.0987
@<TRIPOS>BOND
    1     1     2    1
    2     1     3    1
    3     1     4    1
    4     1     5    1
    5     5     6    1
    6     5     7    1
    7     5     8    1
    8     8     9    1
    9     8    10    1
   10     8    11    1
   11    11    12    1
   12    11    13    1
   13    11    14    1
   14    14    15    1
   15    14    16    1
   16    14    17    1
   17    17    18    1
   18    17    19    1
   19    17    20    1
   20    20    21    1
   21    20    22    1
   22    20    23    1
@<TRIPOS>SUBSTRUCTURE
       1 MOL1            1 RESIDUE      1      MOL     
@<SCITEGIC>MOL_PROPERTY
VConf Rank
SciTegic.value.IntegerValue
508

@<SCITEGIC>MOL_PROPERTY
Conf_Id
SciTegic.value.IntegerValue
26

@<SCITEGIC>MOL_PROPERTY
Delta U+W
SciTegic.value.DoubleValue
1.076

@<SCITEGIC>MOL_PROPERTY
U+W
SciTegic.value.DoubleValue
-7.306

@<SCITEGIC>MOL_PROPERTY
Grad RMS
SciTegic.value.DoubleValue
0.000000

@<SCITEGIC>MOL_PROPERTY
U
SciTegic.value.DoubleValue
48.641

@<SCITEGIC>MOL_PROPERTY
W
SciTegic.value.DoubleValue
-55.947

@<SCITEGIC>MOL_PROPERTY
W(PB)
SciTegic.value.DoubleValue
-58.031

@<SCITEGIC>MOL_PROPERTY
W(SA)
SciTegic.value.DoubleValue
2.084

@<SCITEGIC>MOL_PROPERTY
Valence
SciTegic.value.DoubleValue
2.922

@<SCITEGIC>MOL_PROPERTY
Coulomb
SciTegic.value.DoubleValue
45.269

@<SCITEGIC>MOL_PROPERTY
VdW
SciTegic.value.DoubleValue
0.449

@<SCITEGIC>MOL_PROPERTY
VdW6
SciTegic.value.DoubleValue
-7.045

@<SCITEGIC>MOL_PROPERTY
VdW12
SciTegic.value.DoubleValue
7.494

@<SCITEGIC>MOL_PROPERTY
Bond
SciTegic.value.DoubleValue
0.220

@<SCITEGIC>MOL_PROPERTY
Angle
SciTegic.value.DoubleValue
1.205

@<SCITEGIC>MOL_PROPERTY
Pdih
SciTegic.value.DoubleValue
1.497

@<SCITEGIC>MOL_PROPERTY
Idih
SciTegic.value.DoubleValue
0.000

@<SCITEGIC>MOL_PROPERTY
Tether
SciTegic.value.DoubleValue
0.000

@<TRIPOS>MOLECULE
guest-2_confgen4.mol2 : confsearch ligand conformer 509
          23          22           1
SMALL
USER_CHARGES
 
@<TRIPOS>ATOM
       1    N1      20.930268   21.915767   22.450891 N.4        1 MOL1        -0.5940
       2    H1      21.943601   21.986979   22.313528 H          1 MOL1         0.3649
       3    H2      20.637402   22.762002   22.950965 H          1 MOL1         0.3649
       4    H3      20.496747   21.952826   21.522802 H          1 MOL1         0.3649
       5    C1      20.549311   20.657114   23.203419 C.3        1 MOL1         0.0207
       6    H4      19.464700   20.662386   23.339527 H          1 MOL1         0.0950
       7    H5      21.020237   20.697071   24.189310 H          1 MOL1         0.0950
       8    C2      20.975340   19.367178   22.477897 C.3        1 MOL1        -0.1415
       9    H6      20.513554   19.332283   21.482925 H          1 MOL1         0.0976
      10    H7      22.060744   19.389385   22.313171 H          1 MOL1         0.0976
      11    C3      20.616564   18.087629   23.273570 C.3        1 MOL1        -0.1375
      12    H8      21.183681   18.084527   24.214676 H          1 MOL1         0.0976
      13    H9      20.965126   17.208348   22.715610 H          1 MOL1         0.0976
      14    C4      19.108024   17.927728   23.604472 C.3        1 MOL1        -0.1375
      15    H10     18.967271   16.985484   24.151768 H          1 MOL1         0.0976
      16    H11     18.800899   18.720707   24.299570 H          1 MOL1         0.0976
      17    C5      18.159204   17.940199   22.378989 C.3        1 MOL1        -0.1350
      18    H12     18.203533   18.914511   21.874142 H          1 MOL1         0.0976
      19    H13     17.125252   17.833329   22.735663 H          1 MOL1         0.0976
      20    C6      18.454109   16.812611   21.364053 C.3        1 MOL1        -0.2365
      21    H14     19.438610   16.939206   20.896838 H          1 MOL1         0.0987
      22    H15     17.705013   16.811601   20.561748 H          1 MOL1         0.0987
      23    H16     18.427786   15.828395   21.849406 H          1 MOL1         0.0987
@<TRIPOS>BOND
    1     1     2    1
    2     1     3    1
    3     1     4    1
    4     1     5    1
    5     5     6    1
    6     5     7    1
    7     5     8    1
    8     8     9    1
    9     8    10    1
   10     8    11    1
   11    11    12    1
   12    11    13    1
   13    11    14    1
   14    14    15    1
   15    14    16    1
   16    14    17    1
   17    17    18    1
   18    17    19    1
   19    17    20    1
   20    20    21    1
   21    20    22    1
   22    20    23    1
@<TRIPOS>SUBSTRUCTURE
       1 MOL1            1 RESIDUE      1      MOL     
@<SCITEGIC>MOL_PROPERTY
VConf Rank
SciTegic.value.IntegerValue
509

@<SCITEGIC>MOL_PROPERTY
Conf_Id
SciTegic.value.IntegerValue
90

@<SCITEGIC>MOL_PROPERTY
Delta U+W
SciTegic.value.DoubleValue
1.131

@<SCITEGIC>MOL_PROPERTY
U+W
SciTegic.value.DoubleValue
-7.251

@<SCITEGIC>MOL_PROPERTY
Grad RMS
SciTegic.value.DoubleValue
0.000000

@<SCITEGIC>MOL_PROPERTY
U
SciTegic.value.DoubleValue
48.641

@<SCITEGIC>MOL_PROPERTY
W
SciTegic.value.DoubleValue
-55.892

@<SCITEGIC>MOL_PROPERTY
W(PB)
SciTegic.value.DoubleValue
-57.962

@<SCITEGIC>MOL_PROPERTY
W(SA)
SciTegic.value.DoubleValue
2.070

@<SCITEGIC>MOL_PROPERTY
Valence
SciTegic.value.DoubleValue
2.922

@<SCITEGIC>MOL_PROPERTY
Coulomb
SciTegic.value.DoubleValue
45.269

@<SCITEGIC>MOL_PROPERTY
VdW
SciTegic.value.DoubleValue
0.450

@<SCITEGIC>MOL_PROPERTY
VdW6
SciTegic.value.DoubleValue
-7.045

@<SCITEGIC>MOL_PROPERTY
VdW12
SciTegic.value.DoubleValue
7.495

@<SCITEGIC>MOL_PROPERTY
Bond
SciTegic.value.DoubleValue
0.220

@<SCITEGIC>MOL_PROPERTY
Angle
SciTegic.value.DoubleValue
1.205

@<SCITEGIC>MOL_PROPERTY
Pdih
SciTegic.value.DoubleValue
1.497

@<SCITEGIC>MOL_PROPERTY
Idih
SciTegic.value.DoubleValue
0.000

@<SCITEGIC>MOL_PROPERTY
Tether
SciTegic.value.DoubleValue
0.000

@<TRIPOS>MOLECULE
guest-2_confgen4.mol2 : confsearch ligand conformer 510
          23          22           1
SMALL
USER_CHARGES
 
@<TRIPOS>ATOM
       1    N1      17.783129   17.808116   23.859159 N.4        1 MOL1        -0.5940
       2    H1      17.487460   16.851590   24.081621 H          1 MOL1         0.3649
       3    H2      17.919297   17.853157   22.844737 H          1 MOL1         0.3649
       4    H3      16.997152   18.424967   24.087871 H          1 MOL1         0.3649
       5    C1      19.041357   18.197757   24.609784 C.3        1 MOL1         0.0207
       6    H4      19.827586   17.485747   24.345964 H          1 MOL1         0.0950
       7    H5      18.836453   18.095452   25.678928 H          1 MOL1         0.0950
       8    C2      19.518710   19.634558   24.315459 C.3        1 MOL1        -0.1415
       9    H6      18.740389   20.343302   24.628008 H          1 MOL1         0.0976
      10    H7      20.395998   19.848961   24.940151 H          1 MOL1         0.0976
      11    C3      19.875483   19.887593   22.829098 C.3        1 MOL1        -0.1375
      12    H8      20.187507   20.935117   22.717543 H          1 MOL1         0.0976
      13    H9      18.976240   19.768933   22.211533 H          1 MOL1         0.0976
      14    C4      21.005832   18.962966   22.310591 C.3        1 MOL1        -0.1375
      15    H10     21.865875   19.032483   22.990856 H          1 MOL1         0.0976
      16    H11     20.678157   17.915062   22.331975 H          1 MOL1         0.0976
      17    C5      21.480362   19.316793   20.880549 C.3        1 MOL1        -0.1350
      18    H12     22.347888   18.689730   20.631500 H          1 MOL1         0.0976
      19    H13     21.835053   20.356600   20.852706 H          1 MOL1         0.0976
      20    C6      20.390718   19.109900   19.803976 C.3        1 MOL1        -0.2365
      21    H14     20.000516   18.084198   19.828764 H          1 MOL1         0.0987
      22    H15     20.802440   19.287710   18.802076 H          1 MOL1         0.0987
      23    H16     19.550643   19.801714   19.942095 H          1 MOL1         0.0987
@<TRIPOS>BOND
    1     1     2    1
    2     1     3    1
    3     1     4    1
    4     1     5    1
    5     5     6    1
    6     5     7    1
    7     5     8    1
    8     8     9    1
    9     8    10    1
   10     8    11    1
   11    11    12    1
   12    11    13    1
   13    11    14    1
   14    14    15    1
   15    14    16    1
   16    14    17    1
   17    17    18    1
   18    17    19    1
   19    17    20    1
   20    20    21    1
   21    20    22    1
   22    20    23    1
@<TRIPOS>SUBSTRUCTURE
       1 MOL1            1 RESIDUE      1      MOL     
@<SCITEGIC>MOL_PROPERTY
VConf Rank
SciTegic.value.IntegerValue
510

@<SCITEGIC>MOL_PROPERTY
Conf_Id
SciTegic.value.IntegerValue
85

@<SCITEGIC>MOL_PROPERTY
Delta U+W
SciTegic.value.DoubleValue
1.193

@<SCITEGIC>MOL_PROPERTY
U+W
SciTegic.value.DoubleValue
-7.189

@<SCITEGIC>MOL_PROPERTY
Grad RMS
SciTegic.value.DoubleValue
0.000000

@<SCITEGIC>MOL_PROPERTY
U
SciTegic.value.DoubleValue
48.775

@<SCITEGIC>MOL_PROPERTY
W
SciTegic.value.DoubleValue
-55.965

@<SCITEGIC>MOL_PROPERTY
W(PB)
SciTegic.value.DoubleValue
-58.038

@<SCITEGIC>MOL_PROPERTY
W(SA)
SciTegic.value.DoubleValue
2.073

@<SCITEGIC>MOL_PROPERTY
Valence
SciTegic.value.DoubleValue
2.602

@<SCITEGIC>MOL_PROPERTY
Coulomb
SciTegic.value.DoubleValue
45.581

@<SCITEGIC>MOL_PROPERTY
VdW
SciTegic.value.DoubleValue
0.592

@<SCITEGIC>MOL_PROPERTY
VdW6
SciTegic.value.DoubleValue
-6.616

@<SCITEGIC>MOL_PROPERTY
VdW12
SciTegic.value.DoubleValue
7.208

@<SCITEGIC>MOL_PROPERTY
Bond
SciTegic.value.DoubleValue
0.196

@<SCITEGIC>MOL_PROPERTY
Angle
SciTegic.value.DoubleValue
0.832

@<SCITEGIC>MOL_PROPERTY
Pdih
SciTegic.value.DoubleValue
1.574

@<SCITEGIC>MOL_PROPERTY
Idih
SciTegic.value.DoubleValue
0.000

@<SCITEGIC>MOL_PROPERTY
Tether
SciTegic.value.DoubleValue
0.000

@<TRIPOS>MOLECULE
guest-2_confgen4.mol2 : confsearch ligand conformer 511
          23          22           1
SMALL
USER_CHARGES
 
@<TRIPOS>ATOM
       1    N1      20.805838   17.783331   21.207924 N.4        1 MOL1        -0.5940
       2    H1      20.168959   17.592468   21.988070 H          1 MOL1         0.3649
       3    H2      21.621548   17.171507   21.320139 H          1 MOL1         0.3649
       4    H3      20.330899   17.492872   20.347063 H          1 MOL1         0.3649
       5    C1      21.201478   19.246610   21.163799 C.3        1 MOL1         0.0207
       6    H4      21.874517   19.369808   20.310950 H          1 MOL1         0.0950
       7    H5      21.758943   19.486385   22.073122 H          1 MOL1         0.0950
       8    C2      20.010342   20.214021   21.008790 C.3        1 MOL1        -0.1415
       9    H6      20.396507   21.155189   20.595369 H          1 MOL1         0.0976
      10    H7      19.310365   19.823466   20.258209 H          1 MOL1         0.0976
      11    C3      19.253693   20.548848   22.322367 C.3        1 MOL1        -0.1375
      12    H8      18.474981   21.283487   22.074538 H          1 MOL1         0.0976
      13    H9      19.927538   21.060927   23.023208 H          1 MOL1         0.0976
      14    C4      18.572036   19.344203   23.020532 C.3        1 MOL1        -0.1375
      15    H10     17.626588   19.687054   23.463611 H          1 MOL1         0.0976
      16    H11     18.291955   18.584720   22.278597 H          1 MOL1         0.0976
      17    C5      19.431404   18.729423   24.152182 C.3        1 MOL1        -0.1350
      18    H12     19.551284   19.467743   24.957569 H          1 MOL1         0.0976
      19    H13     20.444104   18.500373   23.799691 H          1 MOL1         0.0976
      20    C6      18.786361   17.451246   24.728387 C.3        1 MOL1        -0.2365
      21    H14     17.790044   17.663381   25.137922 H          1 MOL1         0.0987
      22    H15     19.401353   17.038344   25.538619 H          1 MOL1         0.0987
      23    H16     18.680068   16.676434   23.958235 H          1 MOL1         0.0987
@<TRIPOS>BOND
    1     1     2    1
    2     1     3    1
    3     1     4    1
    4     1     5    1
    5     5     6    1
    6     5     7    1
    7     5     8    1
    8     8     9    1
    9     8    10    1
   10     8    11    1
   11    11    12    1
   12    11    13    1
   13    11    14    1
   14    14    15    1
   15    14    16    1
   16    14    17    1
   17    17    18    1
   18    17    19    1
   19    17    20    1
   20    20    21    1
   21    20    22    1
   22    20    23    1
@<TRIPOS>SUBSTRUCTURE
       1 MOL1            1 RESIDUE      1      MOL     
@<SCITEGIC>MOL_PROPERTY
VConf Rank
SciTegic.value.IntegerValue
511

@<SCITEGIC>MOL_PROPERTY
Conf_Id
SciTegic.value.IntegerValue
82

@<SCITEGIC>MOL_PROPERTY
Delta U+W
SciTegic.value.DoubleValue
5.994

@<SCITEGIC>MOL_PROPERTY
U+W
SciTegic.value.DoubleValue
-2.388

@<SCITEGIC>MOL_PROPERTY
Grad RMS
SciTegic.value.DoubleValue
0.000000

@<SCITEGIC>MOL_PROPERTY
U
SciTegic.value.DoubleValue
52.836

@<SCITEGIC>MOL_PROPERTY
W
SciTegic.value.DoubleValue
-55.224

@<SCITEGIC>MOL_PROPERTY
W(PB)
SciTegic.value.DoubleValue
-57.261

@<SCITEGIC>MOL_PROPERTY
W(SA)
SciTegic.value.DoubleValue
2.037

@<SCITEGIC>MOL_PROPERTY
Valence
SciTegic.value.DoubleValue
5.785

@<SCITEGIC>MOL_PROPERTY
Coulomb
SciTegic.value.DoubleValue
46.744

@<SCITEGIC>MOL_PROPERTY
VdW
SciTegic.value.DoubleValue
0.307

@<SCITEGIC>MOL_PROPERTY
VdW6
SciTegic.value.DoubleValue
-7.672

@<SCITEGIC>MOL_PROPERTY
VdW12
SciTegic.value.DoubleValue
7.979

@<SCITEGIC>MOL_PROPERTY
Bond
SciTegic.value.DoubleValue
0.217

@<SCITEGIC>MOL_PROPERTY
Angle
SciTegic.value.DoubleValue
1.470

@<SCITEGIC>MOL_PROPERTY
Pdih
SciTegic.value.DoubleValue
4.098

@<SCITEGIC>MOL_PROPERTY
Idih
SciTegic.value.DoubleValue
0.000

@<SCITEGIC>MOL_PROPERTY
Tether
SciTegic.value.DoubleValue
0.000

@<TRIPOS>MOLECULE
guest-2_confgen4.mol2 : confsearch ligand conformer 512
          23          22           1
SMALL
USER_CHARGES
 
@<TRIPOS>ATOM
       1    N1      18.146649   19.812034   23.372801 N.4        1 MOL1        -0.5940
       2    H1      17.279151   19.271260   23.295178 H          1 MOL1         0.3649
       3    H2      17.998422   20.510519   24.109313 H          1 MOL1         0.3649
       4    H3      18.877970   19.172114   23.698911 H          1 MOL1         0.3649
       5    C1      18.525564   20.456731   22.053542 C.3        1 MOL1         0.0207
       6    H4      19.416711   21.071088   22.207001 H          1 MOL1         0.0950
       7    H5      17.701542   21.118492   21.773241 H          1 MOL1         0.0950
       8    C2      18.773261   19.449949   20.911721 C.3        1 MOL1        -0.1415
       9    H6      17.997284   18.673101   20.927163 H          1 MOL1         0.0976
      10    H7      18.641645   19.984201   19.961410 H          1 MOL1         0.0976
      11    C3      20.182150   18.798073   20.897446 C.3        1 MOL1        -0.1375
      12    H8      20.950664   19.569204   20.748401 H          1 MOL1         0.0976
      13    H9      20.236854   18.153942   20.008848 H          1 MOL1         0.0976
      14    C4      20.525794   17.934288   22.138030 C.3        1 MOL1        -0.1375
      15    H10     19.610295   17.506312   22.567475 H          1 MOL1         0.0976
      16    H11     21.127362   17.075353   21.809268 H          1 MOL1         0.0976
      17    C5      21.339268   18.701759   23.208708 C.3        1 MOL1        -0.1350
      18    H12     20.853443   19.649255   23.470451 H          1 MOL1         0.0976
      19    H13     22.321237   18.969852   22.793982 H          1 MOL1         0.0976
      20    C6      21.541477   17.858037   24.485059 C.3        1 MOL1        -0.2365
      21    H14     20.580524   17.597941   24.947321 H          1 MOL1         0.0987
      22    H15     22.132468   18.411953   25.226063 H          1 MOL1         0.0987
      23    H16     22.074705   16.925129   24.259852 H          1 MOL1         0.0987
@<TRIPOS>BOND
    1     1     2    1
    2     1     3    1
    3     1     4    1
    4     1     5    1
    5     5     6    1
    6     5     7    1
    7     5     8    1
    8     8     9    1
    9     8    10    1
   10     8    11    1
   11    11    12    1
   12    11    13    1
   13    11    14    1
   14    14    15    1
   15    14    16    1
   16    14    17    1
   17    17    18    1
   18    17    19    1
   19    17    20    1
   20    20    21    1
   21    20    22    1
   22    20    23    1
@<TRIPOS>SUBSTRUCTURE
       1 MOL1            1 RESIDUE      1      MOL     
@<SCITEGIC>MOL_PROPERTY
VConf Rank
SciTegic.value.IntegerValue
512

@<SCITEGIC>MOL_PROPERTY
Conf_Id
SciTegic.value.IntegerValue
5

@<SCITEGIC>MOL_PROPERTY
Delta U+W
SciTegic.value.DoubleValue
6.087

@<SCITEGIC>MOL_PROPERTY
U+W
SciTegic.value.DoubleValue
-2.295

@<SCITEGIC>MOL_PROPERTY
Grad RMS
SciTegic.value.DoubleValue
0.000000

@<SCITEGIC>MOL_PROPERTY
U
SciTegic.value.DoubleValue
52.836

@<SCITEGIC>MOL_PROPERTY
W
SciTegic.value.DoubleValue
-55.131

@<SCITEGIC>MOL_PROPERTY
W(PB)
SciTegic.value.DoubleValue
-57.202

@<SCITEGIC>MOL_PROPERTY
W(SA)
SciTegic.value.DoubleValue
2.071

@<SCITEGIC>MOL_PROPERTY
Valence
SciTegic.value.DoubleValue
5.785

@<SCITEGIC>MOL_PROPERTY
Coulomb
SciTegic.value.DoubleValue
46.744

@<SCITEGIC>MOL_PROPERTY
VdW
SciTegic.value.DoubleValue
0.307

@<SCITEGIC>MOL_PROPERTY
VdW6
SciTegic.value.DoubleValue
-7.672

@<SCITEGIC>MOL_PROPERTY
VdW12
SciTegic.value.DoubleValue
7.980

@<SCITEGIC>MOL_PROPERTY
Bond
SciTegic.value.DoubleValue
0.217

@<SCITEGIC>MOL_PROPERTY
Angle
SciTegic.value.DoubleValue
1.470

@<SCITEGIC>MOL_PROPERTY
Pdih
SciTegic.value.DoubleValue
4.098

@<SCITEGIC>MOL_PROPERTY
Idih
SciTegic.value.DoubleValue
0.000

@<SCITEGIC>MOL_PROPERTY
Tether
SciTegic.value.DoubleValue
0.000

@<TRIPOS>MOLECULE
guest-2_confgen4.mol2 : confsearch ligand conformer 513
          23          22           1
SMALL
USER_CHARGES
 
@<TRIPOS>ATOM
       1    N1      19.376454   20.629472   26.063062 N.4        1 MOL1        -0.5940
       2    H1      20.274585   20.311580   26.441464 H          1 MOL1         0.3649
       3    H2      18.715116   20.654361   26.846712 H          1 MOL1         0.3649
       4    H3      19.505984   21.597633   25.751983 H          1 MOL1         0.3649
       5    C1      18.886934   19.735717   24.941692 C.3        1 MOL1         0.0207
       6    H4      17.916742   20.113672   24.607964 H          1 MOL1         0.0950
       7    H5      18.742842   18.731346   25.349089 H          1 MOL1         0.0950
       8    C2      19.857944   19.676617   23.749122 C.3        1 MOL1        -0.1415
       9    H6      20.012264   20.689444   23.353564 H          1 MOL1         0.0976
      10    H7      20.835484   19.312096   24.092108 H          1 MOL1         0.0976
      11    C3      19.323094   18.756568   22.629467 C.3        1 MOL1        -0.1375
      12    H8      18.342660   19.121515   22.292769 H          1 MOL1         0.0976
      13    H9      19.165055   17.745637   23.030521 H          1 MOL1         0.0976
      14    C4      20.290877   18.689817   21.426162 C.3        1 MOL1        -0.1375
      15    H10     20.448889   19.700545   21.024947 H          1 MOL1         0.0976
      16    H11     21.271250   18.324909   21.762653 H          1 MOL1         0.0976
      17    C5      19.755710   17.769512   20.306611 C.3        1 MOL1        -0.1350
      18    H12     18.775987   18.131864   19.964828 H          1 MOL1         0.0976
      19    H13     19.598289   16.756353   20.702466 H          1 MOL1         0.0976
      20    C6      20.724685   17.705378   19.106827 C.3        1 MOL1        -0.2365
      21    H14     20.327773   17.047615   18.322700 H          1 MOL1         0.0987
      22    H15     21.704208   17.313858   19.410926 H          1 MOL1         0.0987
      23    H16     20.875504   18.700120   18.667542 H          1 MOL1         0.0987
@<TRIPOS>BOND
    1     1     2    1
    2     1     3    1
    3     1     4    1
    4     1     5    1
    5     5     6    1
    6     5     7    1
    7     5     8    1
    8     8     9    1
    9     8    10    1
   10     8    11    1
   11    11    12    1
   12    11    13    1
   13    11    14    1
   14    14    15    1
   15    14    16    1
   16    14    17    1
   17    17    18    1
   18    17    19    1
   19    17    20    1
   20    20    21    1
   21    20    22    1
   22    20    23    1
@<TRIPOS>SUBSTRUCTURE
       1 MOL1            1 RESIDUE      1      MOL     
@<SCITEGIC>MOL_PROPERTY
VConf Rank
SciTegic.value.IntegerValue
513

@<SCITEGIC>MOL_PROPERTY
Conf_Id
SciTegic.value.IntegerValue
40

@<SCITEGIC>MOL_PROPERTY
Delta U+W
SciTegic.value.DoubleValue
0.000

@<SCITEGIC>MOL_PROPERTY
U+W
SciTegic.value.DoubleValue
-8.382

@<SCITEGIC>MOL_PROPERTY
Grad RMS
SciTegic.value.DoubleValue
0.000000

@<SCITEGIC>MOL_PROPERTY
U
SciTegic.value.DoubleValue
46.604

@<SCITEGIC>MOL_PROPERTY
W
SciTegic.value.DoubleValue
-54.986

@<SCITEGIC>MOL_PROPERTY
W(PB)
SciTegic.value.DoubleValue
-57.162

@<SCITEGIC>MOL_PROPERTY
W(SA)
SciTegic.value.DoubleValue
2.176

@<SCITEGIC>MOL_PROPERTY
Valence
SciTegic.value.DoubleValue
1.727

@<SCITEGIC>MOL_PROPERTY
Coulomb
SciTegic.value.DoubleValue
44.434

@<SCITEGIC>MOL_PROPERTY
VdW
SciTegic.value.DoubleValue
0.443

@<SCITEGIC>MOL_PROPERTY
VdW6
SciTegic.value.DoubleValue
-4.623

@<SCITEGIC>MOL_PROPERTY
VdW12
SciTegic.value.DoubleValue
5.066

@<SCITEGIC>MOL_PROPERTY
Bond
SciTegic.value.DoubleValue
0.112

@<SCITEGIC>MOL_PROPERTY
Angle
SciTegic.value.DoubleValue
0.386

@<SCITEGIC>MOL_PROPERTY
Pdih
SciTegic.value.DoubleValue
1.228

@<SCITEGIC>MOL_PROPERTY
Idih
SciTegic.value.DoubleValue
0.000

@<SCITEGIC>MOL_PROPERTY
Tether
SciTegic.value.DoubleValue
0.000

@<TRIPOS>MOLECULE
guest-2_confgen4.mol2 : confsearch ligand conformer 514
          23          22           1
SMALL
USER_CHARGES
 
@<TRIPOS>ATOM
       1    N1      21.468668   21.265750   24.808810 N.4        1 MOL1        -0.5940
       2    H1      21.066706   22.206185   24.739168 H          1 MOL1         0.3649
       3    H2      22.360955   21.281170   24.304409 H          1 MOL1         0.3649
       4    H3      21.688270   21.108265   25.798256 H          1 MOL1         0.3649
       5    C1      20.529939   20.207933   24.265127 C.3        1 MOL1         0.0207
       6    H4      19.615584   20.228017   24.864263 H          1 MOL1         0.0950
       7    H5      21.008496   19.234610   24.399833 H          1 MOL1         0.0950
       8    C2      20.180489   20.417464   22.779492 C.3        1 MOL1        -0.1415
       9    H6      19.744659   21.417405   22.652542 H          1 MOL1         0.0976
      10    H7      21.098424   20.396176   22.177059 H          1 MOL1         0.0976
      11    C3      19.181971   19.364362   22.243246 C.3        1 MOL1        -0.1375
      12    H8      18.898862   19.648843   21.221540 H          1 MOL1         0.0976
      13    H9      18.260977   19.394692   22.841763 H          1 MOL1         0.0976
      14    C4      19.758174   17.925418   22.241455 C.3        1 MOL1        -0.1375
      15    H10     20.667588   17.891206   21.625811 H          1 MOL1         0.0976
      16    H11     20.063935   17.650814   23.259595 H          1 MOL1         0.0976
      17    C5      18.753941   16.860493   21.737495 C.3        1 MOL1        -0.1350
      18    H12     17.846128   16.882991   22.356500 H          1 MOL1         0.0976
      19    H13     19.196931   15.864651   21.878679 H          1 MOL1         0.0976
      20    C6      18.372954   17.027387   20.248742 C.3        1 MOL1        -0.2365
      21    H14     17.812707   17.954589   20.076471 H          1 MOL1         0.0987
      22    H15     17.739025   16.194057   19.919134 H          1 MOL1         0.0987
      23    H16     19.266613   17.041196   19.611408 H          1 MOL1         0.0987
@<TRIPOS>BOND
    1     1     2    1
    2     1     3    1
    3     1     4    1
    4     1     5    1
    5     5     6    1
    6     5     7    1
    7     5     8    1
    8     8     9    1
    9     8    10    1
   10     8    11    1
   11    11    12    1
   12    11    13    1
   13    11    14    1
   14    14    15    1
   15    14    16    1
   16    14    17    1
   17    17    18    1
   18    17    19    1
   19    17    20    1
   20    20    21    1
   21    20    22    1
   22    20    23    1
@<TRIPOS>SUBSTRUCTURE
       1 MOL1            1 RESIDUE      1      MOL     
@<SCITEGIC>MOL_PROPERTY
VConf Rank
SciTegic.value.IntegerValue
514

@<SCITEGIC>MOL_PROPERTY
Conf_Id
SciTegic.value.IntegerValue
65

@<SCITEGIC>MOL_PROPERTY
Delta U+W
SciTegic.value.DoubleValue
1.004

@<SCITEGIC>MOL_PROPERTY
U+W
SciTegic.value.DoubleValue
-7.378

@<SCITEGIC>MOL_PROPERTY
Grad RMS
SciTegic.value.DoubleValue
0.000000

@<SCITEGIC>MOL_PROPERTY
U
SciTegic.value.DoubleValue
48.047

@<SCITEGIC>MOL_PROPERTY
W
SciTegic.value.DoubleValue
-55.425

@<SCITEGIC>MOL_PROPERTY
W(PB)
SciTegic.value.DoubleValue
-57.542

@<SCITEGIC>MOL_PROPERTY
W(SA)
SciTegic.value.DoubleValue
2.116

@<SCITEGIC>MOL_PROPERTY
Valence
SciTegic.value.DoubleValue
2.583

@<SCITEGIC>MOL_PROPERTY
Coulomb
SciTegic.value.DoubleValue
44.791

@<SCITEGIC>MOL_PROPERTY
VdW
SciTegic.value.DoubleValue
0.673

@<SCITEGIC>MOL_PROPERTY
VdW6
SciTegic.value.DoubleValue
-5.788

@<SCITEGIC>MOL_PROPERTY
VdW12
SciTegic.value.DoubleValue
6.462

@<SCITEGIC>MOL_PROPERTY
Bond
SciTegic.value.DoubleValue
0.177

@<SCITEGIC>MOL_PROPERTY
Angle
SciTegic.value.DoubleValue
0.787

@<SCITEGIC>MOL_PROPERTY
Pdih
SciTegic.value.DoubleValue
1.619

@<SCITEGIC>MOL_PROPERTY
Idih
SciTegic.value.DoubleValue
0.000

@<SCITEGIC>MOL_PROPERTY
Tether
SciTegic.value.DoubleValue
0.000

@<TRIPOS>MOLECULE
guest-2_confgen4.mol2 : confsearch ligand conformer 515
          23          22           1
SMALL
USER_CHARGES
 
@<TRIPOS>ATOM
       1    N1      18.933653   21.245905   19.940084 N.4        1 MOL1        -0.5940
       2    H1      19.068022   22.219332   20.232018 H          1 MOL1         0.3649
       3    H2      18.086018   21.222347   19.363033 H          1 MOL1         0.3649
       4    H3      19.718505   21.004081   19.326600 H          1 MOL1         0.3649
       5    C1      18.833463   20.308552   21.126298 C.3        1 MOL1         0.0207
       6    H4      18.660807   19.299983   20.742243 H          1 MOL1         0.0950
       7    H5      17.963487   20.605246   21.718350 H          1 MOL1         0.0950
       8    C2      20.092730   20.321566   22.013547 C.3        1 MOL1        -0.1415
       9    H6      20.966708   20.022479   21.419666 H          1 MOL1         0.0976
      10    H7      20.280231   21.349059   22.352733 H          1 MOL1         0.0976
      11    C3      19.965065   19.401392   23.250720 C.3        1 MOL1        -0.1375
      12    H8      19.095695   19.709223   23.848052 H          1 MOL1         0.0976
      13    H9      20.848177   19.554038   23.884577 H          1 MOL1         0.0976
      14    C4      19.842555   17.900734   22.882495 C.3        1 MOL1        -0.1375
      15    H10     18.973236   17.752708   22.228371 H          1 MOL1         0.0976
      16    H11     20.722202   17.588408   22.302930 H          1 MOL1         0.0976
      17    C5      19.680975   16.975776   24.113293 C.3        1 MOL1        -0.1350
      18    H12     19.484079   15.953366   23.761466 H          1 MOL1         0.0976
      19    H13     18.796147   17.277042   24.691321 H          1 MOL1         0.0976
      20    C6      20.921672   16.952891   25.034996 C.3        1 MOL1        -0.2365
      21    H14     21.087619   17.925910   25.513486 H          1 MOL1         0.0987
      22    H15     21.826297   16.686318   24.473209 H          1 MOL1         0.0987
      23    H16     20.792546   16.211295   25.833937 H          1 MOL1         0.0987
@<TRIPOS>BOND
    1     1     2    1
    2     1     3    1
    3     1     4    1
    4     1     5    1
    5     5     6    1
    6     5     7    1
    7     5     8    1
    8     8     9    1
    9     8    10    1
   10     8    11    1
   11    11    12    1
   12    11    13    1
   13    11    14    1
   14    14    15    1
   15    14    16    1
   16    14    17    1
   17    17    18    1
   18    17    19    1
   19    17    20    1
   20    20    21    1
   21    20    22    1
   22    20    23    1
@<TRIPOS>SUBSTRUCTURE
       1 MOL1            1 RESIDUE      1      MOL     
@<SCITEGIC>MOL_PROPERTY
VConf Rank
SciTegic.value.IntegerValue
515

@<SCITEGIC>MOL_PROPERTY
Conf_Id
SciTegic.value.IntegerValue
92

@<SCITEGIC>MOL_PROPERTY
Delta U+W
SciTegic.value.DoubleValue
0.973

@<SCITEGIC>MOL_PROPERTY
U+W
SciTegic.value.DoubleValue
-7.409

@<SCITEGIC>MOL_PROPERTY
Grad RMS
SciTegic.value.DoubleValue
0.000000

@<SCITEGIC>MOL_PROPERTY
U
SciTegic.value.DoubleValue
48.047

@<SCITEGIC>MOL_PROPERTY
W
SciTegic.value.DoubleValue
-55.456

@<SCITEGIC>MOL_PROPERTY
W(PB)
SciTegic.value.DoubleValue
-57.595

@<SCITEGIC>MOL_PROPERTY
W(SA)
SciTegic.value.DoubleValue
2.138

@<SCITEGIC>MOL_PROPERTY
Valence
SciTegic.value.DoubleValue
2.583

@<SCITEGIC>MOL_PROPERTY
Coulomb
SciTegic.value.DoubleValue
44.791

@<SCITEGIC>MOL_PROPERTY
VdW
SciTegic.value.DoubleValue
0.674

@<SCITEGIC>MOL_PROPERTY
VdW6
SciTegic.value.DoubleValue
-5.789

@<SCITEGIC>MOL_PROPERTY
VdW12
SciTegic.value.DoubleValue
6.462

@<SCITEGIC>MOL_PROPERTY
Bond
SciTegic.value.DoubleValue
0.177

@<SCITEGIC>MOL_PROPERTY
Angle
SciTegic.value.DoubleValue
0.787

@<SCITEGIC>MOL_PROPERTY
Pdih
SciTegic.value.DoubleValue
1.619

@<SCITEGIC>MOL_PROPERTY
Idih
SciTegic.value.DoubleValue
0.000

@<SCITEGIC>MOL_PROPERTY
Tether
SciTegic.value.DoubleValue
0.000

@<TRIPOS>MOLECULE
guest-2_confgen4.mol2 : confsearch ligand conformer 516
          23          22           1
SMALL
USER_CHARGES
 
@<TRIPOS>ATOM
       1    N1      21.549147   21.165651   24.703092 N.4        1 MOL1        -0.5940
       2    H1      21.451849   22.183143   24.617795 H          1 MOL1         0.3649
       3    H2      22.549460   20.970532   24.813342 H          1 MOL1         0.3649
       4    H3      21.090877   20.894976   25.579200 H          1 MOL1         0.3649
       5    C1      20.960049   20.441660   23.509536 C.3        1 MOL1         0.0207
       6    H4      21.472899   20.797635   22.611937 H          1 MOL1         0.0950
       7    H5      19.905382   20.719173   23.436334 H          1 MOL1         0.0950
       8    C2      21.090981   18.909984   23.607943 C.3        1 MOL1        -0.1415
       9    H6      22.150773   18.647482   23.725762 H          1 MOL1         0.0976
      10    H7      20.576556   18.552609   24.509966 H          1 MOL1         0.0976
      11    C3      20.528471   18.180560   22.365142 C.3        1 MOL1        -0.1375
      12    H8      20.738600   17.106375   22.462212 H          1 MOL1         0.0976
      13    H9      21.062669   18.521415   21.467311 H          1 MOL1         0.0976
      14    C4      19.006063   18.386039   22.176688 C.3        1 MOL1        -0.1375
      15    H10     18.477829   18.075108   23.088668 H          1 MOL1         0.0976
      16    H11     18.786288   19.451886   22.029291 H          1 MOL1         0.0976
      17    C5      18.464113   17.586185   20.971161 C.3        1 MOL1        -0.1350
      18    H12     18.671202   16.516019   21.111941 H          1 MOL1         0.0976
      19    H13     18.989752   17.892876   20.055944 H          1 MOL1         0.0976
      20    C6      16.946041   17.792916   20.783318 C.3        1 MOL1        -0.2365
      21    H14     16.389968   17.463405   21.670692 H          1 MOL1         0.0987
      22    H15     16.579905   17.217081   19.923432 H          1 MOL1         0.0987
      23    H16     16.710524   18.850315   20.605392 H          1 MOL1         0.0987
@<TRIPOS>BOND
    1     1     2    1
    2     1     3    1
    3     1     4    1
    4     1     5    1
    5     5     6    1
    6     5     7    1
    7     5     8    1
    8     8     9    1
    9     8    10    1
   10     8    11    1
   11    11    12    1
   12    11    13    1
   13    11    14    1
   14    14    15    1
   15    14    16    1
   16    14    17    1
   17    17    18    1
   18    17    19    1
   19    17    20    1
   20    20    21    1
   21    20    22    1
   22    20    23    1
@<TRIPOS>SUBSTRUCTURE
       1 MOL1            1 RESIDUE      1      MOL     
@<SCITEGIC>MOL_PROPERTY
VConf Rank
SciTegic.value.IntegerValue
516

@<SCITEGIC>MOL_PROPERTY
Conf_Id
SciTegic.value.IntegerValue
42

@<SCITEGIC>MOL_PROPERTY
Delta U+W
SciTegic.value.DoubleValue
0.365

@<SCITEGIC>MOL_PROPERTY
U+W
SciTegic.value.DoubleValue
-8.017

@<SCITEGIC>MOL_PROPERTY
Grad RMS
SciTegic.value.DoubleValue
0.000000

@<SCITEGIC>MOL_PROPERTY
U
SciTegic.value.DoubleValue
47.375

@<SCITEGIC>MOL_PROPERTY
W
SciTegic.value.DoubleValue
-55.392

@<SCITEGIC>MOL_PROPERTY
W(PB)
SciTegic.value.DoubleValue
-57.543

@<SCITEGIC>MOL_PROPERTY
W(SA)
SciTegic.value.DoubleValue
2.152

@<SCITEGIC>MOL_PROPERTY
Valence
SciTegic.value.DoubleValue
2.032

@<SCITEGIC>MOL_PROPERTY
Coulomb
SciTegic.value.DoubleValue
44.843

@<SCITEGIC>MOL_PROPERTY
VdW
SciTegic.value.DoubleValue
0.499

@<SCITEGIC>MOL_PROPERTY
VdW6
SciTegic.value.DoubleValue
-5.218

@<SCITEGIC>MOL_PROPERTY
VdW12
SciTegic.value.DoubleValue
5.717

@<SCITEGIC>MOL_PROPERTY
Bond
SciTegic.value.DoubleValue
0.135

@<SCITEGIC>MOL_PROPERTY
Angle
SciTegic.value.DoubleValue
0.514

@<SCITEGIC>MOL_PROPERTY
Pdih
SciTegic.value.DoubleValue
1.383

@<SCITEGIC>MOL_PROPERTY
Idih
SciTegic.value.DoubleValue
0.000

@<SCITEGIC>MOL_PROPERTY
Tether
SciTegic.value.DoubleValue
0.000

@<TRIPOS>MOLECULE
guest-2_confgen4.mol2 : confsearch ligand conformer 517
          23          22           1
SMALL
USER_CHARGES
 
@<TRIPOS>ATOM
       1    N1      21.046123   21.851037   23.088111 N.4        1 MOL1        -0.5940
       2    H1      20.139708   22.328944   23.062637 H          1 MOL1         0.3649
       3    H2      21.766572   22.569891   22.961023 H          1 MOL1         0.3649
       4    H3      21.163339   21.474204   24.033446 H          1 MOL1         0.3649
       5    C1      21.141449   20.766288   22.032736 C.3        1 MOL1         0.0207
       6    H4      22.135162   20.314892   22.097523 H          1 MOL1         0.0950
       7    H5      21.049594   21.247908   21.055405 H          1 MOL1         0.0950
       8    C2      20.064505   19.671707   22.164328 C.3        1 MOL1        -0.1415
       9    H6      19.067695   20.130622   22.126687 H          1 MOL1         0.0976
      10    H7      20.147374   19.013500   21.290822 H          1 MOL1         0.0976
      11    C3      20.217949   18.833319   23.456755 C.3        1 MOL1        -0.1375
      12    H8      20.239663   19.503205   24.326302 H          1 MOL1         0.0976
      13    H9      21.188695   18.318653   23.443377 H          1 MOL1         0.0976
      14    C4      19.088315   17.795230   23.683368 C.3        1 MOL1        -0.1375
      15    H10     19.283431   17.299941   24.644672 H          1 MOL1         0.0976
      16    H11     18.123971   18.307316   23.805985 H          1 MOL1         0.0976
      17    C5      18.979128   16.700243   22.590884 C.3        1 MOL1        -0.1350
      18    H12     18.693967   15.753721   23.071250 H          1 MOL1         0.0976
      19    H13     19.960375   16.520639   22.129912 H          1 MOL1         0.0976
      20    C6      17.924623   17.019390   21.505331 C.3        1 MOL1        -0.2365
      21    H14     16.926132   17.125790   21.948898 H          1 MOL1         0.0987
      22    H15     17.875744   16.208250   20.767376 H          1 MOL1         0.0987
      23    H16     18.153743   17.945131   20.966232 H          1 MOL1         0.0987
@<TRIPOS>BOND
    1     1     2    1
    2     1     3    1
    3     1     4    1
    4     1     5    1
    5     5     6    1
    6     5     7    1
    7     5     8    1
    8     8     9    1
    9     8    10    1
   10     8    11    1
   11    11    12    1
   12    11    13    1
   13    11    14    1
   14    14    15    1
   15    14    16    1
   16    14    17    1
   17    17    18    1
   18    17    19    1
   19    17    20    1
   20    20    21    1
   21    20    22    1
   22    20    23    1
@<TRIPOS>SUBSTRUCTURE
       1 MOL1            1 RESIDUE      1      MOL     
@<SCITEGIC>MOL_PROPERTY
VConf Rank
SciTegic.value.IntegerValue
517

@<SCITEGIC>MOL_PROPERTY
Conf_Id
SciTegic.value.IntegerValue
3

@<SCITEGIC>MOL_PROPERTY
Delta U+W
SciTegic.value.DoubleValue
3.283

@<SCITEGIC>MOL_PROPERTY
U+W
SciTegic.value.DoubleValue
-5.099

@<SCITEGIC>MOL_PROPERTY
Grad RMS
SciTegic.value.DoubleValue
0.000000

@<SCITEGIC>MOL_PROPERTY
U
SciTegic.value.DoubleValue
50.701

@<SCITEGIC>MOL_PROPERTY
W
SciTegic.value.DoubleValue
-55.800

@<SCITEGIC>MOL_PROPERTY
W(PB)
SciTegic.value.DoubleValue
-57.867

@<SCITEGIC>MOL_PROPERTY
W(SA)
SciTegic.value.DoubleValue
2.067

@<SCITEGIC>MOL_PROPERTY
Valence
SciTegic.value.DoubleValue
4.880

@<SCITEGIC>MOL_PROPERTY
Coulomb
SciTegic.value.DoubleValue
45.095

@<SCITEGIC>MOL_PROPERTY
VdW
SciTegic.value.DoubleValue
0.726

@<SCITEGIC>MOL_PROPERTY
VdW6
SciTegic.value.DoubleValue
-6.620

@<SCITEGIC>MOL_PROPERTY
VdW12
SciTegic.value.DoubleValue
7.346

@<SCITEGIC>MOL_PROPERTY
Bond
SciTegic.value.DoubleValue
0.222

@<SCITEGIC>MOL_PROPERTY
Angle
SciTegic.value.DoubleValue
1.260

@<SCITEGIC>MOL_PROPERTY
Pdih
SciTegic.value.DoubleValue
3.398

@<SCITEGIC>MOL_PROPERTY
Idih
SciTegic.value.DoubleValue
0.000

@<SCITEGIC>MOL_PROPERTY
Tether
SciTegic.value.DoubleValue
0.000

@<TRIPOS>MOLECULE
guest-2_confgen4.mol2 : confsearch ligand conformer 518
          23          22           1
SMALL
USER_CHARGES
 
@<TRIPOS>ATOM
       1    N1      22.302537   17.638067   22.199335 N.4        1 MOL1        -0.5940
       2    H1      22.180693   16.684854   21.842835 H          1 MOL1         0.3649
       3    H2      23.312070   17.804130   22.270767 H          1 MOL1         0.3649
       4    H3      21.942234   18.277594   21.484642 H          1 MOL1         0.3649
       5    C1      21.603519   17.835170   23.530055 C.3        1 MOL1         0.0207
       6    H4      21.797610   18.856534   23.867153 H          1 MOL1         0.0950
       7    H5      22.058859   17.149388   24.249704 H          1 MOL1         0.0950
       8    C2      20.082864   17.582443   23.475169 C.3        1 MOL1        -0.1415
       9    H6      19.904006   16.538509   23.185314 H          1 MOL1         0.0976
      10    H7      19.670580   17.693321   24.486894 H          1 MOL1         0.0976
      11    C3      19.317836   18.519772   22.506772 C.3        1 MOL1        -0.1375
      12    H8      18.259948   18.227076   22.515559 H          1 MOL1         0.0976
      13    H9      19.669673   18.363004   21.478481 H          1 MOL1         0.0976
      14    C4      19.443779   20.018449   22.881648 C.3        1 MOL1        -0.1375
      15    H10     19.065618   20.178192   23.900788 H          1 MOL1         0.0976
      16    H11     20.503195   20.306136   22.896807 H          1 MOL1         0.0976
      17    C5      18.703937   20.962523   21.902973 C.3        1 MOL1        -0.1350
      18    H12     19.085859   20.814889   20.883137 H          1 MOL1         0.0976
      19    H13     18.939602   22.001905   22.171321 H          1 MOL1         0.0976
      20    C6      17.168666   20.783215   21.914640 C.3        1 MOL1        -0.2365
      21    H14     16.765824   20.893169   22.929842 H          1 MOL1         0.0987
      22    H15     16.873903   19.798379   21.531940 H          1 MOL1         0.0987
      23    H16     16.689147   21.539649   21.279972 H          1 MOL1         0.0987
@<TRIPOS>BOND
    1     1     2    1
    2     1     3    1
    3     1     4    1
    4     1     5    1
    5     5     6    1
    6     5     7    1
    7     5     8    1
    8     8     9    1
    9     8    10    1
   10     8    11    1
   11    11    12    1
   12    11    13    1
   13    11    14    1
   14    14    15    1
   15    14    16    1
   16    14    17    1
   17    17    18    1
   18    17    19    1
   19    17    20    1
   20    20    21    1
   21    20    22    1
   22    20    23    1
@<TRIPOS>SUBSTRUCTURE
       1 MOL1            1 RESIDUE      1      MOL     
@<SCITEGIC>MOL_PROPERTY
VConf Rank
SciTegic.value.IntegerValue
518

@<SCITEGIC>MOL_PROPERTY
Conf_Id
SciTegic.value.IntegerValue
83

@<SCITEGIC>MOL_PROPERTY
Delta U+W
SciTegic.value.DoubleValue
1.229

@<SCITEGIC>MOL_PROPERTY
U+W
SciTegic.value.DoubleValue
-7.154

@<SCITEGIC>MOL_PROPERTY
Grad RMS
SciTegic.value.DoubleValue
0.000000

@<SCITEGIC>MOL_PROPERTY
U
SciTegic.value.DoubleValue
48.727

@<SCITEGIC>MOL_PROPERTY
W
SciTegic.value.DoubleValue
-55.880

@<SCITEGIC>MOL_PROPERTY
W(PB)
SciTegic.value.DoubleValue
-57.960

@<SCITEGIC>MOL_PROPERTY
W(SA)
SciTegic.value.DoubleValue
2.080

@<SCITEGIC>MOL_PROPERTY
Valence
SciTegic.value.DoubleValue
2.671

@<SCITEGIC>MOL_PROPERTY
Coulomb
SciTegic.value.DoubleValue
45.371

@<SCITEGIC>MOL_PROPERTY
VdW
SciTegic.value.DoubleValue
0.684

@<SCITEGIC>MOL_PROPERTY
VdW6
SciTegic.value.DoubleValue
-6.511

@<SCITEGIC>MOL_PROPERTY
VdW12
SciTegic.value.DoubleValue
7.195

@<SCITEGIC>MOL_PROPERTY
Bond
SciTegic.value.DoubleValue
0.203

@<SCITEGIC>MOL_PROPERTY
Angle
SciTegic.value.DoubleValue
0.915

@<SCITEGIC>MOL_PROPERTY
Pdih
SciTegic.value.DoubleValue
1.554

@<SCITEGIC>MOL_PROPERTY
Idih
SciTegic.value.DoubleValue
0.000

@<SCITEGIC>MOL_PROPERTY
Tether
SciTegic.value.DoubleValue
0.000

@<TRIPOS>MOLECULE
guest-2_confgen4.mol2 : confsearch ligand conformer 519
          23          22           1
SMALL
USER_CHARGES
 
@<TRIPOS>ATOM
       1    N1      20.672476   17.315187   24.722540 N.4        1 MOL1        -0.5940
       2    H1      20.902547   17.824335   25.581835 H          1 MOL1         0.3649
       3    H2      21.305500   17.652810   23.991176 H          1 MOL1         0.3649
       4    H3      20.902068   16.329440   24.888148 H          1 MOL1         0.3649
       5    C1      19.218947   17.497315   24.332186 C.3        1 MOL1         0.0207
       6    H4      18.604258   17.086542   25.137761 H          1 MOL1         0.0950
       7    H5      19.033264   16.907405   23.431065 H          1 MOL1         0.0950
       8    C2      18.822498   18.967507   24.085934 C.3        1 MOL1        -0.1415
       9    H6      17.747905   19.010151   23.863918 H          1 MOL1         0.0976
      10    H7      18.965330   19.536746   25.014035 H          1 MOL1         0.0976
      11    C3      19.608050   19.653681   22.939756 C.3        1 MOL1        -0.1375
      12    H8      20.677740   19.684854   23.185802 H          1 MOL1         0.0976
      13    H9      19.277878   20.698798   22.879822 H          1 MOL1         0.0976
      14    C4      19.405687   18.966864   21.565070 C.3        1 MOL1        -0.1375
      15    H10     19.712925   17.914883   21.630600 H          1 MOL1         0.0976
      16    H11     18.337574   18.961342   21.307630 H          1 MOL1         0.0976
      17    C5      20.208826   19.631112   20.420436 C.3        1 MOL1        -0.1350
      18    H12     20.102415   19.018065   19.514505 H          1 MOL1         0.0976
      19    H13     21.279622   19.629803   20.667660 H          1 MOL1         0.0976
      20    C6      19.750433   21.072282   20.100673 C.3        1 MOL1        -0.2365
      21    H14     18.675164   21.105495   19.882269 H          1 MOL1         0.0987
      22    H15     20.283060   21.458293   19.221901 H          1 MOL1         0.0987
      23    H16     19.953771   21.755406   20.934483 H          1 MOL1         0.0987
@<TRIPOS>BOND
    1     1     2    1
    2     1     3    1
    3     1     4    1
    4     1     5    1
    5     5     6    1
    6     5     7    1
    7     5     8    1
    8     8     9    1
    9     8    10    1
   10     8    11    1
   11    11    12    1
   12    11    13    1
   13    11    14    1
   14    14    15    1
   15    14    16    1
   16    14    17    1
   17    17    18    1
   18    17    19    1
   19    17    20    1
   20    20    21    1
   21    20    22    1
   22    20    23    1
@<TRIPOS>SUBSTRUCTURE
       1 MOL1            1 RESIDUE      1      MOL     
@<SCITEGIC>MOL_PROPERTY
VConf Rank
SciTegic.value.IntegerValue
519

@<SCITEGIC>MOL_PROPERTY
Conf_Id
SciTegic.value.IntegerValue
50

@<SCITEGIC>MOL_PROPERTY
Delta U+W
SciTegic.value.DoubleValue
1.252

@<SCITEGIC>MOL_PROPERTY
U+W
SciTegic.value.DoubleValue
-7.130

@<SCITEGIC>MOL_PROPERTY
Grad RMS
SciTegic.value.DoubleValue
0.000000

@<SCITEGIC>MOL_PROPERTY
U
SciTegic.value.DoubleValue
48.727

@<SCITEGIC>MOL_PROPERTY
W
SciTegic.value.DoubleValue
-55.857

@<SCITEGIC>MOL_PROPERTY
W(PB)
SciTegic.value.DoubleValue
-57.937

@<SCITEGIC>MOL_PROPERTY
W(SA)
SciTegic.value.DoubleValue
2.080

@<SCITEGIC>MOL_PROPERTY
Valence
SciTegic.value.DoubleValue
2.671

@<SCITEGIC>MOL_PROPERTY
Coulomb
SciTegic.value.DoubleValue
45.371

@<SCITEGIC>MOL_PROPERTY
VdW
SciTegic.value.DoubleValue
0.684

@<SCITEGIC>MOL_PROPERTY
VdW6
SciTegic.value.DoubleValue
-6.511

@<SCITEGIC>MOL_PROPERTY
VdW12
SciTegic.value.DoubleValue
7.196

@<SCITEGIC>MOL_PROPERTY
Bond
SciTegic.value.DoubleValue
0.203

@<SCITEGIC>MOL_PROPERTY
Angle
SciTegic.value.DoubleValue
0.915

@<SCITEGIC>MOL_PROPERTY
Pdih
SciTegic.value.DoubleValue
1.554

@<SCITEGIC>MOL_PROPERTY
Idih
SciTegic.value.DoubleValue
0.000

@<SCITEGIC>MOL_PROPERTY
Tether
SciTegic.value.DoubleValue
0.000

@<TRIPOS>MOLECULE
guest-2_confgen4.mol2 : confsearch ligand conformer 520
          23          22           1
SMALL
USER_CHARGES
 
@<TRIPOS>ATOM
       1    N1      20.427025   18.841565   19.522177 N.4        1 MOL1        -0.5940
       2    H1      19.529841   19.336000   19.533482 H          1 MOL1         0.3649
       3    H2      20.431385   18.247985   18.685773 H          1 MOL1         0.3649
       4    H3      21.159967   19.546211   19.392199 H          1 MOL1         0.3649
       5    C1      20.640104   18.033041   20.787139 C.3        1 MOL1         0.0207
       6    H4      21.591795   17.504258   20.685917 H          1 MOL1         0.0950
       7    H5      19.842214   17.288375   20.852388 H          1 MOL1         0.0950
       8    C2      20.662403   18.882660   22.072600 C.3        1 MOL1        -0.1415
       9    H6      20.929700   18.229216   22.910589 H          1 MOL1         0.0976
      10    H7      21.461683   19.632098   22.000065 H          1 MOL1         0.0976
      11    C3      19.307516   19.583035   22.349058 C.3        1 MOL1        -0.1375
      12    H8      18.487713   18.851683   22.328994 H          1 MOL1         0.0976
      13    H9      19.106479   20.288462   21.531778 H          1 MOL1         0.0976
      14    C4      19.283725   20.371387   23.684738 C.3        1 MOL1        -0.1375
      15    H10     20.291597   20.731087   23.933741 H          1 MOL1         0.0976
      16    H11     18.675522   21.274777   23.538215 H          1 MOL1         0.0976
      17    C5      18.682817   19.595460   24.884761 C.3        1 MOL1        -0.1350
      18    H12     17.639576   19.328402   24.665440 H          1 MOL1         0.0976
      19    H13     18.647888   20.268672   25.752735 H          1 MOL1         0.0976
      20    C6      19.465391   18.323080   25.276754 C.3        1 MOL1        -0.2365
      21    H14     20.526581   18.546856   25.445972 H          1 MOL1         0.0987
      22    H15     19.389268   17.552870   24.499414 H          1 MOL1         0.0987
      23    H16     19.061049   17.894468   26.202868 H          1 MOL1         0.0987
@<TRIPOS>BOND
    1     1     2    1
    2     1     3    1
    3     1     4    1
    4     1     5    1
    5     5     6    1
    6     5     7    1
    7     5     8    1
    8     8     9    1
    9     8    10    1
   10     8    11    1
   11    11    12    1
   12    11    13    1
   13    11    14    1
   14    14    15    1
   15    14    16    1
   16    14    17    1
   17    17    18    1
   18    17    19    1
   19    17    20    1
   20    20    21    1
   21    20    22    1
   22    20    23    1
@<TRIPOS>SUBSTRUCTURE
       1 MOL1            1 RESIDUE      1      MOL     
@<SCITEGIC>MOL_PROPERTY
VConf Rank
SciTegic.value.IntegerValue
520

@<SCITEGIC>MOL_PROPERTY
Conf_Id
SciTegic.value.IntegerValue
55

@<SCITEGIC>MOL_PROPERTY
Delta U+W
SciTegic.value.DoubleValue
3.232

@<SCITEGIC>MOL_PROPERTY
U+W
SciTegic.value.DoubleValue
-5.150

@<SCITEGIC>MOL_PROPERTY
Grad RMS
SciTegic.value.DoubleValue
0.000000

@<SCITEGIC>MOL_PROPERTY
U
SciTegic.value.DoubleValue
50.625

@<SCITEGIC>MOL_PROPERTY
W
SciTegic.value.DoubleValue
-55.776

@<SCITEGIC>MOL_PROPERTY
W(PB)
SciTegic.value.DoubleValue
-57.839

@<SCITEGIC>MOL_PROPERTY
W(SA)
SciTegic.value.DoubleValue
2.064

@<SCITEGIC>MOL_PROPERTY
Valence
SciTegic.value.DoubleValue
4.837

@<SCITEGIC>MOL_PROPERTY
Coulomb
SciTegic.value.DoubleValue
45.097

@<SCITEGIC>MOL_PROPERTY
VdW
SciTegic.value.DoubleValue
0.692

@<SCITEGIC>MOL_PROPERTY
VdW6
SciTegic.value.DoubleValue
-6.655

@<SCITEGIC>MOL_PROPERTY
VdW12
SciTegic.value.DoubleValue
7.347

@<SCITEGIC>MOL_PROPERTY
Bond
SciTegic.value.DoubleValue
0.223

@<SCITEGIC>MOL_PROPERTY
Angle
SciTegic.value.DoubleValue
1.167

@<SCITEGIC>MOL_PROPERTY
Pdih
SciTegic.value.DoubleValue
3.447

@<SCITEGIC>MOL_PROPERTY
Idih
SciTegic.value.DoubleValue
0.000

@<SCITEGIC>MOL_PROPERTY
Tether
SciTegic.value.DoubleValue
0.000

@<TRIPOS>MOLECULE
guest-2_confgen4.mol2 : confsearch ligand conformer 521
          23          22           1
SMALL
USER_CHARGES
 
@<TRIPOS>ATOM
       1    N1      17.667665   17.741122   20.745403 N.4        1 MOL1        -0.5940
       2    H1      16.692670   17.632174   21.042629 H          1 MOL1         0.3649
       3    H2      17.891930   16.930980   20.157717 H          1 MOL1         0.3649
       4    H3      17.707777   18.568099   20.141038 H          1 MOL1         0.3649
       5    C1      18.608918   17.857663   21.926973 C.3        1 MOL1         0.0207
       6    H4      19.625560   17.933441   21.537052 H          1 MOL1         0.0950
       7    H5      18.534862   16.934344   22.507833 H          1 MOL1         0.0950
       8    C2      18.291690   19.063432   22.833213 C.3        1 MOL1        -0.1415
       9    H6      18.316652   19.995097   22.252490 H          1 MOL1         0.0976
      10    H7      17.261782   18.953182   23.198114 H          1 MOL1         0.0976
      11    C3      19.238437   19.171584   24.055276 C.3        1 MOL1        -0.1375
      12    H8      19.473716   18.169096   24.439025 H          1 MOL1         0.0976
      13    H9      18.694951   19.679023   24.864365 H          1 MOL1         0.0976
      14    C4      20.546237   19.965809   23.801624 C.3        1 MOL1        -0.1375
      15    H10     20.298400   20.998341   23.519229 H          1 MOL1         0.0976
      16    H11     21.094275   20.033576   24.751626 H          1 MOL1         0.0976
      17    C5      21.476019   19.350562   22.730420 C.3        1 MOL1        -0.1350
      18    H12     21.003648   19.418236   21.741885 H          1 MOL1         0.0976
      19    H13     21.637334   18.284500   22.942948 H          1 MOL1         0.0976
      20    C6      22.838713   20.073628   22.676366 C.3        1 MOL1        -0.2365
      21    H14     23.365469   19.997007   23.636508 H          1 MOL1         0.0987
      22    H15     22.711362   21.138168   22.440175 H          1 MOL1         0.0987
      23    H16     23.481569   19.631724   21.904040 H          1 MOL1         0.0987
@<TRIPOS>BOND
    1     1     2    1
    2     1     3    1
    3     1     4    1
    4     1     5    1
    5     5     6    1
    6     5     7    1
    7     5     8    1
    8     8     9    1
    9     8    10    1
   10     8    11    1
   11    11    12    1
   12    11    13    1
   13    11    14    1
   14    14    15    1
   15    14    16    1
   16    14    17    1
   17    17    18    1
   18    17    19    1
   19    17    20    1
   20    20    21    1
   21    20    22    1
   22    20    23    1
@<TRIPOS>SUBSTRUCTURE
       1 MOL1            1 RESIDUE      1      MOL     
@<SCITEGIC>MOL_PROPERTY
VConf Rank
SciTegic.value.IntegerValue
521

@<SCITEGIC>MOL_PROPERTY
Conf_Id
SciTegic.value.IntegerValue
93

@<SCITEGIC>MOL_PROPERTY
Delta U+W
SciTegic.value.DoubleValue
2.589

@<SCITEGIC>MOL_PROPERTY
U+W
SciTegic.value.DoubleValue
-5.793

@<SCITEGIC>MOL_PROPERTY
Grad RMS
SciTegic.value.DoubleValue
0.000000

@<SCITEGIC>MOL_PROPERTY
U
SciTegic.value.DoubleValue
50.122

@<SCITEGIC>MOL_PROPERTY
W
SciTegic.value.DoubleValue
-55.915

@<SCITEGIC>MOL_PROPERTY
W(PB)
SciTegic.value.DoubleValue
-58.031

@<SCITEGIC>MOL_PROPERTY
W(SA)
SciTegic.value.DoubleValue
2.115

@<SCITEGIC>MOL_PROPERTY
Valence
SciTegic.value.DoubleValue
4.132

@<SCITEGIC>MOL_PROPERTY
Coulomb
SciTegic.value.DoubleValue
45.536

@<SCITEGIC>MOL_PROPERTY
VdW
SciTegic.value.DoubleValue
0.454

@<SCITEGIC>MOL_PROPERTY
VdW6
SciTegic.value.DoubleValue
-6.262

@<SCITEGIC>MOL_PROPERTY
VdW12
SciTegic.value.DoubleValue
6.715

@<SCITEGIC>MOL_PROPERTY
Bond
SciTegic.value.DoubleValue
0.182

@<SCITEGIC>MOL_PROPERTY
Angle
SciTegic.value.DoubleValue
1.157

@<SCITEGIC>MOL_PROPERTY
Pdih
SciTegic.value.DoubleValue
2.794

@<SCITEGIC>MOL_PROPERTY
Idih
SciTegic.value.DoubleValue
0.000

@<SCITEGIC>MOL_PROPERTY
Tether
SciTegic.value.DoubleValue
0.000

@<TRIPOS>MOLECULE
guest-2_confgen4.mol2 : confsearch ligand conformer 522
          23          22           1
SMALL
USER_CHARGES
 
@<TRIPOS>ATOM
       1    N1      17.351013   20.104969   24.321482 N.4        1 MOL1        -0.5940
       2    H1      18.025660   20.396522   25.036048 H          1 MOL1         0.3649
       3    H2      16.685241   19.473517   24.779756 H          1 MOL1         0.3649
       4    H3      16.825871   20.940522   24.044163 H          1 MOL1         0.3649
       5    C1      18.029661   19.445547   23.138162 C.3        1 MOL1         0.0207
       6    H4      17.252169   19.136587   22.434280 H          1 MOL1         0.0950
       7    H5      18.535503   18.549022   23.501075 H          1 MOL1         0.0950
       8    C2      19.031758   20.373914   22.424212 C.3        1 MOL1        -0.1415
       9    H6      18.486756   21.263625   22.081564 H          1 MOL1         0.0976
      10    H7      19.793248   20.729960   23.130772 H          1 MOL1         0.0976
      11    C3      19.710143   19.709664   21.199455 C.3        1 MOL1        -0.1375
      12    H8      19.984325   20.502265   20.489451 H          1 MOL1         0.0976
      13    H9      18.988662   19.072694   20.669042 H          1 MOL1         0.0976
      14    C4      20.996582   18.904980   21.520443 C.3        1 MOL1        -0.1375
      15    H10     21.420454   18.546259   20.572238 H          1 MOL1         0.0976
      16    H11     21.749515   19.576793   21.955242 H          1 MOL1         0.0976
      17    C5      20.782798   17.697115   22.461645 C.3        1 MOL1        -0.1350
      18    H12     19.951796   17.079056   22.094065 H          1 MOL1         0.0976
      19    H13     20.508923   18.048677   23.464797 H          1 MOL1         0.0976
      20    C6      22.055099   16.830227   22.573165 C.3        1 MOL1        -0.2365
      21    H14     21.889385   15.984360   23.252927 H          1 MOL1         0.0987
      22    H15     22.898304   17.415420   22.962788 H          1 MOL1         0.0987
      23    H16     22.343827   16.423905   21.595028 H          1 MOL1         0.0987
@<TRIPOS>BOND
    1     1     2    1
    2     1     3    1
    3     1     4    1
    4     1     5    1
    5     5     6    1
    6     5     7    1
    7     5     8    1
    8     8     9    1
    9     8    10    1
   10     8    11    1
   11    11    12    1
   12    11    13    1
   13    11    14    1
   14    14    15    1
   15    14    16    1
   16    14    17    1
   17    17    18    1
   18    17    19    1
   19    17    20    1
   20    20    21    1
   21    20    22    1
   22    20    23    1
@<TRIPOS>SUBSTRUCTURE
       1 MOL1            1 RESIDUE      1      MOL     
@<SCITEGIC>MOL_PROPERTY
VConf Rank
SciTegic.value.IntegerValue
522

@<SCITEGIC>MOL_PROPERTY
Conf_Id
SciTegic.value.IntegerValue
70

@<SCITEGIC>MOL_PROPERTY
Delta U+W
SciTegic.value.DoubleValue
2.599

@<SCITEGIC>MOL_PROPERTY
U+W
SciTegic.value.DoubleValue
-5.783

@<SCITEGIC>MOL_PROPERTY
Grad RMS
SciTegic.value.DoubleValue
0.000000

@<SCITEGIC>MOL_PROPERTY
U
SciTegic.value.DoubleValue
50.122

@<SCITEGIC>MOL_PROPERTY
W
SciTegic.value.DoubleValue
-55.906

@<SCITEGIC>MOL_PROPERTY
W(PB)
SciTegic.value.DoubleValue
-58.010

@<SCITEGIC>MOL_PROPERTY
W(SA)
SciTegic.value.DoubleValue
2.105

@<SCITEGIC>MOL_PROPERTY
Valence
SciTegic.value.DoubleValue
4.132

@<SCITEGIC>MOL_PROPERTY
Coulomb
SciTegic.value.DoubleValue
45.536

@<SCITEGIC>MOL_PROPERTY
VdW
SciTegic.value.DoubleValue
0.454

@<SCITEGIC>MOL_PROPERTY
VdW6
SciTegic.value.DoubleValue
-6.262

@<SCITEGIC>MOL_PROPERTY
VdW12
SciTegic.value.DoubleValue
6.715

@<SCITEGIC>MOL_PROPERTY
Bond
SciTegic.value.DoubleValue
0.182

@<SCITEGIC>MOL_PROPERTY
Angle
SciTegic.value.DoubleValue
1.157

@<SCITEGIC>MOL_PROPERTY
Pdih
SciTegic.value.DoubleValue
2.794

@<SCITEGIC>MOL_PROPERTY
Idih
SciTegic.value.DoubleValue
0.000

@<SCITEGIC>MOL_PROPERTY
Tether
SciTegic.value.DoubleValue
0.000

@<TRIPOS>MOLECULE
guest-2_confgen4.mol2 : confsearch ligand conformer 523
          23          22           1
SMALL
USER_CHARGES
 
@<TRIPOS>ATOM
       1    N1      21.297672   20.480512   24.494943 N.4        1 MOL1        -0.5940
       2    H1      21.148259   21.473800   24.698809 H          1 MOL1         0.3649
       3    H2      22.182494   20.213544   24.939444 H          1 MOL1         0.3649
       4    H3      20.553446   19.959012   24.967839 H          1 MOL1         0.3649
       5    C1      21.311063   20.207957   23.003712 C.3        1 MOL1         0.0207
       6    H4      21.507160   19.142916   22.854782 H          1 MOL1         0.0950
       7    H5      22.142342   20.770249   22.569778 H          1 MOL1         0.0950
       8    C2      20.000464   20.600057   22.292114 C.3        1 MOL1        -0.1415
       9    H6      19.831668   21.677614   22.418977 H          1 MOL1         0.0976
      10    H7      20.122362   20.441935   21.212969 H          1 MOL1         0.0976
      11    C3      18.753771   19.826117   22.795877 C.3        1 MOL1        -0.1375
      12    H8      17.880576   20.140435   22.207711 H          1 MOL1         0.0976
      13    H9      18.536668   20.123649   23.830562 H          1 MOL1         0.0976
      14    C4      18.875322   18.281363   22.734569 C.3        1 MOL1        -0.1375
      15    H10     19.685804   17.940527   23.392476 H          1 MOL1         0.0976
      16    H11     17.952372   17.845155   23.141046 H          1 MOL1         0.0976
      17    C5      19.101037   17.735528   21.304880 C.3        1 MOL1        -0.1350
      18    H12     20.055521   18.103231   20.905263 H          1 MOL1         0.0976
      19    H13     18.311381   18.107079   20.636968 H          1 MOL1         0.0976
      20    C6      19.108938   16.192261   21.279470 C.3        1 MOL1        -0.2365
      21    H14     19.272613   15.822237   20.259025 H          1 MOL1         0.0987
      22    H15     18.153065   15.786258   21.635366 H          1 MOL1         0.0987
      23    H16     19.908817   15.791320   21.915587 H          1 MOL1         0.0987
@<TRIPOS>BOND
    1     1     2    1
    2     1     3    1
    3     1     4    1
    4     1     5    1
    5     5     6    1
    6     5     7    1
    7     5     8    1
    8     8     9    1
    9     8    10    1
   10     8    11    1
   11    11    12    1
   12    11    13    1
   13    11    14    1
   14    14    15    1
   15    14    16    1
   16    14    17    1
   17    17    18    1
   18    17    19    1
   19    17    20    1
   20    20    21    1
   21    20    22    1
   22    20    23    1
@<TRIPOS>SUBSTRUCTURE
       1 MOL1            1 RESIDUE      1      MOL     
@<SCITEGIC>MOL_PROPERTY
VConf Rank
SciTegic.value.IntegerValue
523

@<SCITEGIC>MOL_PROPERTY
Conf_Id
SciTegic.value.IntegerValue
72

@<SCITEGIC>MOL_PROPERTY
Delta U+W
SciTegic.value.DoubleValue
1.051

@<SCITEGIC>MOL_PROPERTY
U+W
SciTegic.value.DoubleValue
-7.331

@<SCITEGIC>MOL_PROPERTY
Grad RMS
SciTegic.value.DoubleValue
0.000000

@<SCITEGIC>MOL_PROPERTY
U
SciTegic.value.DoubleValue
48.590

@<SCITEGIC>MOL_PROPERTY
W
SciTegic.value.DoubleValue
-55.922

@<SCITEGIC>MOL_PROPERTY
W(PB)
SciTegic.value.DoubleValue
-58.012

@<SCITEGIC>MOL_PROPERTY
W(SA)
SciTegic.value.DoubleValue
2.090

@<SCITEGIC>MOL_PROPERTY
Valence
SciTegic.value.DoubleValue
2.601

@<SCITEGIC>MOL_PROPERTY
Coulomb
SciTegic.value.DoubleValue
45.520

@<SCITEGIC>MOL_PROPERTY
VdW
SciTegic.value.DoubleValue
0.469

@<SCITEGIC>MOL_PROPERTY
VdW6
SciTegic.value.DoubleValue
-6.867

@<SCITEGIC>MOL_PROPERTY
VdW12
SciTegic.value.DoubleValue
7.336

@<SCITEGIC>MOL_PROPERTY
Bond
SciTegic.value.DoubleValue
0.205

@<SCITEGIC>MOL_PROPERTY
Angle
SciTegic.value.DoubleValue
0.962

@<SCITEGIC>MOL_PROPERTY
Pdih
SciTegic.value.DoubleValue
1.434

@<SCITEGIC>MOL_PROPERTY
Idih
SciTegic.value.DoubleValue
0.000

@<SCITEGIC>MOL_PROPERTY
Tether
SciTegic.value.DoubleValue
0.000

@<TRIPOS>MOLECULE
guest-2_confgen4.mol2 : confsearch ligand conformer 524
          23          22           1
SMALL
USER_CHARGES
 
@<TRIPOS>ATOM
       1    N1      20.364088   18.595837   19.562239 N.4        1 MOL1        -0.5940
       2    H1      19.731472   18.380288   18.784233 H          1 MOL1         0.3649
       3    H2      21.260071   18.144910   19.350904 H          1 MOL1         0.3649
       4    H3      20.524298   19.608103   19.544554 H          1 MOL1         0.3649
       5    C1      19.799515   18.135520   20.890773 C.3        1 MOL1         0.0207
       6    H4      19.627173   17.057603   20.829598 H          1 MOL1         0.0950
       7    H5      18.835753   18.630542   21.035854 H          1 MOL1         0.0950
       8    C2      20.726622   18.445013   22.080944 C.3        1 MOL1        -0.1415
       9    H6      21.703403   17.974399   21.907310 H          1 MOL1         0.0976
      10    H7      20.910792   19.525536   22.135553 H          1 MOL1         0.0976
      11    C3      20.158891   17.935615   23.429001 C.3        1 MOL1        -0.1375
      12    H8      20.873955   18.166413   24.229854 H          1 MOL1         0.0976
      13    H9      20.096037   16.839143   23.395679 H          1 MOL1         0.0976
      14    C4      18.761531   18.500145   23.802432 C.3        1 MOL1        -0.1375
      15    H10     18.015093   18.129135   23.087251 H          1 MOL1         0.0976
      16    H11     18.466064   18.087874   24.777061 H          1 MOL1         0.0976
      17    C5      18.670251   20.046078   23.865515 C.3        1 MOL1        -0.1350
      18    H12     17.639404   20.325645   24.124143 H          1 MOL1         0.0976
      19    H13     18.858868   20.478534   22.873788 H          1 MOL1         0.0976
      20    C6      19.630500   20.675013   24.900348 C.3        1 MOL1        -0.2365
      21    H14     19.468782   20.248265   25.898683 H          1 MOL1         0.0987
      22    H15     19.467425   21.758391   24.967729 H          1 MOL1         0.0987
      23    H16     20.680175   20.515341   24.624224 H          1 MOL1         0.0987
@<TRIPOS>BOND
    1     1     2    1
    2     1     3    1
    3     1     4    1
    4     1     5    1
    5     5     6    1
    6     5     7    1
    7     5     8    1
    8     8     9    1
    9     8    10    1
   10     8    11    1
   11    11    12    1
   12    11    13    1
   13    11    14    1
   14    14    15    1
   15    14    16    1
   16    14    17    1
   17    17    18    1
   18    17    19    1
   19    17    20    1
   20    20    21    1
   21    20    22    1
   22    20    23    1
@<TRIPOS>SUBSTRUCTURE
       1 MOL1            1 RESIDUE      1      MOL     
@<SCITEGIC>MOL_PROPERTY
VConf Rank
SciTegic.value.IntegerValue
524

@<SCITEGIC>MOL_PROPERTY
Conf_Id
SciTegic.value.IntegerValue
26

@<SCITEGIC>MOL_PROPERTY
Delta U+W
SciTegic.value.DoubleValue
1.076

@<SCITEGIC>MOL_PROPERTY
U+W
SciTegic.value.DoubleValue
-7.306

@<SCITEGIC>MOL_PROPERTY
Grad RMS
SciTegic.value.DoubleValue
0.000000

@<SCITEGIC>MOL_PROPERTY
U
SciTegic.value.DoubleValue
48.641

@<SCITEGIC>MOL_PROPERTY
W
SciTegic.value.DoubleValue
-55.947

@<SCITEGIC>MOL_PROPERTY
W(PB)
SciTegic.value.DoubleValue
-58.031

@<SCITEGIC>MOL_PROPERTY
W(SA)
SciTegic.value.DoubleValue
2.084

@<SCITEGIC>MOL_PROPERTY
Valence
SciTegic.value.DoubleValue
2.922

@<SCITEGIC>MOL_PROPERTY
Coulomb
SciTegic.value.DoubleValue
45.269

@<SCITEGIC>MOL_PROPERTY
VdW
SciTegic.value.DoubleValue
0.449

@<SCITEGIC>MOL_PROPERTY
VdW6
SciTegic.value.DoubleValue
-7.045

@<SCITEGIC>MOL_PROPERTY
VdW12
SciTegic.value.DoubleValue
7.494

@<SCITEGIC>MOL_PROPERTY
Bond
SciTegic.value.DoubleValue
0.220

@<SCITEGIC>MOL_PROPERTY
Angle
SciTegic.value.DoubleValue
1.205

@<SCITEGIC>MOL_PROPERTY
Pdih
SciTegic.value.DoubleValue
1.497

@<SCITEGIC>MOL_PROPERTY
Idih
SciTegic.value.DoubleValue
0.000

@<SCITEGIC>MOL_PROPERTY
Tether
SciTegic.value.DoubleValue
0.000

@<TRIPOS>MOLECULE
guest-2_confgen4.mol2 : confsearch ligand conformer 525
          23          22           1
SMALL
USER_CHARGES
 
@<TRIPOS>ATOM
       1    N1      22.520537   17.739607   21.651063 N.4        1 MOL1        -0.5940
       2    H1      22.464400   16.759832   21.354967 H          1 MOL1         0.3649
       3    H2      23.476158   17.893897   21.990093 H          1 MOL1         0.3649
       4    H3      22.405571   18.315618   20.811029 H          1 MOL1         0.3649
       5    C1      21.487737   18.069972   22.709277 C.3        1 MOL1         0.0207
       6    H4      21.624896   19.115391   22.997751 H          1 MOL1         0.0950
       7    H5      21.686094   17.442921   23.582668 H          1 MOL1         0.0950
       8    C2      20.040637   17.848867   22.230911 C.3        1 MOL1        -0.1415
       9    H6      19.844450   18.468085   21.346315 H          1 MOL1         0.0976
      10    H7      19.924218   16.805631   21.908676 H          1 MOL1         0.0976
      11    C3      18.994322   18.151647   23.332097 C.3        1 MOL1        -0.1375
      12    H8      19.132263   17.439860   24.157715 H          1 MOL1         0.0976
      13    H9      17.989190   17.954011   22.936368 H          1 MOL1         0.0976
      14    C4      19.051653   19.592944   23.906670 C.3        1 MOL1        -0.1375
      15    H10     18.261333   19.700659   24.662288 H          1 MOL1         0.0976
      16    H11     19.997248   19.732752   24.447600 H          1 MOL1         0.0976
      17    C5      18.900365   20.726395   22.860427 C.3        1 MOL1        -0.1350
      18    H12     19.739938   20.704707   22.152779 H          1 MOL1         0.0976
      19    H13     18.969256   21.692896   23.378907 H          1 MOL1         0.0976
      20    C6      17.563829   20.671559   22.086358 C.3        1 MOL1        -0.2365
      21    H14     17.495943   19.770564   21.464138 H          1 MOL1         0.0987
      22    H15     17.468093   21.540136   21.422091 H          1 MOL1         0.0987
      23    H16     16.708847   20.679313   22.774751 H          1 MOL1         0.0987
@<TRIPOS>BOND
    1     1     2    1
    2     1     3    1
    3     1     4    1
    4     1     5    1
    5     5     6    1
    6     5     7    1
    7     5     8    1
    8     8     9    1
    9     8    10    1
   10     8    11    1
   11    11    12    1
   12    11    13    1
   13    11    14    1
   14    14    15    1
   15    14    16    1
   16    14    17    1
   17    17    18    1
   18    17    19    1
   19    17    20    1
   20    20    21    1
   21    20    22    1
   22    20    23    1
@<TRIPOS>SUBSTRUCTURE
       1 MOL1            1 RESIDUE      1      MOL     
@<SCITEGIC>MOL_PROPERTY
VConf Rank
SciTegic.value.IntegerValue
525

@<SCITEGIC>MOL_PROPERTY
Conf_Id
SciTegic.value.IntegerValue
90

@<SCITEGIC>MOL_PROPERTY
Delta U+W
SciTegic.value.DoubleValue
1.131

@<SCITEGIC>MOL_PROPERTY
U+W
SciTegic.value.DoubleValue
-7.251

@<SCITEGIC>MOL_PROPERTY
Grad RMS
SciTegic.value.DoubleValue
0.000000

@<SCITEGIC>MOL_PROPERTY
U
SciTegic.value.DoubleValue
48.641

@<SCITEGIC>MOL_PROPERTY
W
SciTegic.value.DoubleValue
-55.892

@<SCITEGIC>MOL_PROPERTY
W(PB)
SciTegic.value.DoubleValue
-57.962

@<SCITEGIC>MOL_PROPERTY
W(SA)
SciTegic.value.DoubleValue
2.070

@<SCITEGIC>MOL_PROPERTY
Valence
SciTegic.value.DoubleValue
2.922

@<SCITEGIC>MOL_PROPERTY
Coulomb
SciTegic.value.DoubleValue
45.269

@<SCITEGIC>MOL_PROPERTY
VdW
SciTegic.value.DoubleValue
0.450

@<SCITEGIC>MOL_PROPERTY
VdW6
SciTegic.value.DoubleValue
-7.045

@<SCITEGIC>MOL_PROPERTY
VdW12
SciTegic.value.DoubleValue
7.495

@<SCITEGIC>MOL_PROPERTY
Bond
SciTegic.value.DoubleValue
0.220

@<SCITEGIC>MOL_PROPERTY
Angle
SciTegic.value.DoubleValue
1.205

@<SCITEGIC>MOL_PROPERTY
Pdih
SciTegic.value.DoubleValue
1.497

@<SCITEGIC>MOL_PROPERTY
Idih
SciTegic.value.DoubleValue
0.000

@<SCITEGIC>MOL_PROPERTY
Tether
SciTegic.value.DoubleValue
0.000

@<TRIPOS>MOLECULE
guest-2_confgen4.mol2 : confsearch ligand conformer 526
          23          22           1
SMALL
USER_CHARGES
 
@<TRIPOS>ATOM
       1    N1      19.146553   16.990793   24.246422 N.4        1 MOL1        -0.5940
       2    H1      18.348513   16.358701   24.370696 H          1 MOL1         0.3649
       3    H2      18.777399   17.946478   24.250183 H          1 MOL1         0.3649
       4    H3      19.739393   16.890840   25.076557 H          1 MOL1         0.3649
       5    C1      19.909111   16.691247   22.970815 C.3        1 MOL1         0.0207
       6    H4      19.215457   16.785114   22.131321 H          1 MOL1         0.0950
       7    H5      20.243678   15.651421   23.019227 H          1 MOL1         0.0950
       8    C2      21.126954   17.610695   22.746397 C.3        1 MOL1        -0.1415
       9    H6      21.838467   17.473032   23.571375 H          1 MOL1         0.0976
      10    H7      21.648728   17.287841   21.835705 H          1 MOL1         0.0976
      11    C3      20.767894   19.112953   22.624421 C.3        1 MOL1        -0.1375
      12    H8      21.695696   19.684132   22.482832 H          1 MOL1         0.0976
      13    H9      20.334170   19.463500   23.569462 H          1 MOL1         0.0976
      14    C4      19.802692   19.412598   21.449656 C.3        1 MOL1        -0.1375
      15    H10     20.214803   18.979154   20.527941 H          1 MOL1         0.0976
      16    H11     18.835939   18.919732   21.618184 H          1 MOL1         0.0976
      17    C5      19.567544   20.924895   21.219316 C.3        1 MOL1        -0.1350
      18    H12     18.963368   21.053505   20.310324 H          1 MOL1         0.0976
      19    H13     20.526384   21.425133   21.023952 H          1 MOL1         0.0976
      20    C6      18.848669   21.620310   22.397769 C.3        1 MOL1        -0.2365
      21    H14     17.898583   21.122153   22.630395 H          1 MOL1         0.0987
      22    H15     18.626556   22.666016   22.148571 H          1 MOL1         0.0987
      23    H16     19.467695   21.622159   23.303425 H          1 MOL1         0.0987
@<TRIPOS>BOND
    1     1     2    1
    2     1     3    1
    3     1     4    1
    4     1     5    1
    5     5     6    1
    6     5     7    1
    7     5     8    1
    8     8     9    1
    9     8    10    1
   10     8    11    1
   11    11    12    1
   12    11    13    1
   13    11    14    1
   14    14    15    1
   15    14    16    1
   16    14    17    1
   17    17    18    1
   18    17    19    1
   19    17    20    1
   20    20    21    1
   21    20    22    1
   22    20    23    1
@<TRIPOS>SUBSTRUCTURE
       1 MOL1            1 RESIDUE      1      MOL     
@<SCITEGIC>MOL_PROPERTY
VConf Rank
SciTegic.value.IntegerValue
526

@<SCITEGIC>MOL_PROPERTY
Conf_Id
SciTegic.value.IntegerValue
85

@<SCITEGIC>MOL_PROPERTY
Delta U+W
SciTegic.value.DoubleValue
1.193

@<SCITEGIC>MOL_PROPERTY
U+W
SciTegic.value.DoubleValue
-7.189

@<SCITEGIC>MOL_PROPERTY
Grad RMS
SciTegic.value.DoubleValue
0.000000

@<SCITEGIC>MOL_PROPERTY
U
SciTegic.value.DoubleValue
48.775

@<SCITEGIC>MOL_PROPERTY
W
SciTegic.value.DoubleValue
-55.965

@<SCITEGIC>MOL_PROPERTY
W(PB)
SciTegic.value.DoubleValue
-58.038

@<SCITEGIC>MOL_PROPERTY
W(SA)
SciTegic.value.DoubleValue
2.073

@<SCITEGIC>MOL_PROPERTY
Valence
SciTegic.value.DoubleValue
2.602

@<SCITEGIC>MOL_PROPERTY
Coulomb
SciTegic.value.DoubleValue
45.581

@<SCITEGIC>MOL_PROPERTY
VdW
SciTegic.value.DoubleValue
0.592

@<SCITEGIC>MOL_PROPERTY
VdW6
SciTegic.value.DoubleValue
-6.616

@<SCITEGIC>MOL_PROPERTY
VdW12
SciTegic.value.DoubleValue
7.208

@<SCITEGIC>MOL_PROPERTY
Bond
SciTegic.value.DoubleValue
0.196

@<SCITEGIC>MOL_PROPERTY
Angle
SciTegic.value.DoubleValue
0.832

@<SCITEGIC>MOL_PROPERTY
Pdih
SciTegic.value.DoubleValue
1.574

@<SCITEGIC>MOL_PROPERTY
Idih
SciTegic.value.DoubleValue
0.000

@<SCITEGIC>MOL_PROPERTY
Tether
SciTegic.value.DoubleValue
0.000

@<TRIPOS>MOLECULE
guest-2_confgen4.mol2 : confsearch ligand conformer 527
          23          22           1
SMALL
USER_CHARGES
 
@<TRIPOS>ATOM
       1    N1      18.504126   18.605590   24.193310 N.4        1 MOL1        -0.5940
       2    H1      19.076045   19.382574   23.847079 H          1 MOL1         0.3649
       3    H2      18.704311   18.498354   25.193675 H          1 MOL1         0.3649
       4    H3      17.522180   18.889334   24.114034 H          1 MOL1         0.3649
       5    C1      18.782973   17.329209   23.423403 C.3        1 MOL1         0.0207
       6    H4      18.138978   16.553705   23.846931 H          1 MOL1         0.0950
       7    H5      19.822565   17.037184   23.593984 H          1 MOL1         0.0950
       8    C2      18.510774   17.437894   21.909199 C.3        1 MOL1        -0.1415
       9    H6      18.350855   16.421641   21.525151 H          1 MOL1         0.0976
      10    H7      17.566990   17.972949   21.739317 H          1 MOL1         0.0976
      11    C3      19.649748   18.085242   21.076259 C.3        1 MOL1        -0.1375
      12    H8      19.347187   18.046524   20.020578 H          1 MOL1         0.0976
      13    H9      20.558818   17.471607   21.143454 H          1 MOL1         0.0976
      14    C4      19.973407   19.559765   21.428803 C.3        1 MOL1        -0.1375
      15    H10     20.234181   20.090728   20.502621 H          1 MOL1         0.0976
      16    H11     19.077032   20.062844   21.815000 H          1 MOL1         0.0976
      17    C5      21.162051   19.705018   22.410192 C.3        1 MOL1        -0.1350
      18    H12     22.079006   19.342627   21.924390 H          1 MOL1         0.0976
      19    H13     21.021670   19.075835   23.297153 H          1 MOL1         0.0976
      20    C6      21.365522   21.171167   22.847037 C.3        1 MOL1        -0.2365
      21    H14     21.561805   21.816400   21.980713 H          1 MOL1         0.0987
      22    H15     22.220774   21.256817   23.529962 H          1 MOL1         0.0987
      23    H16     20.479809   21.558831   23.366647 H          1 MOL1         0.0987
@<TRIPOS>BOND
    1     1     2    1
    2     1     3    1
    3     1     4    1
    4     1     5    1
    5     5     6    1
    6     5     7    1
    7     5     8    1
    8     8     9    1
    9     8    10    1
   10     8    11    1
   11    11    12    1
   12    11    13    1
   13    11    14    1
   14    14    15    1
   15    14    16    1
   16    14    17    1
   17    17    18    1
   18    17    19    1
   19    17    20    1
   20    20    21    1
   21    20    22    1
   22    20    23    1
@<TRIPOS>SUBSTRUCTURE
       1 MOL1            1 RESIDUE      1      MOL     
@<SCITEGIC>MOL_PROPERTY
VConf Rank
SciTegic.value.IntegerValue
527

@<SCITEGIC>MOL_PROPERTY
Conf_Id
SciTegic.value.IntegerValue
82

@<SCITEGIC>MOL_PROPERTY
Delta U+W
SciTegic.value.DoubleValue
5.994

@<SCITEGIC>MOL_PROPERTY
U+W
SciTegic.value.DoubleValue
-2.388

@<SCITEGIC>MOL_PROPERTY
Grad RMS
SciTegic.value.DoubleValue
0.000000

@<SCITEGIC>MOL_PROPERTY
U
SciTegic.value.DoubleValue
52.836

@<SCITEGIC>MOL_PROPERTY
W
SciTegic.value.DoubleValue
-55.224

@<SCITEGIC>MOL_PROPERTY
W(PB)
SciTegic.value.DoubleValue
-57.261

@<SCITEGIC>MOL_PROPERTY
W(SA)
SciTegic.value.DoubleValue
2.037

@<SCITEGIC>MOL_PROPERTY
Valence
SciTegic.value.DoubleValue
5.785

@<SCITEGIC>MOL_PROPERTY
Coulomb
SciTegic.value.DoubleValue
46.744

@<SCITEGIC>MOL_PROPERTY
VdW
SciTegic.value.DoubleValue
0.307

@<SCITEGIC>MOL_PROPERTY
VdW6
SciTegic.value.DoubleValue
-7.672

@<SCITEGIC>MOL_PROPERTY
VdW12
SciTegic.value.DoubleValue
7.979

@<SCITEGIC>MOL_PROPERTY
Bond
SciTegic.value.DoubleValue
0.217

@<SCITEGIC>MOL_PROPERTY
Angle
SciTegic.value.DoubleValue
1.470

@<SCITEGIC>MOL_PROPERTY
Pdih
SciTegic.value.DoubleValue
4.098

@<SCITEGIC>MOL_PROPERTY
Idih
SciTegic.value.DoubleValue
0.000

@<SCITEGIC>MOL_PROPERTY
Tether
SciTegic.value.DoubleValue
0.000

@<TRIPOS>MOLECULE
guest-2_confgen4.mol2 : confsearch ligand conformer 528
          23          22           1
SMALL
USER_CHARGES
 
@<TRIPOS>ATOM
       1    N1      21.438430   17.763835   23.117245 N.4        1 MOL1        -0.5940
       2    H1      22.031222   17.386950   22.370539 H          1 MOL1         0.3649
       3    H2      21.966224   17.673232   23.992188 H          1 MOL1         0.3649
       4    H3      21.315785   18.764982   22.934657 H          1 MOL1         0.3649
       5    C1      20.103320   17.048249   23.188476 C.3        1 MOL1         0.0207
       6    H4      19.539461   17.442391   24.038090 H          1 MOL1         0.0950
       7    H5      20.316321   15.993540   23.382713 H          1 MOL1         0.0950
       8    C2      19.260813   17.162890   21.901713 C.3        1 MOL1        -0.1415
       9    H6      19.903221   17.016124   21.023280 H          1 MOL1         0.0976
      10    H7      18.548746   16.326988   21.893541 H          1 MOL1         0.0976
      11    C3      18.448941   18.478149   21.756555 C.3        1 MOL1        -0.1375
      12    H8      17.712785   18.556014   22.568640 H          1 MOL1         0.0976
      13    H9      17.859192   18.399640   20.832684 H          1 MOL1         0.0976
      14    C4      19.295288   19.774525   21.676762 C.3        1 MOL1        -0.1375
      15    H10     20.277982   19.559323   21.236620 H          1 MOL1         0.0976
      16    H11     18.805187   20.468766   20.979934 H          1 MOL1         0.0976
      17    C5      19.439296   20.493309   23.040476 C.3        1 MOL1        -0.1350
      18    H12     19.789927   19.802532   23.816472 H          1 MOL1         0.0976
      19    H13     18.451320   20.843466   23.371273 H          1 MOL1         0.0976
      20    C6      20.400296   21.697672   22.952080 C.3        1 MOL1        -0.2365
      21    H14     21.408773   21.381959   22.655322 H          1 MOL1         0.0987
      22    H15     20.478081   22.203368   23.923368 H          1 MOL1         0.0987
      23    H16     20.043827   22.432684   22.218556 H          1 MOL1         0.0987
@<TRIPOS>BOND
    1     1     2    1
    2     1     3    1
    3     1     4    1
    4     1     5    1
    5     5     6    1
    6     5     7    1
    7     5     8    1
    8     8     9    1
    9     8    10    1
   10     8    11    1
   11    11    12    1
   12    11    13    1
   13    11    14    1
   14    14    15    1
   15    14    16    1
   16    14    17    1
   17    17    18    1
   18    17    19    1
   19    17    20    1
   20    20    21    1
   21    20    22    1
   22    20    23    1
@<TRIPOS>SUBSTRUCTURE
       1 MOL1            1 RESIDUE      1      MOL     
@<SCITEGIC>MOL_PROPERTY
VConf Rank
SciTegic.value.IntegerValue
528

@<SCITEGIC>MOL_PROPERTY
Conf_Id
SciTegic.value.IntegerValue
5

@<SCITEGIC>MOL_PROPERTY
Delta U+W
SciTegic.value.DoubleValue
6.087

@<SCITEGIC>MOL_PROPERTY
U+W
SciTegic.value.DoubleValue
-2.295

@<SCITEGIC>MOL_PROPERTY
Grad RMS
SciTegic.value.DoubleValue
0.000000

@<SCITEGIC>MOL_PROPERTY
U
SciTegic.value.DoubleValue
52.836

@<SCITEGIC>MOL_PROPERTY
W
SciTegic.value.DoubleValue
-55.131

@<SCITEGIC>MOL_PROPERTY
W(PB)
SciTegic.value.DoubleValue
-57.202

@<SCITEGIC>MOL_PROPERTY
W(SA)
SciTegic.value.DoubleValue
2.071

@<SCITEGIC>MOL_PROPERTY
Valence
SciTegic.value.DoubleValue
5.785

@<SCITEGIC>MOL_PROPERTY
Coulomb
SciTegic.value.DoubleValue
46.744

@<SCITEGIC>MOL_PROPERTY
VdW
SciTegic.value.DoubleValue
0.307

@<SCITEGIC>MOL_PROPERTY
VdW6
SciTegic.value.DoubleValue
-7.672

@<SCITEGIC>MOL_PROPERTY
VdW12
SciTegic.value.DoubleValue
7.980

@<SCITEGIC>MOL_PROPERTY
Bond
SciTegic.value.DoubleValue
0.217

@<SCITEGIC>MOL_PROPERTY
Angle
SciTegic.value.DoubleValue
1.470

@<SCITEGIC>MOL_PROPERTY
Pdih
SciTegic.value.DoubleValue
4.098

@<SCITEGIC>MOL_PROPERTY
Idih
SciTegic.value.DoubleValue
0.000

@<SCITEGIC>MOL_PROPERTY
Tether
SciTegic.value.DoubleValue
0.000

@<TRIPOS>MOLECULE
guest-2_confgen4.mol2 : confsearch ligand conformer 529
          23          22           1
SMALL
USER_CHARGES
 
@<TRIPOS>ATOM
       1    N1      23.521526   19.255189   23.396334 N.4        1 MOL1        -0.5940
       2    H1      23.421520   19.813392   24.250320 H          1 MOL1         0.3649
       3    H2      24.399962   19.544322   22.952660 H          1 MOL1         0.3649
       4    H3      23.641589   18.279280   23.686285 H          1 MOL1         0.3649
       5    C1      22.337883   19.427391   22.466155 C.3        1 MOL1         0.0207
       6    H4      22.524311   18.831154   21.568802 H          1 MOL1         0.0950
       7    H5      22.287805   20.480118   22.175030 H          1 MOL1         0.0950
       8    C2      21.002854   19.001885   23.102722 C.3        1 MOL1        -0.1415
       9    H6      21.063421   17.948741   23.408202 H          1 MOL1         0.0976
      10    H7      20.827810   19.591821   24.012356 H          1 MOL1         0.0976
      11    C3      19.823321   19.192733   22.123710 C.3        1 MOL1        -0.1375
      12    H8      20.004758   18.605185   21.212848 H          1 MOL1         0.0976
      13    H9      19.769380   20.246516   21.816408 H          1 MOL1         0.0976
      14    C4      18.476901   18.768252   22.752972 C.3        1 MOL1        -0.1375
      15    H10     18.530625   17.714563   23.060163 H          1 MOL1         0.0976
      16    H11     18.295325   19.355658   23.663739 H          1 MOL1         0.0976
      17    C5      17.297443   18.959338   21.773622 C.3        1 MOL1        -0.1350
      18    H12     17.473235   18.371630   20.861663 H          1 MOL1         0.0976
      19    H13     17.237950   20.012575   21.465199 H          1 MOL1         0.0976
      20    C6      15.954764   18.534442   22.405431 C.3        1 MOL1        -0.2365
      21    H14     15.129813   18.677279   21.695432 H          1 MOL1         0.0987
      22    H15     15.734501   19.128963   23.301678 H          1 MOL1         0.0987
      23    H16     15.971634   17.475202   22.693452 H          1 MOL1         0.0987
@<TRIPOS>BOND
    1     1     2    1
    2     1     3    1
    3     1     4    1
    4     1     5    1
    5     5     6    1
    6     5     7    1
    7     5     8    1
    8     8     9    1
    9     8    10    1
   10     8    11    1
   11    11    12    1
   12    11    13    1
   13    11    14    1
   14    14    15    1
   15    14    16    1
   16    14    17    1
   17    17    18    1
   18    17    19    1
   19    17    20    1
   20    20    21    1
   21    20    22    1
   22    20    23    1
@<TRIPOS>SUBSTRUCTURE
       1 MOL1            1 RESIDUE      1      MOL     
@<SCITEGIC>MOL_PROPERTY
VConf Rank
SciTegic.value.IntegerValue
529

@<SCITEGIC>MOL_PROPERTY
Conf_Id
SciTegic.value.IntegerValue
40

@<SCITEGIC>MOL_PROPERTY
Delta U+W
SciTegic.value.DoubleValue
0.000

@<SCITEGIC>MOL_PROPERTY
U+W
SciTegic.value.DoubleValue
-8.382

@<SCITEGIC>MOL_PROPERTY
Grad RMS
SciTegic.value.DoubleValue
0.000000

@<SCITEGIC>MOL_PROPERTY
U
SciTegic.value.DoubleValue
46.604

@<SCITEGIC>MOL_PROPERTY
W
SciTegic.value.DoubleValue
-54.986

@<SCITEGIC>MOL_PROPERTY
W(PB)
SciTegic.value.DoubleValue
-57.162

@<SCITEGIC>MOL_PROPERTY
W(SA)
SciTegic.value.DoubleValue
2.176

@<SCITEGIC>MOL_PROPERTY
Valence
SciTegic.value.DoubleValue
1.727

@<SCITEGIC>MOL_PROPERTY
Coulomb
SciTegic.value.DoubleValue
44.434

@<SCITEGIC>MOL_PROPERTY
VdW
SciTegic.value.DoubleValue
0.443

@<SCITEGIC>MOL_PROPERTY
VdW6
SciTegic.value.DoubleValue
-4.623

@<SCITEGIC>MOL_PROPERTY
VdW12
SciTegic.value.DoubleValue
5.066

@<SCITEGIC>MOL_PROPERTY
Bond
SciTegic.value.DoubleValue
0.112

@<SCITEGIC>MOL_PROPERTY
Angle
SciTegic.value.DoubleValue
0.386

@<SCITEGIC>MOL_PROPERTY
Pdih
SciTegic.value.DoubleValue
1.228

@<SCITEGIC>MOL_PROPERTY
Idih
SciTegic.value.DoubleValue
0.000

@<SCITEGIC>MOL_PROPERTY
Tether
SciTegic.value.DoubleValue
0.000

@<TRIPOS>MOLECULE
guest-2_confgen4.mol2 : confsearch ligand conformer 530
          23          22           1
SMALL
USER_CHARGES
 
@<TRIPOS>ATOM
       1    N1      21.341586   20.768666   19.921443 N.4        1 MOL1        -0.5940
       2    H1      21.013491   21.739216   19.886429 H          1 MOL1         0.3649
       3    H2      20.878657   20.266187   19.157215 H          1 MOL1         0.3649
       4    H3      22.343711   20.785024   19.703479 H          1 MOL1         0.3649
       5    C1      21.068416   20.127661   21.266908 C.3        1 MOL1         0.0207
       6    H4      21.612601   20.694216   22.027362 H          1 MOL1         0.0950
       7    H5      21.470271   19.111601   21.241341 H          1 MOL1         0.0950
       8    C2      19.570260   20.088431   21.623446 C.3        1 MOL1        -0.1415
       9    H6      19.170153   21.110801   21.598501 H          1 MOL1         0.0976
      10    H7      19.023325   19.518447   20.860579 H          1 MOL1         0.0976
      11    C3      19.301179   19.479451   23.019999 C.3        1 MOL1        -0.1375
      12    H8      18.232435   19.592445   23.243563 H          1 MOL1         0.0976
      13    H9      19.841854   20.057599   23.782092 H          1 MOL1         0.0976
      14    C4      19.697561   17.984182   23.118122 C.3        1 MOL1        -0.1375
      15    H10     19.141047   17.403433   22.369627 H          1 MOL1         0.0976
      16    H11     20.760951   17.868947   22.870273 H          1 MOL1         0.0976
      17    C5      19.462551   17.375578   24.522008 C.3        1 MOL1        -0.1350
      18    H12     20.025451   17.946349   25.273782 H          1 MOL1         0.0976
      19    H13     19.875514   16.357199   24.537495 H          1 MOL1         0.0976
      20    C6      17.971696   17.312478   24.925442 C.3        1 MOL1        -0.2365
      21    H14     17.543321   18.314895   25.047559 H          1 MOL1         0.0987
      22    H15     17.854870   16.786208   25.881652 H          1 MOL1         0.0987
      23    H16     17.381096   16.774657   24.172480 H          1 MOL1         0.0987
@<TRIPOS>BOND
    1     1     2    1
    2     1     3    1
    3     1     4    1
    4     1     5    1
    5     5     6    1
    6     5     7    1
    7     5     8    1
    8     8     9    1
    9     8    10    1
   10     8    11    1
   11    11    12    1
   12    11    13    1
   13    11    14    1
   14    14    15    1
   15    14    16    1
   16    14    17    1
   17    17    18    1
   18    17    19    1
   19    17    20    1
   20    20    21    1
   21    20    22    1
   22    20    23    1
@<TRIPOS>SUBSTRUCTURE
       1 MOL1            1 RESIDUE      1      MOL     
@<SCITEGIC>MOL_PROPERTY
VConf Rank
SciTegic.value.IntegerValue
530

@<SCITEGIC>MOL_PROPERTY
Conf_Id
SciTegic.value.IntegerValue
65

@<SCITEGIC>MOL_PROPERTY
Delta U+W
SciTegic.value.DoubleValue
1.004

@<SCITEGIC>MOL_PROPERTY
U+W
SciTegic.value.DoubleValue
-7.378

@<SCITEGIC>MOL_PROPERTY
Grad RMS
SciTegic.value.DoubleValue
0.000000

@<SCITEGIC>MOL_PROPERTY
U
SciTegic.value.DoubleValue
48.047

@<SCITEGIC>MOL_PROPERTY
W
SciTegic.value.DoubleValue
-55.425

@<SCITEGIC>MOL_PROPERTY
W(PB)
SciTegic.value.DoubleValue
-57.542

@<SCITEGIC>MOL_PROPERTY
W(SA)
SciTegic.value.DoubleValue
2.116

@<SCITEGIC>MOL_PROPERTY
Valence
SciTegic.value.DoubleValue
2.583

@<SCITEGIC>MOL_PROPERTY
Coulomb
SciTegic.value.DoubleValue
44.791

@<SCITEGIC>MOL_PROPERTY
VdW
SciTegic.value.DoubleValue
0.673

@<SCITEGIC>MOL_PROPERTY
VdW6
SciTegic.value.DoubleValue
-5.788

@<SCITEGIC>MOL_PROPERTY
VdW12
SciTegic.value.DoubleValue
6.462

@<SCITEGIC>MOL_PROPERTY
Bond
SciTegic.value.DoubleValue
0.177

@<SCITEGIC>MOL_PROPERTY
Angle
SciTegic.value.DoubleValue
0.787

@<SCITEGIC>MOL_PROPERTY
Pdih
SciTegic.value.DoubleValue
1.619

@<SCITEGIC>MOL_PROPERTY
Idih
SciTegic.value.DoubleValue
0.000

@<SCITEGIC>MOL_PROPERTY
Tether
SciTegic.value.DoubleValue
0.000

@<TRIPOS>MOLECULE
guest-2_confgen4.mol2 : confsearch ligand conformer 531
          23          22           1
SMALL
USER_CHARGES
 
@<TRIPOS>ATOM
       1    N1      17.240328   21.328459   23.645582 N.4        1 MOL1        -0.5940
       2    H1      16.518633   21.414418   22.922666 H          1 MOL1         0.3649
       3    H2      17.386985   22.266751   24.033043 H          1 MOL1         0.3649
       4    H3      16.846728   20.753756   24.397666 H          1 MOL1         0.3649
       5    C1      18.523603   20.739272   23.096184 C.3        1 MOL1         0.0207
       6    H4      19.252303   20.706765   23.910100 H          1 MOL1         0.0950
       7    H5      18.900814   21.413974   22.322944 H          1 MOL1         0.0950
       8    C2      18.335693   19.328702   22.506170 C.3        1 MOL1        -0.1415
       9    H6      17.957941   18.650284   23.282725 H          1 MOL1         0.0976
      10    H7      17.567012   19.368507   21.722913 H          1 MOL1         0.0976
      11    C3      19.637806   18.752681   21.900928 C.3        1 MOL1        -0.1375
      12    H8      20.007955   19.428562   21.117638 H          1 MOL1         0.0976
      13    H9      19.395270   17.804101   21.404606 H          1 MOL1         0.0976
      14    C4      20.747551   18.517822   22.957280 C.3        1 MOL1        -0.1375
      15    H10     20.972146   19.462154   23.470407 H          1 MOL1         0.0976
      16    H11     20.383883   17.825557   23.729119 H          1 MOL1         0.0976
      17    C5      22.065468   17.972682   22.355253 C.3        1 MOL1        -0.1350
      18    H12     22.828916   17.946977   23.145416 H          1 MOL1         0.0976
      19    H13     22.439635   18.666650   21.589611 H          1 MOL1         0.0976
      20    C6      21.928538   16.556292   21.751530 C.3        1 MOL1        -0.2365
      21    H14     21.270005   16.552864   20.874273 H          1 MOL1         0.0987
      22    H15     21.524596   15.850080   22.488487 H          1 MOL1         0.0987
      23    H16     22.908082   16.180343   21.428884 H          1 MOL1         0.0987
@<TRIPOS>BOND
    1     1     2    1
    2     1     3    1
    3     1     4    1
    4     1     5    1
    5     5     6    1
    6     5     7    1
    7     5     8    1
    8     8     9    1
    9     8    10    1
   10     8    11    1
   11    11    12    1
   12    11    13    1
   13    11    14    1
   14    14    15    1
   15    14    16    1
   16    14    17    1
   17    17    18    1
   18    17    19    1
   19    17    20    1
   20    20    21    1
   21    20    22    1
   22    20    23    1
@<TRIPOS>SUBSTRUCTURE
       1 MOL1            1 RESIDUE      1      MOL     
@<SCITEGIC>MOL_PROPERTY
VConf Rank
SciTegic.value.IntegerValue
531

@<SCITEGIC>MOL_PROPERTY
Conf_Id
SciTegic.value.IntegerValue
92

@<SCITEGIC>MOL_PROPERTY
Delta U+W
SciTegic.value.DoubleValue
0.973

@<SCITEGIC>MOL_PROPERTY
U+W
SciTegic.value.DoubleValue
-7.409

@<SCITEGIC>MOL_PROPERTY
Grad RMS
SciTegic.value.DoubleValue
0.000000

@<SCITEGIC>MOL_PROPERTY
U
SciTegic.value.DoubleValue
48.047

@<SCITEGIC>MOL_PROPERTY
W
SciTegic.value.DoubleValue
-55.456

@<SCITEGIC>MOL_PROPERTY
W(PB)
SciTegic.value.DoubleValue
-57.595

@<SCITEGIC>MOL_PROPERTY
W(SA)
SciTegic.value.DoubleValue
2.138

@<SCITEGIC>MOL_PROPERTY
Valence
SciTegic.value.DoubleValue
2.583

@<SCITEGIC>MOL_PROPERTY
Coulomb
SciTegic.value.DoubleValue
44.791

@<SCITEGIC>MOL_PROPERTY
VdW
SciTegic.value.DoubleValue
0.674

@<SCITEGIC>MOL_PROPERTY
VdW6
SciTegic.value.DoubleValue
-5.789

@<SCITEGIC>MOL_PROPERTY
VdW12
SciTegic.value.DoubleValue
6.462

@<SCITEGIC>MOL_PROPERTY
Bond
SciTegic.value.DoubleValue
0.177

@<SCITEGIC>MOL_PROPERTY
Angle
SciTegic.value.DoubleValue
0.787

@<SCITEGIC>MOL_PROPERTY
Pdih
SciTegic.value.DoubleValue
1.619

@<SCITEGIC>MOL_PROPERTY
Idih
SciTegic.value.DoubleValue
0.000

@<SCITEGIC>MOL_PROPERTY
Tether
SciTegic.value.DoubleValue
0.000

@<TRIPOS>MOLECULE
guest-2_confgen4.mol2 : confsearch ligand conformer 532
          23          22           1
SMALL
USER_CHARGES
 
@<TRIPOS>ATOM
       1    N1      18.927331   16.760304   25.234467 N.4        1 MOL1        -0.5940
       2    H1      18.040806   16.244473   25.239462 H          1 MOL1         0.3649
       3    H2      19.071663   17.113255   26.186017 H          1 MOL1         0.3649
       4    H3      19.668758   16.076627   25.050856 H          1 MOL1         0.3649
       5    C1      18.922685   17.877997   24.211474 C.3        1 MOL1         0.0207
       6    H4      18.094152   18.550391   24.449879 H          1 MOL1         0.0950
       7    H5      18.734296   17.433828   23.230700 H          1 MOL1         0.0950
       8    C2      20.241998   18.672519   24.179772 C.3        1 MOL1        -0.1415
       9    H6      20.441926   19.075793   25.181444 H          1 MOL1         0.0976
      10    H7      21.074245   17.996937   23.941131 H          1 MOL1         0.0976
      11    C3      20.212808   19.840066   23.165368 C.3        1 MOL1        -0.1375
      12    H8      21.144138   20.414948   23.263277 H          1 MOL1         0.0976
      13    H9      19.395064   20.527906   23.421923 H          1 MOL1         0.0976
      14    C4      20.058015   19.368267   21.699454 C.3        1 MOL1        -0.1375
      15    H10     20.858120   18.655313   21.456662 H          1 MOL1         0.0976
      16    H11     19.106815   18.833586   21.575386 H          1 MOL1         0.0976
      17    C5      20.106291   20.551865   20.707720 C.3        1 MOL1        -0.1350
      18    H12     21.058460   21.089772   20.817227 H          1 MOL1         0.0976
      19    H13     19.308148   21.268746   20.946523 H          1 MOL1         0.0976
      20    C6      19.950449   20.080360   19.246228 C.3        1 MOL1        -0.2365
      21    H14     20.754734   19.387200   18.967154 H          1 MOL1         0.0987
      22    H15     19.987701   20.934269   18.557390 H          1 MOL1         0.0987
      23    H16     18.990796   19.568606   19.096584 H          1 MOL1         0.0987
@<TRIPOS>BOND
    1     1     2    1
    2     1     3    1
    3     1     4    1
    4     1     5    1
    5     5     6    1
    6     5     7    1
    7     5     8    1
    8     8     9    1
    9     8    10    1
   10     8    11    1
   11    11    12    1
   12    11    13    1
   13    11    14    1
   14    14    15    1
   15    14    16    1
   16    14    17    1
   17    17    18    1
   18    17    19    1
   19    17    20    1
   20    20    21    1
   21    20    22    1
   22    20    23    1
@<TRIPOS>SUBSTRUCTURE
       1 MOL1            1 RESIDUE      1      MOL     
@<SCITEGIC>MOL_PROPERTY
VConf Rank
SciTegic.value.IntegerValue
532

@<SCITEGIC>MOL_PROPERTY
Conf_Id
SciTegic.value.IntegerValue
42

@<SCITEGIC>MOL_PROPERTY
Delta U+W
SciTegic.value.DoubleValue
0.365

@<SCITEGIC>MOL_PROPERTY
U+W
SciTegic.value.DoubleValue
-8.017

@<SCITEGIC>MOL_PROPERTY
Grad RMS
SciTegic.value.DoubleValue
0.000000

@<SCITEGIC>MOL_PROPERTY
U
SciTegic.value.DoubleValue
47.375

@<SCITEGIC>MOL_PROPERTY
W
SciTegic.value.DoubleValue
-55.392

@<SCITEGIC>MOL_PROPERTY
W(PB)
SciTegic.value.DoubleValue
-57.543

@<SCITEGIC>MOL_PROPERTY
W(SA)
SciTegic.value.DoubleValue
2.152

@<SCITEGIC>MOL_PROPERTY
Valence
SciTegic.value.DoubleValue
2.032

@<SCITEGIC>MOL_PROPERTY
Coulomb
SciTegic.value.DoubleValue
44.843

@<SCITEGIC>MOL_PROPERTY
VdW
SciTegic.value.DoubleValue
0.499

@<SCITEGIC>MOL_PROPERTY
VdW6
SciTegic.value.DoubleValue
-5.218

@<SCITEGIC>MOL_PROPERTY
VdW12
SciTegic.value.DoubleValue
5.717

@<SCITEGIC>MOL_PROPERTY
Bond
SciTegic.value.DoubleValue
0.135

@<SCITEGIC>MOL_PROPERTY
Angle
SciTegic.value.DoubleValue
0.514

@<SCITEGIC>MOL_PROPERTY
Pdih
SciTegic.value.DoubleValue
1.383

@<SCITEGIC>MOL_PROPERTY
Idih
SciTegic.value.DoubleValue
0.000

@<SCITEGIC>MOL_PROPERTY
Tether
SciTegic.value.DoubleValue
0.000

@<TRIPOS>MOLECULE
guest-2_confgen4.mol2 : confsearch ligand conformer 533
          23          22           1
SMALL
USER_CHARGES
 
@<TRIPOS>ATOM
       1    N1      22.689349   17.846578   23.044329 N.4        1 MOL1        -0.5940
       2    H1      22.986302   18.654024   23.601539 H          1 MOL1         0.3649
       3    H2      23.541381   17.359239   22.746854 H          1 MOL1         0.3649
       4    H3      22.186707   17.213055   23.673137 H          1 MOL1         0.3649
       5    C1      21.836179   18.261083   21.861168 C.3        1 MOL1         0.0207
       6    H4      21.574579   17.360966   21.298339 H          1 MOL1         0.0950
       7    H5      22.450380   18.897711   21.218491 H          1 MOL1         0.0950
       8    C2      20.553049   19.019659   22.252795 C.3        1 MOL1        -0.1415
       9    H6      20.816750   19.908264   22.841431 H          1 MOL1         0.0976
      10    H7      20.079496   19.375770   21.329728 H          1 MOL1         0.0976
      11    C3      19.551850   18.137168   23.037407 C.3        1 MOL1        -0.1375
      12    H8      20.056963   17.696176   23.906728 H          1 MOL1         0.0976
      13    H9      19.237954   17.294129   22.406406 H          1 MOL1         0.0976
      14    C4      18.297433   18.892646   23.548040 C.3        1 MOL1        -0.1375
      15    H10     17.692060   18.177017   24.121526 H          1 MOL1         0.0976
      16    H11     18.591547   19.671273   24.265300 H          1 MOL1         0.0976
      17    C5      17.402326   19.498166   22.436027 C.3        1 MOL1        -0.1350
      18    H12     16.351755   19.414111   22.747808 H          1 MOL1         0.0976
      19    H13     17.490350   18.910369   21.511719 H          1 MOL1         0.0976
      20    C6      17.697308   20.990295   22.155318 C.3        1 MOL1        -0.2365
      21    H14     17.538167   21.596947   23.056265 H          1 MOL1         0.0987
      22    H15     17.028159   21.373543   21.374117 H          1 MOL1         0.0987
      23    H16     18.727213   21.151631   21.818588 H          1 MOL1         0.0987
@<TRIPOS>BOND
    1     1     2    1
    2     1     3    1
    3     1     4    1
    4     1     5    1
    5     5     6    1
    6     5     7    1
    7     5     8    1
    8     8     9    1
    9     8    10    1
   10     8    11    1
   11    11    12    1
   12    11    13    1
   13    11    14    1
   14    14    15    1
   15    14    16    1
   16    14    17    1
   17    17    18    1
   18    17    19    1
   19    17    20    1
   20    20    21    1
   21    20    22    1
   22    20    23    1
@<TRIPOS>SUBSTRUCTURE
       1 MOL1            1 RESIDUE      1      MOL     
@<SCITEGIC>MOL_PROPERTY
VConf Rank
SciTegic.value.IntegerValue
533

@<SCITEGIC>MOL_PROPERTY
Conf_Id
SciTegic.value.IntegerValue
3

@<SCITEGIC>MOL_PROPERTY
Delta U+W
SciTegic.value.DoubleValue
3.283

@<SCITEGIC>MOL_PROPERTY
U+W
SciTegic.value.DoubleValue
-5.099

@<SCITEGIC>MOL_PROPERTY
Grad RMS
SciTegic.value.DoubleValue
0.000000

@<SCITEGIC>MOL_PROPERTY
U
SciTegic.value.DoubleValue
50.701

@<SCITEGIC>MOL_PROPERTY
W
SciTegic.value.DoubleValue
-55.800

@<SCITEGIC>MOL_PROPERTY
W(PB)
SciTegic.value.DoubleValue
-57.867

@<SCITEGIC>MOL_PROPERTY
W(SA)
SciTegic.value.DoubleValue
2.067

@<SCITEGIC>MOL_PROPERTY
Valence
SciTegic.value.DoubleValue
4.880

@<SCITEGIC>MOL_PROPERTY
Coulomb
SciTegic.value.DoubleValue
45.095

@<SCITEGIC>MOL_PROPERTY
VdW
SciTegic.value.DoubleValue
0.726

@<SCITEGIC>MOL_PROPERTY
VdW6
SciTegic.value.DoubleValue
-6.620

@<SCITEGIC>MOL_PROPERTY
VdW12
SciTegic.value.DoubleValue
7.346

@<SCITEGIC>MOL_PROPERTY
Bond
SciTegic.value.DoubleValue
0.222

@<SCITEGIC>MOL_PROPERTY
Angle
SciTegic.value.DoubleValue
1.260

@<SCITEGIC>MOL_PROPERTY
Pdih
SciTegic.value.DoubleValue
3.398

@<SCITEGIC>MOL_PROPERTY
Idih
SciTegic.value.DoubleValue
0.000

@<SCITEGIC>MOL_PROPERTY
Tether
SciTegic.value.DoubleValue
0.000

@<TRIPOS>MOLECULE
guest-2_confgen4.mol2 : confsearch ligand conformer 534
          23          22           1
SMALL
USER_CHARGES
 
@<TRIPOS>ATOM
       1    N1      20.680661   16.405102   21.803600 N.4        1 MOL1        -0.5940
       2    H1      21.691542   16.265281   21.899126 H          1 MOL1         0.3649
       3    H2      20.283415   15.512995   21.490271 H          1 MOL1         0.3649
       4    H3      20.309654   16.586949   22.741088 H          1 MOL1         0.3649
       5    C1      20.356483   17.533930   20.844983 C.3        1 MOL1         0.0207
       6    H4      19.269090   17.609414   20.765173 H          1 MOL1         0.0950
       7    H5      20.749285   17.258907   19.862336 H          1 MOL1         0.0950
       8    C2      20.945751   18.895214   21.268002 C.3        1 MOL1        -0.1415
       9    H6      22.040850   18.818434   21.293848 H          1 MOL1         0.0976
      10    H7      20.709899   19.637145   20.493553 H          1 MOL1         0.0976
      11    C3      20.437159   19.409030   22.638759 C.3        1 MOL1        -0.1375
      12    H8      20.947849   20.355735   22.857437 H          1 MOL1         0.0976
      13    H9      20.733646   18.711358   23.433176 H          1 MOL1         0.0976
      14    C4      18.903077   19.627012   22.677531 C.3        1 MOL1        -0.1375
      15    H10     18.611606   20.346490   21.899994 H          1 MOL1         0.0976
      16    H11     18.391555   18.686306   22.435102 H          1 MOL1         0.0976
      17    C5      18.384746   20.114845   24.052231 C.3        1 MOL1        -0.1350
      18    H12     18.664031   19.393313   24.832691 H          1 MOL1         0.0976
      19    H13     17.286096   20.130844   24.028230 H          1 MOL1         0.0976
      20    C6      18.892900   21.522481   24.439124 C.3        1 MOL1        -0.2365
      21    H14     18.655069   22.256676   23.658483 H          1 MOL1         0.0987
      22    H15     19.977906   21.530291   24.600207 H          1 MOL1         0.0987
      23    H16     18.419691   21.858616   25.370800 H          1 MOL1         0.0987
@<TRIPOS>BOND
    1     1     2    1
    2     1     3    1
    3     1     4    1
    4     1     5    1
    5     5     6    1
    6     5     7    1
    7     5     8    1
    8     8     9    1
    9     8    10    1
   10     8    11    1
   11    11    12    1
   12    11    13    1
   13    11    14    1
   14    14    15    1
   15    14    16    1
   16    14    17    1
   17    17    18    1
   18    17    19    1
   19    17    20    1
   20    20    21    1
   21    20    22    1
   22    20    23    1
@<TRIPOS>SUBSTRUCTURE
       1 MOL1            1 RESIDUE      1      MOL     
@<SCITEGIC>MOL_PROPERTY
VConf Rank
SciTegic.value.IntegerValue
534

@<SCITEGIC>MOL_PROPERTY
Conf_Id
SciTegic.value.IntegerValue
83

@<SCITEGIC>MOL_PROPERTY
Delta U+W
SciTegic.value.DoubleValue
1.229

@<SCITEGIC>MOL_PROPERTY
U+W
SciTegic.value.DoubleValue
-7.154

@<SCITEGIC>MOL_PROPERTY
Grad RMS
SciTegic.value.DoubleValue
0.000000

@<SCITEGIC>MOL_PROPERTY
U
SciTegic.value.DoubleValue
48.727

@<SCITEGIC>MOL_PROPERTY
W
SciTegic.value.DoubleValue
-55.880

@<SCITEGIC>MOL_PROPERTY
W(PB)
SciTegic.value.DoubleValue
-57.960

@<SCITEGIC>MOL_PROPERTY
W(SA)
SciTegic.value.DoubleValue
2.080

@<SCITEGIC>MOL_PROPERTY
Valence
SciTegic.value.DoubleValue
2.671

@<SCITEGIC>MOL_PROPERTY
Coulomb
SciTegic.value.DoubleValue
45.371

@<SCITEGIC>MOL_PROPERTY
VdW
SciTegic.value.DoubleValue
0.684

@<SCITEGIC>MOL_PROPERTY
VdW6
SciTegic.value.DoubleValue
-6.511

@<SCITEGIC>MOL_PROPERTY
VdW12
SciTegic.value.DoubleValue
7.195

@<SCITEGIC>MOL_PROPERTY
Bond
SciTegic.value.DoubleValue
0.203

@<SCITEGIC>MOL_PROPERTY
Angle
SciTegic.value.DoubleValue
0.915

@<SCITEGIC>MOL_PROPERTY
Pdih
SciTegic.value.DoubleValue
1.554

@<SCITEGIC>MOL_PROPERTY
Idih
SciTegic.value.DoubleValue
0.000

@<SCITEGIC>MOL_PROPERTY
Tether
SciTegic.value.DoubleValue
0.000

@<TRIPOS>MOLECULE
guest-2_confgen4.mol2 : confsearch ligand conformer 535
          23          22           1
SMALL
USER_CHARGES
 
@<TRIPOS>ATOM
       1    N1      20.595779   19.432773   19.836830 N.4        1 MOL1        -0.5940
       2    H1      21.528673   19.851044   19.763952 H          1 MOL1         0.3649
       3    H2      19.992961   20.115639   20.305770 H          1 MOL1         0.3649
       4    H3      20.240940   19.324199   18.880725 H          1 MOL1         0.3649
       5    C1      20.627567   18.111514   20.579500 C.3        1 MOL1         0.0207
       6    H4      21.257424   17.424039   20.008374 H          1 MOL1         0.0950
       7    H5      19.612594   17.706433   20.594662 H          1 MOL1         0.0950
       8    C2      21.168073   18.222616   22.019912 C.3        1 MOL1        -0.1415
       9    H6      21.206941   17.217343   22.460110 H          1 MOL1         0.0976
      10    H7      22.205345   18.581394   21.986037 H          1 MOL1         0.0976
      11    C3      20.336188   19.151070   22.940558 C.3        1 MOL1        -0.1375
      12    H8      20.353022   20.177354   22.550421 H          1 MOL1         0.0976
      13    H9      20.829631   19.188676   23.920341 H          1 MOL1         0.0976
      14    C4      18.869838   18.680752   23.116769 C.3        1 MOL1        -0.1375
      15    H10     18.382600   18.619457   22.134834 H          1 MOL1         0.0976
      16    H11     18.854615   17.664149   23.533249 H          1 MOL1         0.0976
      17    C5      18.025751   19.618464   24.013796 C.3        1 MOL1        -0.1350
      18    H12     16.980372   19.280074   23.990612 H          1 MOL1         0.0976
      19    H13     18.028459   20.634935   23.596058 H          1 MOL1         0.0976
      20    C6      18.501449   19.658875   25.483974 C.3        1 MOL1        -0.2365
      21    H14     18.539243   18.649931   25.914801 H          1 MOL1         0.0987
      22    H15     17.812975   20.258161   26.093725 H          1 MOL1         0.0987
      23    H16     19.497496   20.109423   25.574197 H          1 MOL1         0.0987
@<TRIPOS>BOND
    1     1     2    1
    2     1     3    1
    3     1     4    1
    4     1     5    1
    5     5     6    1
    6     5     7    1
    7     5     8    1
    8     8     9    1
    9     8    10    1
   10     8    11    1
   11    11    12    1
   12    11    13    1
   13    11    14    1
   14    14    15    1
   15    14    16    1
   16    14    17    1
   17    17    18    1
   18    17    19    1
   19    17    20    1
   20    20    21    1
   21    20    22    1
   22    20    23    1
@<TRIPOS>SUBSTRUCTURE
       1 MOL1            1 RESIDUE      1      MOL     
@<SCITEGIC>MOL_PROPERTY
VConf Rank
SciTegic.value.IntegerValue
535

@<SCITEGIC>MOL_PROPERTY
Conf_Id
SciTegic.value.IntegerValue
50

@<SCITEGIC>MOL_PROPERTY
Delta U+W
SciTegic.value.DoubleValue
1.252

@<SCITEGIC>MOL_PROPERTY
U+W
SciTegic.value.DoubleValue
-7.130

@<SCITEGIC>MOL_PROPERTY
Grad RMS
SciTegic.value.DoubleValue
0.000000

@<SCITEGIC>MOL_PROPERTY
U
SciTegic.value.DoubleValue
48.727

@<SCITEGIC>MOL_PROPERTY
W
SciTegic.value.DoubleValue
-55.857

@<SCITEGIC>MOL_PROPERTY
W(PB)
SciTegic.value.DoubleValue
-57.937

@<SCITEGIC>MOL_PROPERTY
W(SA)
SciTegic.value.DoubleValue
2.080

@<SCITEGIC>MOL_PROPERTY
Valence
SciTegic.value.DoubleValue
2.671

@<SCITEGIC>MOL_PROPERTY
Coulomb
SciTegic.value.DoubleValue
45.371

@<SCITEGIC>MOL_PROPERTY
VdW
SciTegic.value.DoubleValue
0.684

@<SCITEGIC>MOL_PROPERTY
VdW6
SciTegic.value.DoubleValue
-6.511

@<SCITEGIC>MOL_PROPERTY
VdW12
SciTegic.value.DoubleValue
7.196

@<SCITEGIC>MOL_PROPERTY
Bond
SciTegic.value.DoubleValue
0.203

@<SCITEGIC>MOL_PROPERTY
Angle
SciTegic.value.DoubleValue
0.915

@<SCITEGIC>MOL_PROPERTY
Pdih
SciTegic.value.DoubleValue
1.554

@<SCITEGIC>MOL_PROPERTY
Idih
SciTegic.value.DoubleValue
0.000

@<SCITEGIC>MOL_PROPERTY
Tether
SciTegic.value.DoubleValue
0.000

@<TRIPOS>MOLECULE
guest-2_confgen4.mol2 : confsearch ligand conformer 536
          23          22           1
SMALL
USER_CHARGES
 
@<TRIPOS>ATOM
       1    N1      19.103633   16.002916   23.228720 N.4        1 MOL1        -0.5940
       2    H1      18.178018   16.441770   23.215445 H          1 MOL1         0.3649
       3    H2      19.069227   15.252248   23.926747 H          1 MOL1         0.3649
       4    H3      19.240606   15.556347   22.316338 H          1 MOL1         0.3649
       5    C1      20.198094   17.006634   23.535224 C.3        1 MOL1         0.0207
       6    H4      21.145594   16.462241   23.573372 H          1 MOL1         0.0950
       7    H5      20.006216   17.425812   24.526630 H          1 MOL1         0.0950
       8    C2      20.305024   18.145684   22.502804 C.3        1 MOL1        -0.1415
       9    H6      21.185680   18.749502   22.748792 H          1 MOL1         0.0976
      10    H7      20.492511   17.719499   21.508328 H          1 MOL1         0.0976
      11    C3      19.037286   19.036724   22.463252 C.3        1 MOL1        -0.1375
      12    H8      18.787092   19.391053   23.472811 H          1 MOL1         0.0976
      13    H9      18.188337   18.421006   22.137424 H          1 MOL1         0.0976
      14    C4      19.161546   20.240704   21.493151 C.3        1 MOL1        -0.1375
      15    H10     19.838292   19.994171   20.663434 H          1 MOL1         0.0976
      16    H11     18.178871   20.411558   21.032010 H          1 MOL1         0.0976
      17    C5      19.599198   21.569199   22.161560 C.3        1 MOL1        -0.1350
      18    H12     18.860350   21.860079   22.921340 H          1 MOL1         0.0976
      19    H13     19.582578   22.363413   21.402112 H          1 MOL1         0.0976
      20    C6      21.003507   21.527206   22.802797 C.3        1 MOL1        -0.2365
      21    H14     21.757594   21.182938   22.083306 H          1 MOL1         0.0987
      22    H15     21.023424   20.863469   23.675913 H          1 MOL1         0.0987
      23    H16     21.298561   22.527473   23.145285 H          1 MOL1         0.0987
@<TRIPOS>BOND
    1     1     2    1
    2     1     3    1
    3     1     4    1
    4     1     5    1
    5     5     6    1
    6     5     7    1
    7     5     8    1
    8     8     9    1
    9     8    10    1
   10     8    11    1
   11    11    12    1
   12    11    13    1
   13    11    14    1
   14    14    15    1
   15    14    16    1
   16    14    17    1
   17    17    18    1
   18    17    19    1
   19    17    20    1
   20    20    21    1
   21    20    22    1
   22    20    23    1
@<TRIPOS>SUBSTRUCTURE
       1 MOL1            1 RESIDUE      1      MOL     
@<SCITEGIC>MOL_PROPERTY
VConf Rank
SciTegic.value.IntegerValue
536

@<SCITEGIC>MOL_PROPERTY
Conf_Id
SciTegic.value.IntegerValue
55

@<SCITEGIC>MOL_PROPERTY
Delta U+W
SciTegic.value.DoubleValue
3.232

@<SCITEGIC>MOL_PROPERTY
U+W
SciTegic.value.DoubleValue
-5.150

@<SCITEGIC>MOL_PROPERTY
Grad RMS
SciTegic.value.DoubleValue
0.000000

@<SCITEGIC>MOL_PROPERTY
U
SciTegic.value.DoubleValue
50.625

@<SCITEGIC>MOL_PROPERTY
W
SciTegic.value.DoubleValue
-55.776

@<SCITEGIC>MOL_PROPERTY
W(PB)
SciTegic.value.DoubleValue
-57.839

@<SCITEGIC>MOL_PROPERTY
W(SA)
SciTegic.value.DoubleValue
2.064

@<SCITEGIC>MOL_PROPERTY
Valence
SciTegic.value.DoubleValue
4.837

@<SCITEGIC>MOL_PROPERTY
Coulomb
SciTegic.value.DoubleValue
45.097

@<SCITEGIC>MOL_PROPERTY
VdW
SciTegic.value.DoubleValue
0.692

@<SCITEGIC>MOL_PROPERTY
VdW6
SciTegic.value.DoubleValue
-6.655

@<SCITEGIC>MOL_PROPERTY
VdW12
SciTegic.value.DoubleValue
7.347

@<SCITEGIC>MOL_PROPERTY
Bond
SciTegic.value.DoubleValue
0.223

@<SCITEGIC>MOL_PROPERTY
Angle
SciTegic.value.DoubleValue
1.167

@<SCITEGIC>MOL_PROPERTY
Pdih
SciTegic.value.DoubleValue
3.447

@<SCITEGIC>MOL_PROPERTY
Idih
SciTegic.value.DoubleValue
0.000

@<SCITEGIC>MOL_PROPERTY
Tether
SciTegic.value.DoubleValue
0.000

@<TRIPOS>MOLECULE
guest-2_confgen4.mol2 : confsearch ligand conformer 537
          23          22           1
SMALL
USER_CHARGES
 
@<TRIPOS>ATOM
       1    N1      17.251221   20.773062   22.795602 N.4        1 MOL1        -0.5940
       2    H1      16.693161   20.828772   23.653677 H          1 MOL1         0.3649
       3    H2      16.594278   20.823497   22.009548 H          1 MOL1         0.3649
       4    H3      17.828674   21.619089   22.756307 H          1 MOL1         0.3649
       5    C1      18.090499   19.512499   22.748255 C.3        1 MOL1         0.0207
       6    H4      18.625631   19.503879   21.796993 H          1 MOL1         0.0950
       7    H5      17.411296   18.655870   22.764723 H          1 MOL1         0.0950
       8    C2      19.083481   19.405472   23.922272 C.3        1 MOL1        -0.1415
       9    H6      19.742942   20.283192   23.946366 H          1 MOL1         0.0976
      10    H7      18.508040   19.424404   24.857434 H          1 MOL1         0.0976
      11    C3      19.926911   18.105863   23.889009 C.3        1 MOL1        -0.1375
      12    H8      19.311459   17.266651   23.536098 H          1 MOL1         0.0976
      13    H9      20.207601   17.854490   24.921251 H          1 MOL1         0.0976
      14    C4      21.233674   18.194903   23.058398 C.3        1 MOL1        -0.1375
      15    H10     21.886971   18.968110   23.485769 H          1 MOL1         0.0976
      16    H11     21.774236   17.244686   23.169403 H          1 MOL1         0.0976
      17    C5      21.022124   18.477290   21.553072 C.3        1 MOL1        -0.1350
      18    H12     20.625544   19.491482   21.415034 H          1 MOL1         0.0976
      19    H13     20.280723   17.778006   21.141970 H          1 MOL1         0.0976
      20    C6      22.340067   18.350881   20.759520 C.3        1 MOL1        -0.2365
      21    H14     22.753159   17.336760   20.837798 H          1 MOL1         0.0987
      22    H15     23.093925   19.056881   21.131692 H          1 MOL1         0.0987
      23    H16     22.174020   18.565051   19.695758 H          1 MOL1         0.0987
@<TRIPOS>BOND
    1     1     2    1
    2     1     3    1
    3     1     4    1
    4     1     5    1
    5     5     6    1
    6     5     7    1
    7     5     8    1
    8     8     9    1
    9     8    10    1
   10     8    11    1
   11    11    12    1
   12    11    13    1
   13    11    14    1
   14    14    15    1
   15    14    16    1
   16    14    17    1
   17    17    18    1
   18    17    19    1
   19    17    20    1
   20    20    21    1
   21    20    22    1
   22    20    23    1
@<TRIPOS>SUBSTRUCTURE
       1 MOL1            1 RESIDUE      1      MOL     
@<SCITEGIC>MOL_PROPERTY
VConf Rank
SciTegic.value.IntegerValue
537

@<SCITEGIC>MOL_PROPERTY
Conf_Id
SciTegic.value.IntegerValue
93

@<SCITEGIC>MOL_PROPERTY
Delta U+W
SciTegic.value.DoubleValue
2.589

@<SCITEGIC>MOL_PROPERTY
U+W
SciTegic.value.DoubleValue
-5.793

@<SCITEGIC>MOL_PROPERTY
Grad RMS
SciTegic.value.DoubleValue
0.000000

@<SCITEGIC>MOL_PROPERTY
U
SciTegic.value.DoubleValue
50.122

@<SCITEGIC>MOL_PROPERTY
W
SciTegic.value.DoubleValue
-55.915

@<SCITEGIC>MOL_PROPERTY
W(PB)
SciTegic.value.DoubleValue
-58.031

@<SCITEGIC>MOL_PROPERTY
W(SA)
SciTegic.value.DoubleValue
2.115

@<SCITEGIC>MOL_PROPERTY
Valence
SciTegic.value.DoubleValue
4.132

@<SCITEGIC>MOL_PROPERTY
Coulomb
SciTegic.value.DoubleValue
45.536

@<SCITEGIC>MOL_PROPERTY
VdW
SciTegic.value.DoubleValue
0.454

@<SCITEGIC>MOL_PROPERTY
VdW6
SciTegic.value.DoubleValue
-6.262

@<SCITEGIC>MOL_PROPERTY
VdW12
SciTegic.value.DoubleValue
6.715

@<SCITEGIC>MOL_PROPERTY
Bond
SciTegic.value.DoubleValue
0.182

@<SCITEGIC>MOL_PROPERTY
Angle
SciTegic.value.DoubleValue
1.157

@<SCITEGIC>MOL_PROPERTY
Pdih
SciTegic.value.DoubleValue
2.794

@<SCITEGIC>MOL_PROPERTY
Idih
SciTegic.value.DoubleValue
0.000

@<SCITEGIC>MOL_PROPERTY
Tether
SciTegic.value.DoubleValue
0.000

@<TRIPOS>MOLECULE
guest-2_confgen4.mol2 : confsearch ligand conformer 538
          23          22           1
SMALL
USER_CHARGES
 
@<TRIPOS>ATOM
       1    N1      22.137695   20.778737   23.399459 N.4        1 MOL1        -0.5940
       2    H1      22.013793   20.497424   24.377348 H          1 MOL1         0.3649
       3    H2      22.059536   21.801027   23.370931 H          1 MOL1         0.3649
       4    H3      23.101639   20.546745   23.139032 H          1 MOL1         0.3649
       5    C1      21.129493   20.111060   22.486561 C.3        1 MOL1         0.0207
       6    H4      21.301558   20.477523   21.470934 H          1 MOL1         0.0950
       7    H5      20.133791   20.430684   22.799225 H          1 MOL1         0.0950
       8    C2      21.227938   18.572936   22.502992 C.3        1 MOL1        -0.1415
       9    H6      22.242866   18.293574   22.190107 H          1 MOL1         0.0976
      10    H7      21.103251   18.192830   23.525653 H          1 MOL1         0.0976
      11    C3      20.213379   17.888303   21.552512 C.3        1 MOL1        -0.1375
      12    H8      20.638083   16.925520   21.236009 H          1 MOL1         0.0976
      13    H9      20.100804   18.479580   20.633098 H          1 MOL1         0.0976
      14    C4      18.822412   17.602494   22.176208 C.3        1 MOL1        -0.1375
      15    H10     18.221822   17.056373   21.435611 H          1 MOL1         0.0976
      16    H11     18.937956   16.924839   23.033370 H          1 MOL1         0.0976
      17    C5      18.044368   18.862631   22.620285 C.3        1 MOL1        -0.1350
      18    H12     18.022719   19.596334   21.802429 H          1 MOL1         0.0976
      19    H13     18.553199   19.336144   23.469868 H          1 MOL1         0.0976
      20    C6      16.598695   18.520663   23.039532 C.3        1 MOL1        -0.2365
      21    H14     16.064705   19.423959   23.361928 H          1 MOL1         0.0987
      22    H15     16.588187   17.807197   23.873861 H          1 MOL1         0.0987
      23    H16     16.038806   18.079026   22.204848 H          1 MOL1         0.0987
@<TRIPOS>BOND
    1     1     2    1
    2     1     3    1
    3     1     4    1
    4     1     5    1
    5     5     6    1
    6     5     7    1
    7     5     8    1
    8     8     9    1
    9     8    10    1
   10     8    11    1
   11    11    12    1
   12    11    13    1
   13    11    14    1
   14    14    15    1
   15    14    16    1
   16    14    17    1
   17    17    18    1
   18    17    19    1
   19    17    20    1
   20    20    21    1
   21    20    22    1
   22    20    23    1
@<TRIPOS>SUBSTRUCTURE
       1 MOL1            1 RESIDUE      1      MOL     
@<SCITEGIC>MOL_PROPERTY
VConf Rank
SciTegic.value.IntegerValue
538

@<SCITEGIC>MOL_PROPERTY
Conf_Id
SciTegic.value.IntegerValue
70

@<SCITEGIC>MOL_PROPERTY
Delta U+W
SciTegic.value.DoubleValue
2.599

@<SCITEGIC>MOL_PROPERTY
U+W
SciTegic.value.DoubleValue
-5.783

@<SCITEGIC>MOL_PROPERTY
Grad RMS
SciTegic.value.DoubleValue
0.000000

@<SCITEGIC>MOL_PROPERTY
U
SciTegic.value.DoubleValue
50.122

@<SCITEGIC>MOL_PROPERTY
W
SciTegic.value.DoubleValue
-55.906

@<SCITEGIC>MOL_PROPERTY
W(PB)
SciTegic.value.DoubleValue
-58.010

@<SCITEGIC>MOL_PROPERTY
W(SA)
SciTegic.value.DoubleValue
2.105

@<SCITEGIC>MOL_PROPERTY
Valence
SciTegic.value.DoubleValue
4.132

@<SCITEGIC>MOL_PROPERTY
Coulomb
SciTegic.value.DoubleValue
45.536

@<SCITEGIC>MOL_PROPERTY
VdW
SciTegic.value.DoubleValue
0.454

@<SCITEGIC>MOL_PROPERTY
VdW6
SciTegic.value.DoubleValue
-6.262

@<SCITEGIC>MOL_PROPERTY
VdW12
SciTegic.value.DoubleValue
6.715

@<SCITEGIC>MOL_PROPERTY
Bond
SciTegic.value.DoubleValue
0.182

@<SCITEGIC>MOL_PROPERTY
Angle
SciTegic.value.DoubleValue
1.157

@<SCITEGIC>MOL_PROPERTY
Pdih
SciTegic.value.DoubleValue
2.794

@<SCITEGIC>MOL_PROPERTY
Idih
SciTegic.value.DoubleValue
0.000

@<SCITEGIC>MOL_PROPERTY
Tether
SciTegic.value.DoubleValue
0.000

@<TRIPOS>MOLECULE
guest-2_confgen4.mol2 : confsearch ligand conformer 539
          23          22           1
SMALL
USER_CHARGES
 
@<TRIPOS>ATOM
       1    N1      22.575035   19.558161   22.938549 N.4        1 MOL1        -0.5940
       2    H1      23.154094   19.184257   23.697097 H          1 MOL1         0.3649
       3    H2      23.115443   20.305499   22.489987 H          1 MOL1         0.3649
       4    H3      22.462466   18.810863   22.246928 H          1 MOL1         0.3649
       5    C1      21.236405   20.056973   23.445985 C.3        1 MOL1         0.0207
       6    H4      20.684595   20.471121   22.598086 H          1 MOL1         0.0950
       7    H5      21.429574   20.867484   24.153977 H          1 MOL1         0.0950
       8    C2      20.391017   18.966246   24.134038 C.3        1 MOL1        -0.1415
       9    H6      20.940018   18.582055   25.003929 H          1 MOL1         0.0976
      10    H7      19.478956   19.425820   24.535724 H          1 MOL1         0.0976
      11    C3      20.013829   17.781826   23.205662 C.3        1 MOL1        -0.1375
      12    H8      19.382375   17.079397   23.766966 H          1 MOL1         0.0976
      13    H9      20.922188   17.221512   22.946501 H          1 MOL1         0.0976
      14    C4      19.283901   18.183968   21.897883 C.3        1 MOL1        -0.1375
      15    H10     19.938382   18.811589   21.278498 H          1 MOL1         0.0976
      16    H11     19.095878   17.273365   21.312404 H          1 MOL1         0.0976
      17    C5      17.940437   18.911938   22.138834 C.3        1 MOL1        -0.1350
      18    H12     18.112844   19.862124   22.661673 H          1 MOL1         0.0976
      19    H13     17.299268   18.301463   22.789937 H          1 MOL1         0.0976
      20    C6      17.201599   19.196470   20.813866 C.3        1 MOL1        -0.2365
      21    H14     16.252716   19.715057   21.002820 H          1 MOL1         0.0987
      22    H15     16.975180   18.264530   20.279624 H          1 MOL1         0.0987
      23    H16     17.806613   19.831038   20.153195 H          1 MOL1         0.0987
@<TRIPOS>BOND
    1     1     2    1
    2     1     3    1
    3     1     4    1
    4     1     5    1
    5     5     6    1
    6     5     7    1
    7     5     8    1
    8     8     9    1
    9     8    10    1
   10     8    11    1
   11    11    12    1
   12    11    13    1
   13    11    14    1
   14    14    15    1
   15    14    16    1
   16    14    17    1
   17    17    18    1
   18    17    19    1
   19    17    20    1
   20    20    21    1
   21    20    22    1
   22    20    23    1
@<TRIPOS>SUBSTRUCTURE
       1 MOL1            1 RESIDUE      1      MOL     
@<SCITEGIC>MOL_PROPERTY
VConf Rank
SciTegic.value.IntegerValue
539

@<SCITEGIC>MOL_PROPERTY
Conf_Id
SciTegic.value.IntegerValue
72

@<SCITEGIC>MOL_PROPERTY
Delta U+W
SciTegic.value.DoubleValue
1.051

@<SCITEGIC>MOL_PROPERTY
U+W
SciTegic.value.DoubleValue
-7.331

@<SCITEGIC>MOL_PROPERTY
Grad RMS
SciTegic.value.DoubleValue
0.000000

@<SCITEGIC>MOL_PROPERTY
U
SciTegic.value.DoubleValue
48.590

@<SCITEGIC>MOL_PROPERTY
W
SciTegic.value.DoubleValue
-55.922

@<SCITEGIC>MOL_PROPERTY
W(PB)
SciTegic.value.DoubleValue
-58.012

@<SCITEGIC>MOL_PROPERTY
W(SA)
SciTegic.value.DoubleValue
2.090

@<SCITEGIC>MOL_PROPERTY
Valence
SciTegic.value.DoubleValue
2.601

@<SCITEGIC>MOL_PROPERTY
Coulomb
SciTegic.value.DoubleValue
45.520

@<SCITEGIC>MOL_PROPERTY
VdW
SciTegic.value.DoubleValue
0.469

@<SCITEGIC>MOL_PROPERTY
VdW6
SciTegic.value.DoubleValue
-6.867

@<SCITEGIC>MOL_PROPERTY
VdW12
SciTegic.value.DoubleValue
7.336

@<SCITEGIC>MOL_PROPERTY
Bond
SciTegic.value.DoubleValue
0.205

@<SCITEGIC>MOL_PROPERTY
Angle
SciTegic.value.DoubleValue
0.962

@<SCITEGIC>MOL_PROPERTY
Pdih
SciTegic.value.DoubleValue
1.434

@<SCITEGIC>MOL_PROPERTY
Idih
SciTegic.value.DoubleValue
0.000

@<SCITEGIC>MOL_PROPERTY
Tether
SciTegic.value.DoubleValue
0.000

@<TRIPOS>MOLECULE
guest-2_confgen4.mol2 : confsearch ligand conformer 540
          23          22           1
SMALL
USER_CHARGES
 
@<TRIPOS>ATOM
       1    N1      19.625565   21.619271   20.951486 N.4        1 MOL1        -0.5940
       2    H1      19.162572   21.816020   20.057682 H          1 MOL1         0.3649
       3    H2      20.478073   22.187942   20.976522 H          1 MOL1         0.3649
       4    H3      19.007719   21.969273   21.690693 H          1 MOL1         0.3649
       5    C1      19.925947   20.143442   21.116831 C.3        1 MOL1         0.0207
       6    H4      20.562020   19.832501   20.283718 H          1 MOL1         0.0950
       7    H5      18.980584   19.598672   21.050146 H          1 MOL1         0.0950
       8    C2      20.621944   19.814344   22.450660 C.3        1 MOL1        -0.1415
       9    H6      21.551132   20.394847   22.523836 H          1 MOL1         0.0976
      10    H7      19.990077   20.137824   23.287640 H          1 MOL1         0.0976
      11    C3      20.960135   18.309539   22.592964 C.3        1 MOL1        -0.1375
      12    H8      21.472256   18.145656   23.550473 H          1 MOL1         0.0976
      13    H9      21.688339   18.034817   21.817362 H          1 MOL1         0.0976
      14    C4      19.740359   17.354743   22.486806 C.3        1 MOL1        -0.1375
      15    H10     19.329334   17.399623   21.469286 H          1 MOL1         0.0976
      16    H11     20.091443   16.321855   22.617388 H          1 MOL1         0.0976
      17    C5      18.599912   17.626673   23.500539 C.3        1 MOL1        -0.1350
      18    H12     17.792843   16.902454   23.322112 H          1 MOL1         0.0976
      19    H13     18.160051   18.616807   23.320890 H          1 MOL1         0.0976
      20    C6      19.050769   17.515542   24.974613 C.3        1 MOL1        -0.2365
      21    H14     19.505919   16.536971   25.175055 H          1 MOL1         0.0987
      22    H15     18.192594   17.631314   25.649131 H          1 MOL1         0.0987
      23    H16     19.780577   18.293214   25.231839 H          1 MOL1         0.0987
@<TRIPOS>BOND
    1     1     2    1
    2     1     3    1
    3     1     4    1
    4     1     5    1
    5     5     6    1
    6     5     7    1
    7     5     8    1
    8     8     9    1
    9     8    10    1
   10     8    11    1
   11    11    12    1
   12    11    13    1
   13    11    14    1
   14    14    15    1
   15    14    16    1
   16    14    17    1
   17    17    18    1
   18    17    19    1
   19    17    20    1
   20    20    21    1
   21    20    22    1
   22    20    23    1
@<TRIPOS>SUBSTRUCTURE
       1 MOL1            1 RESIDUE      1      MOL     
@<SCITEGIC>MOL_PROPERTY
VConf Rank
SciTegic.value.IntegerValue
540

@<SCITEGIC>MOL_PROPERTY
Conf_Id
SciTegic.value.IntegerValue
26

@<SCITEGIC>MOL_PROPERTY
Delta U+W
SciTegic.value.DoubleValue
1.076

@<SCITEGIC>MOL_PROPERTY
U+W
SciTegic.value.DoubleValue
-7.306

@<SCITEGIC>MOL_PROPERTY
Grad RMS
SciTegic.value.DoubleValue
0.000000

@<SCITEGIC>MOL_PROPERTY
U
SciTegic.value.DoubleValue
48.641

@<SCITEGIC>MOL_PROPERTY
W
SciTegic.value.DoubleValue
-55.947

@<SCITEGIC>MOL_PROPERTY
W(PB)
SciTegic.value.DoubleValue
-58.031

@<SCITEGIC>MOL_PROPERTY
W(SA)
SciTegic.value.DoubleValue
2.084

@<SCITEGIC>MOL_PROPERTY
Valence
SciTegic.value.DoubleValue
2.922

@<SCITEGIC>MOL_PROPERTY
Coulomb
SciTegic.value.DoubleValue
45.269

@<SCITEGIC>MOL_PROPERTY
VdW
SciTegic.value.DoubleValue
0.449

@<SCITEGIC>MOL_PROPERTY
VdW6
SciTegic.value.DoubleValue
-7.045

@<SCITEGIC>MOL_PROPERTY
VdW12
SciTegic.value.DoubleValue
7.494

@<SCITEGIC>MOL_PROPERTY
Bond
SciTegic.value.DoubleValue
0.220

@<SCITEGIC>MOL_PROPERTY
Angle
SciTegic.value.DoubleValue
1.205

@<SCITEGIC>MOL_PROPERTY
Pdih
SciTegic.value.DoubleValue
1.497

@<SCITEGIC>MOL_PROPERTY
Idih
SciTegic.value.DoubleValue
0.000

@<SCITEGIC>MOL_PROPERTY
Tether
SciTegic.value.DoubleValue
0.000

@<TRIPOS>MOLECULE
guest-2_confgen4.mol2 : confsearch ligand conformer 541
          23          22           1
SMALL
USER_CHARGES
 
@<TRIPOS>ATOM
       1    N1      22.333302   20.543605   23.650381 N.4        1 MOL1        -0.5940
       2    H1      23.125873   20.567530   23.000733 H          1 MOL1         0.3649
       3    H2      22.722065   20.612420   24.596999 H          1 MOL1         0.3649
       4    H3      21.786145   21.395428   23.490134 H          1 MOL1         0.3649
       5    C1      21.496804   19.292534   23.475088 C.3        1 MOL1         0.0207
       6    H4      20.692990   19.319418   24.215422 H          1 MOL1         0.0950
       7    H5      22.132091   18.428534   23.687839 H          1 MOL1         0.0950
       8    C2      20.897599   19.159466   22.062620 C.3        1 MOL1        -0.1415
       9    H6      20.270059   20.032598   21.842925 H          1 MOL1         0.0976
      10    H7      21.710788   19.171057   21.324841 H          1 MOL1         0.0976
      11    C3      20.076995   17.858338   21.881690 C.3        1 MOL1        -0.1375
      12    H8      20.750684   16.996682   21.986587 H          1 MOL1         0.0976
      13    H9      19.697758   17.813315   20.852076 H          1 MOL1         0.0976
      14    C4      18.897530   17.688230   22.877021 C.3        1 MOL1        -0.1375
      15    H10     18.379286   16.746724   22.648644 H          1 MOL1         0.0976
      16    H11     19.293222   17.567266   23.894419 H          1 MOL1         0.0976
      17    C5      17.862072   18.841507   22.875735 C.3        1 MOL1        -0.1350
      18    H12     18.334778   19.776808   23.204189 H          1 MOL1         0.0976
      19    H13     17.087785   18.617643   23.622767 H          1 MOL1         0.0976
      20    C6      17.182808   19.053771   21.503852 C.3        1 MOL1        -0.2365
      21    H14     17.902495   19.386961   20.745832 H          1 MOL1         0.0987
      22    H15     16.400408   19.820202   21.576473 H          1 MOL1         0.0987
      23    H16     16.713439   18.127230   21.148668 H          1 MOL1         0.0987
@<TRIPOS>BOND
    1     1     2    1
    2     1     3    1
    3     1     4    1
    4     1     5    1
    5     5     6    1
    6     5     7    1
    7     5     8    1
    8     8     9    1
    9     8    10    1
   10     8    11    1
   11    11    12    1
   12    11    13    1
   13    11    14    1
   14    14    15    1
   15    14    16    1
   16    14    17    1
   17    17    18    1
   18    17    19    1
   19    17    20    1
   20    20    21    1
   21    20    22    1
   22    20    23    1
@<TRIPOS>SUBSTRUCTURE
       1 MOL1            1 RESIDUE      1      MOL     
@<SCITEGIC>MOL_PROPERTY
VConf Rank
SciTegic.value.IntegerValue
541

@<SCITEGIC>MOL_PROPERTY
Conf_Id
SciTegic.value.IntegerValue
90

@<SCITEGIC>MOL_PROPERTY
Delta U+W
SciTegic.value.DoubleValue
1.131

@<SCITEGIC>MOL_PROPERTY
U+W
SciTegic.value.DoubleValue
-7.251

@<SCITEGIC>MOL_PROPERTY
Grad RMS
SciTegic.value.DoubleValue
0.000000

@<SCITEGIC>MOL_PROPERTY
U
SciTegic.value.DoubleValue
48.641

@<SCITEGIC>MOL_PROPERTY
W
SciTegic.value.DoubleValue
-55.892

@<SCITEGIC>MOL_PROPERTY
W(PB)
SciTegic.value.DoubleValue
-57.962

@<SCITEGIC>MOL_PROPERTY
W(SA)
SciTegic.value.DoubleValue
2.070

@<SCITEGIC>MOL_PROPERTY
Valence
SciTegic.value.DoubleValue
2.922

@<SCITEGIC>MOL_PROPERTY
Coulomb
SciTegic.value.DoubleValue
45.269

@<SCITEGIC>MOL_PROPERTY
VdW
SciTegic.value.DoubleValue
0.450

@<SCITEGIC>MOL_PROPERTY
VdW6
SciTegic.value.DoubleValue
-7.045

@<SCITEGIC>MOL_PROPERTY
VdW12
SciTegic.value.DoubleValue
7.495

@<SCITEGIC>MOL_PROPERTY
Bond
SciTegic.value.DoubleValue
0.220

@<SCITEGIC>MOL_PROPERTY
Angle
SciTegic.value.DoubleValue
1.205

@<SCITEGIC>MOL_PROPERTY
Pdih
SciTegic.value.DoubleValue
1.497

@<SCITEGIC>MOL_PROPERTY
Idih
SciTegic.value.DoubleValue
0.000

@<SCITEGIC>MOL_PROPERTY
Tether
SciTegic.value.DoubleValue
0.000

@<TRIPOS>MOLECULE
guest-2_confgen4.mol2 : confsearch ligand conformer 542
          23          22           1
SMALL
USER_CHARGES
 
@<TRIPOS>ATOM
       1    N1      19.962079   21.579758   22.442580 N.4        1 MOL1        -0.5940
       2    H1      19.340746   22.347059   22.165009 H          1 MOL1         0.3649
       3    H2      19.996887   20.921500   21.658291 H          1 MOL1         0.3649
       4    H3      20.900796   21.977861   22.546970 H          1 MOL1         0.3649
       5    C1      19.491315   20.906544   23.716769 C.3        1 MOL1         0.0207
       6    H4      18.477939   20.533164   23.548325 H          1 MOL1         0.0950
       7    H5      19.445753   21.669101   24.499042 H          1 MOL1         0.0950
       8    C2      20.402317   19.751583   24.180483 C.3        1 MOL1        -0.1415
       9    H6      21.404747   20.146814   24.391945 H          1 MOL1         0.0976
      10    H7      20.019913   19.362458   25.133475 H          1 MOL1         0.0976
      11    C3      20.513836   18.589521   23.161780 C.3        1 MOL1        -0.1375
      12    H8      21.191049   17.828001   23.572364 H          1 MOL1         0.0976
      13    H9      20.986089   18.954172   22.240850 H          1 MOL1         0.0976
      14    C4      19.147838   17.933116   22.838276 C.3        1 MOL1        -0.1375
      15    H10     18.653682   17.652293   23.778604 H          1 MOL1         0.0976
      16    H11     18.486258   18.657871   22.345352 H          1 MOL1         0.0976
      17    C5      19.268534   16.671136   21.950452 C.3        1 MOL1        -0.1350
      18    H12     18.275791   16.208880   21.857631 H          1 MOL1         0.0976
      19    H13     19.908372   15.927438   22.445730 H          1 MOL1         0.0976
      20    C6      19.814584   16.966938   20.535013 C.3        1 MOL1        -0.2365
      21    H14     19.207014   17.727796   20.028169 H          1 MOL1         0.0987
      22    H15     19.796334   16.058543   19.919040 H          1 MOL1         0.0987
      23    H16     20.852375   17.320857   20.568796 H          1 MOL1         0.0987
@<TRIPOS>BOND
    1     1     2    1
    2     1     3    1
    3     1     4    1
    4     1     5    1
    5     5     6    1
    6     5     7    1
    7     5     8    1
    8     8     9    1
    9     8    10    1
   10     8    11    1
   11    11    12    1
   12    11    13    1
   13    11    14    1
   14    14    15    1
   15    14    16    1
   16    14    17    1
   17    17    18    1
   18    17    19    1
   19    17    20    1
   20    20    21    1
   21    20    22    1
   22    20    23    1
@<TRIPOS>SUBSTRUCTURE
       1 MOL1            1 RESIDUE      1      MOL     
@<SCITEGIC>MOL_PROPERTY
VConf Rank
SciTegic.value.IntegerValue
542

@<SCITEGIC>MOL_PROPERTY
Conf_Id
SciTegic.value.IntegerValue
85

@<SCITEGIC>MOL_PROPERTY
Delta U+W
SciTegic.value.DoubleValue
1.193

@<SCITEGIC>MOL_PROPERTY
U+W
SciTegic.value.DoubleValue
-7.189

@<SCITEGIC>MOL_PROPERTY
Grad RMS
SciTegic.value.DoubleValue
0.000000

@<SCITEGIC>MOL_PROPERTY
U
SciTegic.value.DoubleValue
48.775

@<SCITEGIC>MOL_PROPERTY
W
SciTegic.value.DoubleValue
-55.965

@<SCITEGIC>MOL_PROPERTY
W(PB)
SciTegic.value.DoubleValue
-58.038

@<SCITEGIC>MOL_PROPERTY
W(SA)
SciTegic.value.DoubleValue
2.073

@<SCITEGIC>MOL_PROPERTY
Valence
SciTegic.value.DoubleValue
2.602

@<SCITEGIC>MOL_PROPERTY
Coulomb
SciTegic.value.DoubleValue
45.581

@<SCITEGIC>MOL_PROPERTY
VdW
SciTegic.value.DoubleValue
0.592

@<SCITEGIC>MOL_PROPERTY
VdW6
SciTegic.value.DoubleValue
-6.616

@<SCITEGIC>MOL_PROPERTY
VdW12
SciTegic.value.DoubleValue
7.208

@<SCITEGIC>MOL_PROPERTY
Bond
SciTegic.value.DoubleValue
0.196

@<SCITEGIC>MOL_PROPERTY
Angle
SciTegic.value.DoubleValue
0.832

@<SCITEGIC>MOL_PROPERTY
Pdih
SciTegic.value.DoubleValue
1.574

@<SCITEGIC>MOL_PROPERTY
Idih
SciTegic.value.DoubleValue
0.000

@<SCITEGIC>MOL_PROPERTY
Tether
SciTegic.value.DoubleValue
0.000

@<TRIPOS>MOLECULE
guest-2_confgen4.mol2 : confsearch ligand conformer 543
          23          22           1
SMALL
USER_CHARGES
 
@<TRIPOS>ATOM
       1    N1      20.800536   20.519838   23.331083 N.4        1 MOL1        -0.5940
       2    H1      20.949073   19.827170   22.590260 H          1 MOL1         0.3649
       3    H2      21.662079   20.566160   23.885972 H          1 MOL1         0.3649
       4    H3      20.687520   21.432674   22.878344 H          1 MOL1         0.3649
       5    C1      19.598998   20.165014   24.185523 C.3        1 MOL1         0.0207
       6    H4      19.506117   20.945438   24.945670 H          1 MOL1         0.0950
       7    H5      19.798224   19.218109   24.694256 H          1 MOL1         0.0950
       8    C2      18.276074   20.068991   23.398524 C.3        1 MOL1        -0.1415
       9    H6      17.452785   20.210093   24.111352 H          1 MOL1         0.0976
      10    H7      18.204093   20.905143   22.690328 H          1 MOL1         0.0976
      11    C3      18.039604   18.722876   22.662205 C.3        1 MOL1        -0.1375
      12    H8      17.045776   18.773792   22.196137 H          1 MOL1         0.0976
      13    H9      17.980170   17.902343   23.390673 H          1 MOL1         0.0976
      14    C4      19.071162   18.381713   21.556422 C.3        1 MOL1        -0.1375
      15    H10     18.546755   17.874214   20.734728 H          1 MOL1         0.0976
      16    H11     19.479401   19.303506   21.121262 H          1 MOL1         0.0976
      17    C5      20.203321   17.446324   22.046691 C.3        1 MOL1        -0.1350
      18    H12     19.775162   16.471002   22.317913 H          1 MOL1         0.0976
      19    H13     20.670105   17.835227   22.959459 H          1 MOL1         0.0976
      20    C6      21.283782   17.241933   20.963799 C.3        1 MOL1        -0.2365
      21    H14     20.852092   16.802425   20.055039 H          1 MOL1         0.0987
      22    H15     22.069571   16.564908   21.323453 H          1 MOL1         0.0987
      23    H16     21.758405   18.192944   20.689799 H          1 MOL1         0.0987
@<TRIPOS>BOND
    1     1     2    1
    2     1     3    1
    3     1     4    1
    4     1     5    1
    5     5     6    1
    6     5     7    1
    7     5     8    1
    8     8     9    1
    9     8    10    1
   10     8    11    1
   11    11    12    1
   12    11    13    1
   13    11    14    1
   14    14    15    1
   15    14    16    1
   16    14    17    1
   17    17    18    1
   18    17    19    1
   19    17    20    1
   20    20    21    1
   21    20    22    1
   22    20    23    1
@<TRIPOS>SUBSTRUCTURE
       1 MOL1            1 RESIDUE      1      MOL     
@<SCITEGIC>MOL_PROPERTY
VConf Rank
SciTegic.value.IntegerValue
543

@<SCITEGIC>MOL_PROPERTY
Conf_Id
SciTegic.value.IntegerValue
82

@<SCITEGIC>MOL_PROPERTY
Delta U+W
SciTegic.value.DoubleValue
5.994

@<SCITEGIC>MOL_PROPERTY
U+W
SciTegic.value.DoubleValue
-2.388

@<SCITEGIC>MOL_PROPERTY
Grad RMS
SciTegic.value.DoubleValue
0.000000

@<SCITEGIC>MOL_PROPERTY
U
SciTegic.value.DoubleValue
52.836

@<SCITEGIC>MOL_PROPERTY
W
SciTegic.value.DoubleValue
-55.224

@<SCITEGIC>MOL_PROPERTY
W(PB)
SciTegic.value.DoubleValue
-57.261

@<SCITEGIC>MOL_PROPERTY
W(SA)
SciTegic.value.DoubleValue
2.037

@<SCITEGIC>MOL_PROPERTY
Valence
SciTegic.value.DoubleValue
5.785

@<SCITEGIC>MOL_PROPERTY
Coulomb
SciTegic.value.DoubleValue
46.744

@<SCITEGIC>MOL_PROPERTY
VdW
SciTegic.value.DoubleValue
0.307

@<SCITEGIC>MOL_PROPERTY
VdW6
SciTegic.value.DoubleValue
-7.672

@<SCITEGIC>MOL_PROPERTY
VdW12
SciTegic.value.DoubleValue
7.979

@<SCITEGIC>MOL_PROPERTY
Bond
SciTegic.value.DoubleValue
0.217

@<SCITEGIC>MOL_PROPERTY
Angle
SciTegic.value.DoubleValue
1.470

@<SCITEGIC>MOL_PROPERTY
Pdih
SciTegic.value.DoubleValue
4.098

@<SCITEGIC>MOL_PROPERTY
Idih
SciTegic.value.DoubleValue
0.000

@<SCITEGIC>MOL_PROPERTY
Tether
SciTegic.value.DoubleValue
0.000

@<TRIPOS>MOLECULE
guest-2_confgen4.mol2 : confsearch ligand conformer 544
          23          22           1
SMALL
USER_CHARGES
 
@<TRIPOS>ATOM
       1    N1      19.792304   18.221183   20.636478 N.4        1 MOL1        -0.5940
       2    H1      19.800086   18.891620   19.860934 H          1 MOL1         0.3649
       3    H2      20.052982   17.309240   20.245700 H          1 MOL1         0.3649
       4    H3      20.532743   18.499035   21.288569 H          1 MOL1         0.3649
       5    C1      18.441157   18.173887   21.323369 C.3        1 MOL1         0.0207
       6    H4      18.467729   17.400807   22.095878 H          1 MOL1         0.0950
       7    H5      17.709453   17.873859   20.568318 H          1 MOL1         0.0950
       8    C2      18.004390   19.517726   21.941470 C.3        1 MOL1        -0.1415
       9    H6      18.224067   20.336194   21.243098 H          1 MOL1         0.0976
      10    H7      16.911241   19.498275   22.043876 H          1 MOL1         0.0976
      11    C3      18.605471   19.830863   23.338167 C.3        1 MOL1        -0.1375
      12    H8      18.273197   19.078347   24.066715 H          1 MOL1         0.0976
      13    H9      18.169298   20.780530   23.677860 H          1 MOL1         0.0976
      14    C4      20.148924   19.969690   23.379919 C.3        1 MOL1        -0.1375
      15    H10     20.524096   20.324370   22.410810 H          1 MOL1         0.0976
      16    H11     20.409078   20.755445   24.102862 H          1 MOL1         0.0976
      17    C5      20.866412   18.668310   23.814343 C.3        1 MOL1        -0.1350
      18    H12     20.531483   17.813226   23.215228 H          1 MOL1         0.0976
      19    H13     20.594577   18.434577   24.853385 H          1 MOL1         0.0976
      20    C6      22.400497   18.800119   23.709301 C.3        1 MOL1        -0.2365
      21    H14     22.713458   19.001729   22.676743 H          1 MOL1         0.0987
      22    H15     22.892136   17.874284   24.035340 H          1 MOL1         0.0987
      23    H16     22.769664   19.617271   24.342820 H          1 MOL1         0.0987
@<TRIPOS>BOND
    1     1     2    1
    2     1     3    1
    3     1     4    1
    4     1     5    1
    5     5     6    1
    6     5     7    1
    7     5     8    1
    8     8     9    1
    9     8    10    1
   10     8    11    1
   11    11    12    1
   12    11    13    1
   13    11    14    1
   14    14    15    1
   15    14    16    1
   16    14    17    1
   17    17    18    1
   18    17    19    1
   19    17    20    1
   20    20    21    1
   21    20    22    1
   22    20    23    1
@<TRIPOS>SUBSTRUCTURE
       1 MOL1            1 RESIDUE      1      MOL     
@<SCITEGIC>MOL_PROPERTY
VConf Rank
SciTegic.value.IntegerValue
544

@<SCITEGIC>MOL_PROPERTY
Conf_Id
SciTegic.value.IntegerValue
5

@<SCITEGIC>MOL_PROPERTY
Delta U+W
SciTegic.value.DoubleValue
6.087

@<SCITEGIC>MOL_PROPERTY
U+W
SciTegic.value.DoubleValue
-2.295

@<SCITEGIC>MOL_PROPERTY
Grad RMS
SciTegic.value.DoubleValue
0.000000

@<SCITEGIC>MOL_PROPERTY
U
SciTegic.value.DoubleValue
52.836

@<SCITEGIC>MOL_PROPERTY
W
SciTegic.value.DoubleValue
-55.131

@<SCITEGIC>MOL_PROPERTY
W(PB)
SciTegic.value.DoubleValue
-57.202

@<SCITEGIC>MOL_PROPERTY
W(SA)
SciTegic.value.DoubleValue
2.071

@<SCITEGIC>MOL_PROPERTY
Valence
SciTegic.value.DoubleValue
5.785

@<SCITEGIC>MOL_PROPERTY
Coulomb
SciTegic.value.DoubleValue
46.744

@<SCITEGIC>MOL_PROPERTY
VdW
SciTegic.value.DoubleValue
0.307

@<SCITEGIC>MOL_PROPERTY
VdW6
SciTegic.value.DoubleValue
-7.672

@<SCITEGIC>MOL_PROPERTY
VdW12
SciTegic.value.DoubleValue
7.980

@<SCITEGIC>MOL_PROPERTY
Bond
SciTegic.value.DoubleValue
0.217

@<SCITEGIC>MOL_PROPERTY
Angle
SciTegic.value.DoubleValue
1.470

@<SCITEGIC>MOL_PROPERTY
Pdih
SciTegic.value.DoubleValue
4.098

@<SCITEGIC>MOL_PROPERTY
Idih
SciTegic.value.DoubleValue
0.000

@<SCITEGIC>MOL_PROPERTY
Tether
SciTegic.value.DoubleValue
0.000

@<TRIPOS>MOLECULE
guest-2_confgen4.mol2 : confsearch ligand conformer 545
          23          22           1
SMALL
USER_CHARGES
 
@<TRIPOS>ATOM
       1    N1      23.577014   19.248154   22.138156 N.4        1 MOL1        -0.5940
       2    H1      23.787273   19.580324   23.084907 H          1 MOL1         0.3649
       3    H2      24.265333   19.679091   21.511575 H          1 MOL1         0.3649
       4    H3      23.754708   18.238615   22.126356 H          1 MOL1         0.3649
       5    C1      22.156691   19.577369   21.725604 C.3        1 MOL1         0.0207
       6    H4      22.012033   19.223062   20.701380 H          1 MOL1         0.0950
       7    H5      22.047062   20.665230   21.731650 H          1 MOL1         0.0950
       8    C2      21.098431   18.944944   22.646854 C.3        1 MOL1        -0.1415
       9    H6      21.222729   17.853781   22.650306 H          1 MOL1         0.0976
      10    H7      21.257711   19.290784   23.676963 H          1 MOL1         0.0976
      11    C3      19.666251   19.304118   22.192937 C.3        1 MOL1        -0.1375
      12    H8      19.512661   18.961211   21.160161 H          1 MOL1         0.0976
      13    H9      19.547604   20.396671   22.185776 H          1 MOL1         0.0976
      14    C4      18.594853   18.673854   23.111564 C.3        1 MOL1        -0.1375
      15    H10     18.713262   17.581407   23.118719 H          1 MOL1         0.0976
      16    H11     18.748276   19.016638   24.144266 H          1 MOL1         0.0976
      17    C5      17.162639   19.033342   22.657371 C.3        1 MOL1        -0.1350
      18    H12     17.003359   18.690256   21.625434 H          1 MOL1         0.0976
      19    H13     17.038370   20.125353   22.650904 H          1 MOL1         0.0976
      20    C6      16.095602   18.402257   23.576976 C.3        1 MOL1        -0.2365
      21    H14     15.085798   18.668578   23.238725 H          1 MOL1         0.0987
      22    H15     16.207969   18.753449   24.611029 H          1 MOL1         0.0987
      23    H16     16.172702   17.307139   23.577570 H          1 MOL1         0.0987
@<TRIPOS>BOND
    1     1     2    1
    2     1     3    1
    3     1     4    1
    4     1     5    1
    5     5     6    1
    6     5     7    1
    7     5     8    1
    8     8     9    1
    9     8    10    1
   10     8    11    1
   11    11    12    1
   12    11    13    1
   13    11    14    1
   14    14    15    1
   15    14    16    1
   16    14    17    1
   17    17    18    1
   18    17    19    1
   19    17    20    1
   20    20    21    1
   21    20    22    1
   22    20    23    1
@<TRIPOS>SUBSTRUCTURE
       1 MOL1            1 RESIDUE      1      MOL     
@<SCITEGIC>MOL_PROPERTY
VConf Rank
SciTegic.value.IntegerValue
545

@<SCITEGIC>MOL_PROPERTY
Conf_Id
SciTegic.value.IntegerValue
40

@<SCITEGIC>MOL_PROPERTY
Delta U+W
SciTegic.value.DoubleValue
0.000

@<SCITEGIC>MOL_PROPERTY
U+W
SciTegic.value.DoubleValue
-8.382

@<SCITEGIC>MOL_PROPERTY
Grad RMS
SciTegic.value.DoubleValue
0.000000

@<SCITEGIC>MOL_PROPERTY
U
SciTegic.value.DoubleValue
46.604

@<SCITEGIC>MOL_PROPERTY
W
SciTegic.value.DoubleValue
-54.986

@<SCITEGIC>MOL_PROPERTY
W(PB)
SciTegic.value.DoubleValue
-57.162

@<SCITEGIC>MOL_PROPERTY
W(SA)
SciTegic.value.DoubleValue
2.176

@<SCITEGIC>MOL_PROPERTY
Valence
SciTegic.value.DoubleValue
1.727

@<SCITEGIC>MOL_PROPERTY
Coulomb
SciTegic.value.DoubleValue
44.434

@<SCITEGIC>MOL_PROPERTY
VdW
SciTegic.value.DoubleValue
0.443

@<SCITEGIC>MOL_PROPERTY
VdW6
SciTegic.value.DoubleValue
-4.623

@<SCITEGIC>MOL_PROPERTY
VdW12
SciTegic.value.DoubleValue
5.066

@<SCITEGIC>MOL_PROPERTY
Bond
SciTegic.value.DoubleValue
0.112

@<SCITEGIC>MOL_PROPERTY
Angle
SciTegic.value.DoubleValue
0.386

@<SCITEGIC>MOL_PROPERTY
Pdih
SciTegic.value.DoubleValue
1.228

@<SCITEGIC>MOL_PROPERTY
Idih
SciTegic.value.DoubleValue
0.000

@<SCITEGIC>MOL_PROPERTY
Tether
SciTegic.value.DoubleValue
0.000

@<TRIPOS>MOLECULE
guest-2_confgen4.mol2 : confsearch ligand conformer 546
          23          22           1
SMALL
USER_CHARGES
 
@<TRIPOS>ATOM
       1    N1      19.871931   22.592934   22.570772 N.4        1 MOL1        -0.5940
       2    H1      20.669809   22.919205   22.015994 H          1 MOL1         0.3649
       3    H2      20.118086   22.721631   23.557523 H          1 MOL1         0.3649
       4    H3      19.091724   23.228641   22.372830 H          1 MOL1         0.3649
       5    C1      19.517842   21.152978   22.259433 C.3        1 MOL1         0.0207
       6    H4      19.239675   21.094538   21.203678 H          1 MOL1         0.0950
       7    H5      18.645261   20.885368   22.860686 H          1 MOL1         0.0950
       8    C2      20.670937   20.172578   22.546347 C.3        1 MOL1        -0.1415
       9    H6      21.554303   20.482049   21.972031 H          1 MOL1         0.0976
      10    H7      20.949956   20.229970   23.606931 H          1 MOL1         0.0976
      11    C3      20.321720   18.710864   22.178837 C.3        1 MOL1        -0.1375
      12    H8      21.225365   18.100305   22.303754 H          1 MOL1         0.0976
      13    H9      20.052385   18.654959   21.115021 H          1 MOL1         0.0976
      14    C4      19.174790   18.124390   23.040912 C.3        1 MOL1        -0.1375
      15    H10     19.453421   18.161496   24.103084 H          1 MOL1         0.0976
      16    H11     18.278611   18.749755   22.934661 H          1 MOL1         0.0976
      17    C5      18.796368   16.673080   22.657474 C.3        1 MOL1        -0.1350
      18    H12     18.506537   16.631812   21.598185 H          1 MOL1         0.0976
      19    H13     17.906188   16.378552   23.230802 H          1 MOL1         0.0976
      20    C6      19.922417   15.649563   22.929168 C.3        1 MOL1        -0.2365
      21    H14     20.792665   15.825698   22.285040 H          1 MOL1         0.0987
      22    H15     19.569000   14.629061   22.732654 H          1 MOL1         0.0987
      23    H16     20.253006   15.694247   23.974981 H          1 MOL1         0.0987
@<TRIPOS>BOND
    1     1     2    1
    2     1     3    1
    3     1     4    1
    4     1     5    1
    5     5     6    1
    6     5     7    1
    7     5     8    1
    8     8     9    1
    9     8    10    1
   10     8    11    1
   11    11    12    1
   12    11    13    1
   13    11    14    1
   14    14    15    1
   15    14    16    1
   16    14    17    1
   17    17    18    1
   18    17    19    1
   19    17    20    1
   20    20    21    1
   21    20    22    1
   22    20    23    1
@<TRIPOS>SUBSTRUCTURE
       1 MOL1            1 RESIDUE      1      MOL     
@<SCITEGIC>MOL_PROPERTY
VConf Rank
SciTegic.value.IntegerValue
546

@<SCITEGIC>MOL_PROPERTY
Conf_Id
SciTegic.value.IntegerValue
65

@<SCITEGIC>MOL_PROPERTY
Delta U+W
SciTegic.value.DoubleValue
1.004

@<SCITEGIC>MOL_PROPERTY
U+W
SciTegic.value.DoubleValue
-7.378

@<SCITEGIC>MOL_PROPERTY
Grad RMS
SciTegic.value.DoubleValue
0.000000

@<SCITEGIC>MOL_PROPERTY
U
SciTegic.value.DoubleValue
48.047

@<SCITEGIC>MOL_PROPERTY
W
SciTegic.value.DoubleValue
-55.425

@<SCITEGIC>MOL_PROPERTY
W(PB)
SciTegic.value.DoubleValue
-57.542

@<SCITEGIC>MOL_PROPERTY
W(SA)
SciTegic.value.DoubleValue
2.116

@<SCITEGIC>MOL_PROPERTY
Valence
SciTegic.value.DoubleValue
2.583

@<SCITEGIC>MOL_PROPERTY
Coulomb
SciTegic.value.DoubleValue
44.791

@<SCITEGIC>MOL_PROPERTY
VdW
SciTegic.value.DoubleValue
0.673

@<SCITEGIC>MOL_PROPERTY
VdW6
SciTegic.value.DoubleValue
-5.788

@<SCITEGIC>MOL_PROPERTY
VdW12
SciTegic.value.DoubleValue
6.462

@<SCITEGIC>MOL_PROPERTY
Bond
SciTegic.value.DoubleValue
0.177

@<SCITEGIC>MOL_PROPERTY
Angle
SciTegic.value.DoubleValue
0.787

@<SCITEGIC>MOL_PROPERTY
Pdih
SciTegic.value.DoubleValue
1.619

@<SCITEGIC>MOL_PROPERTY
Idih
SciTegic.value.DoubleValue
0.000

@<SCITEGIC>MOL_PROPERTY
Tether
SciTegic.value.DoubleValue
0.000

@<TRIPOS>MOLECULE
guest-2_confgen4.mol2 : confsearch ligand conformer 547
          23          22           1
SMALL
USER_CHARGES
 
@<TRIPOS>ATOM
       1    N1      19.622446   15.697825   23.919400 N.4        1 MOL1        -0.5940
       2    H1      19.830194   15.700681   24.923229 H          1 MOL1         0.3649
       3    H2      20.068856   14.862718   23.525265 H          1 MOL1         0.3649
       4    H3      18.610220   15.568882   23.821396 H          1 MOL1         0.3649
       5    C1      20.099499   16.965167   23.239666 C.3        1 MOL1         0.0207
       6    H4      19.873889   16.878544   22.173779 H          1 MOL1         0.0950
       7    H5      21.184808   17.023766   23.358327 H          1 MOL1         0.0950
       8    C2      19.446501   18.238351   23.810396 C.3        1 MOL1        -0.1415
       9    H6      18.356434   18.180570   23.690400 H          1 MOL1         0.0976
      10    H7      19.641472   18.286709   24.890023 H          1 MOL1         0.0976
      11    C3      19.974737   19.532778   23.147793 C.3        1 MOL1        -0.1375
      12    H8      21.064150   19.592691   23.278017 H          1 MOL1         0.0976
      13    H9      19.549389   20.391019   23.683950 H          1 MOL1         0.0976
      14    C4      19.621036   19.633249   21.642013 C.3        1 MOL1        -0.1375
      15    H10     20.025726   18.761852   21.110601 H          1 MOL1         0.0976
      16    H11     18.530464   19.594182   21.514153 H          1 MOL1         0.0976
      17    C5      20.174407   20.909787   20.963226 C.3        1 MOL1        -0.1350
      18    H12     19.982404   20.845157   19.883027 H          1 MOL1         0.0976
      19    H13     21.266605   20.948848   21.078884 H          1 MOL1         0.0976
      20    C6      19.547064   22.216053   21.501275 C.3        1 MOL1        -0.2365
      21    H14     19.816922   22.391945   22.549843 H          1 MOL1         0.0987
      22    H15     18.452193   22.188254   21.427154 H          1 MOL1         0.0987
      23    H16     19.900477   23.078626   20.921608 H          1 MOL1         0.0987
@<TRIPOS>BOND
    1     1     2    1
    2     1     3    1
    3     1     4    1
    4     1     5    1
    5     5     6    1
    6     5     7    1
    7     5     8    1
    8     8     9    1
    9     8    10    1
   10     8    11    1
   11    11    12    1
   12    11    13    1
   13    11    14    1
   14    14    15    1
   15    14    16    1
   16    14    17    1
   17    17    18    1
   18    17    19    1
   19    17    20    1
   20    20    21    1
   21    20    22    1
   22    20    23    1
@<TRIPOS>SUBSTRUCTURE
       1 MOL1            1 RESIDUE      1      MOL     
@<SCITEGIC>MOL_PROPERTY
VConf Rank
SciTegic.value.IntegerValue
547

@<SCITEGIC>MOL_PROPERTY
Conf_Id
SciTegic.value.IntegerValue
92

@<SCITEGIC>MOL_PROPERTY
Delta U+W
SciTegic.value.DoubleValue
0.973

@<SCITEGIC>MOL_PROPERTY
U+W
SciTegic.value.DoubleValue
-7.409

@<SCITEGIC>MOL_PROPERTY
Grad RMS
SciTegic.value.DoubleValue
0.000000

@<SCITEGIC>MOL_PROPERTY
U
SciTegic.value.DoubleValue
48.047

@<SCITEGIC>MOL_PROPERTY
W
SciTegic.value.DoubleValue
-55.456

@<SCITEGIC>MOL_PROPERTY
W(PB)
SciTegic.value.DoubleValue
-57.595

@<SCITEGIC>MOL_PROPERTY
W(SA)
SciTegic.value.DoubleValue
2.138

@<SCITEGIC>MOL_PROPERTY
Valence
SciTegic.value.DoubleValue
2.583

@<SCITEGIC>MOL_PROPERTY
Coulomb
SciTegic.value.DoubleValue
44.791

@<SCITEGIC>MOL_PROPERTY
VdW
SciTegic.value.DoubleValue
0.674

@<SCITEGIC>MOL_PROPERTY
VdW6
SciTegic.value.DoubleValue
-5.789

@<SCITEGIC>MOL_PROPERTY
VdW12
SciTegic.value.DoubleValue
6.462

@<SCITEGIC>MOL_PROPERTY
Bond
SciTegic.value.DoubleValue
0.177

@<SCITEGIC>MOL_PROPERTY
Angle
SciTegic.value.DoubleValue
0.787

@<SCITEGIC>MOL_PROPERTY
Pdih
SciTegic.value.DoubleValue
1.619

@<SCITEGIC>MOL_PROPERTY
Idih
SciTegic.value.DoubleValue
0.000

@<SCITEGIC>MOL_PROPERTY
Tether
SciTegic.value.DoubleValue
0.000

@<TRIPOS>MOLECULE
guest-2_confgen4.mol2 : confsearch ligand conformer 548
          23          22           1
SMALL
USER_CHARGES
 
@<TRIPOS>ATOM
       1    N1      17.892278   16.557596   24.398906 N.4        1 MOL1        -0.5940
       2    H1      18.292689   15.641185   24.626711 H          1 MOL1         0.3649
       3    H2      16.931933   16.392025   24.080821 H          1 MOL1         0.3649
       4    H3      17.832593   17.083212   25.276975 H          1 MOL1         0.3649
       5    C1      18.714887   17.288274   23.357176 C.3        1 MOL1         0.0207
       6    H4      18.760465   16.661452   22.462505 H          1 MOL1         0.0950
       7    H5      19.728563   17.401898   23.749914 H          1 MOL1         0.0950
       8    C2      18.138436   18.669591   22.993139 C.3        1 MOL1        -0.1415
       9    H6      17.105202   18.545874   22.642329 H          1 MOL1         0.0976
      10    H7      18.091912   19.298832   23.891965 H          1 MOL1         0.0976
      11    C3      18.958006   19.389515   21.896304 C.3        1 MOL1        -0.1375
      12    H8      18.440014   20.319232   21.622878 H          1 MOL1         0.0976
      13    H9      18.981192   18.768963   20.989647 H          1 MOL1         0.0976
      14    C4      20.403343   19.723465   22.337824 C.3        1 MOL1        -0.1375
      15    H10     20.377154   20.315992   23.262834 H          1 MOL1         0.0976
      16    H11     20.949080   18.798578   22.567635 H          1 MOL1         0.0976
      17    C5      21.169765   20.505806   21.248185 C.3        1 MOL1        -0.1350
      18    H12     20.636594   21.438415   21.015956 H          1 MOL1         0.0976
      19    H13     21.198415   19.917723   20.320114 H          1 MOL1         0.0976
      20    C6      22.611459   20.837115   21.688998 C.3        1 MOL1        -0.2365
      21    H14     22.614699   21.453730   22.597295 H          1 MOL1         0.0987
      22    H15     23.139133   21.392707   20.902917 H          1 MOL1         0.0987
      23    H16     23.181586   19.921850   21.895068 H          1 MOL1         0.0987
@<TRIPOS>BOND
    1     1     2    1
    2     1     3    1
    3     1     4    1
    4     1     5    1
    5     5     6    1
    6     5     7    1
    7     5     8    1
    8     8     9    1
    9     8    10    1
   10     8    11    1
   11    11    12    1
   12    11    13    1
   13    11    14    1
   14    14    15    1
   15    14    16    1
   16    14    17    1
   17    17    18    1
   18    17    19    1
   19    17    20    1
   20    20    21    1
   21    20    22    1
   22    20    23    1
@<TRIPOS>SUBSTRUCTURE
       1 MOL1            1 RESIDUE      1      MOL     
@<SCITEGIC>MOL_PROPERTY
VConf Rank
SciTegic.value.IntegerValue
548

@<SCITEGIC>MOL_PROPERTY
Conf_Id
SciTegic.value.IntegerValue
42

@<SCITEGIC>MOL_PROPERTY
Delta U+W
SciTegic.value.DoubleValue
0.365

@<SCITEGIC>MOL_PROPERTY
U+W
SciTegic.value.DoubleValue
-8.017

@<SCITEGIC>MOL_PROPERTY
Grad RMS
SciTegic.value.DoubleValue
0.000000

@<SCITEGIC>MOL_PROPERTY
U
SciTegic.value.DoubleValue
47.375

@<SCITEGIC>MOL_PROPERTY
W
SciTegic.value.DoubleValue
-55.392

@<SCITEGIC>MOL_PROPERTY
W(PB)
SciTegic.value.DoubleValue
-57.543

@<SCITEGIC>MOL_PROPERTY
W(SA)
SciTegic.value.DoubleValue
2.152

@<SCITEGIC>MOL_PROPERTY
Valence
SciTegic.value.DoubleValue
2.032

@<SCITEGIC>MOL_PROPERTY
Coulomb
SciTegic.value.DoubleValue
44.843

@<SCITEGIC>MOL_PROPERTY
VdW
SciTegic.value.DoubleValue
0.499

@<SCITEGIC>MOL_PROPERTY
VdW6
SciTegic.value.DoubleValue
-5.218

@<SCITEGIC>MOL_PROPERTY
VdW12
SciTegic.value.DoubleValue
5.717

@<SCITEGIC>MOL_PROPERTY
Bond
SciTegic.value.DoubleValue
0.135

@<SCITEGIC>MOL_PROPERTY
Angle
SciTegic.value.DoubleValue
0.514

@<SCITEGIC>MOL_PROPERTY
Pdih
SciTegic.value.DoubleValue
1.383

@<SCITEGIC>MOL_PROPERTY
Idih
SciTegic.value.DoubleValue
0.000

@<SCITEGIC>MOL_PROPERTY
Tether
SciTegic.value.DoubleValue
0.000

@<TRIPOS>MOLECULE
guest-2_confgen4.mol2 : confsearch ligand conformer 549
          23          22           1
SMALL
USER_CHARGES
 
@<TRIPOS>ATOM
       1    N1      17.497782   17.008876   21.581517 N.4        1 MOL1        -0.5940
       2    H1      16.864093   17.231187   22.355888 H          1 MOL1         0.3649
       3    H2      17.157296   16.139507   21.156998 H          1 MOL1         0.3649
       4    H3      17.388796   17.746974   20.879567 H          1 MOL1         0.3649
       5    C1      18.935130   16.881886   22.047872 C.3        1 MOL1         0.0207
       6    H4      19.551698   16.621853   21.183206 H          1 MOL1         0.0950
       7    H5      18.979177   16.052425   22.758947 H          1 MOL1         0.0950
       8    C2      19.488864   18.155496   22.716100 C.3        1 MOL1        -0.1415
       9    H6      18.852124   18.430274   23.567399 H          1 MOL1         0.0976
      10    H7      20.480046   17.917435   23.121074 H          1 MOL1         0.0976
      11    C3      19.607174   19.344731   21.731962 C.3        1 MOL1        -0.1375
      12    H8      18.636776   19.516318   21.248002 H          1 MOL1         0.0976
      13    H9      20.307768   19.082515   20.927090 H          1 MOL1         0.0976
      14    C4      20.053724   20.676538   22.389183 C.3        1 MOL1        -0.1375
      15    H10     20.057017   21.446464   21.605162 H          1 MOL1         0.0976
      16    H11     19.304465   21.005622   23.122354 H          1 MOL1         0.0976
      17    C5      21.461518   20.644338   23.038429 C.3        1 MOL1        -0.1350
      18    H12     21.940681   21.621320   22.883895 H          1 MOL1         0.0976
      19    H13     22.101309   19.910812   22.528324 H          1 MOL1         0.0976
      20    C6      21.429654   20.365392   24.559427 C.3        1 MOL1        -0.2365
      21    H14     20.854489   21.137375   25.086955 H          1 MOL1         0.0987
      22    H15     22.446943   20.368959   24.971768 H          1 MOL1         0.0987
      23    H16     20.980732   19.393525   24.791944 H          1 MOL1         0.0987
@<TRIPOS>BOND
    1     1     2    1
    2     1     3    1
    3     1     4    1
    4     1     5    1
    5     5     6    1
    6     5     7    1
    7     5     8    1
    8     8     9    1
    9     8    10    1
   10     8    11    1
   11    11    12    1
   12    11    13    1
   13    11    14    1
   14    14    15    1
   15    14    16    1
   16    14    17    1
   17    17    18    1
   18    17    19    1
   19    17    20    1
   20    20    21    1
   21    20    22    1
   22    20    23    1
@<TRIPOS>SUBSTRUCTURE
       1 MOL1            1 RESIDUE      1      MOL     
@<SCITEGIC>MOL_PROPERTY
VConf Rank
SciTegic.value.IntegerValue
549

@<SCITEGIC>MOL_PROPERTY
Conf_Id
SciTegic.value.IntegerValue
3

@<SCITEGIC>MOL_PROPERTY
Delta U+W
SciTegic.value.DoubleValue
3.283

@<SCITEGIC>MOL_PROPERTY
U+W
SciTegic.value.DoubleValue
-5.099

@<SCITEGIC>MOL_PROPERTY
Grad RMS
SciTegic.value.DoubleValue
0.000000

@<SCITEGIC>MOL_PROPERTY
U
SciTegic.value.DoubleValue
50.701

@<SCITEGIC>MOL_PROPERTY
W
SciTegic.value.DoubleValue
-55.800

@<SCITEGIC>MOL_PROPERTY
W(PB)
SciTegic.value.DoubleValue
-57.867

@<SCITEGIC>MOL_PROPERTY
W(SA)
SciTegic.value.DoubleValue
2.067

@<SCITEGIC>MOL_PROPERTY
Valence
SciTegic.value.DoubleValue
4.880

@<SCITEGIC>MOL_PROPERTY
Coulomb
SciTegic.value.DoubleValue
45.095

@<SCITEGIC>MOL_PROPERTY
VdW
SciTegic.value.DoubleValue
0.726

@<SCITEGIC>MOL_PROPERTY
VdW6
SciTegic.value.DoubleValue
-6.620

@<SCITEGIC>MOL_PROPERTY
VdW12
SciTegic.value.DoubleValue
7.346

@<SCITEGIC>MOL_PROPERTY
Bond
SciTegic.value.DoubleValue
0.222

@<SCITEGIC>MOL_PROPERTY
Angle
SciTegic.value.DoubleValue
1.260

@<SCITEGIC>MOL_PROPERTY
Pdih
SciTegic.value.DoubleValue
3.398

@<SCITEGIC>MOL_PROPERTY
Idih
SciTegic.value.DoubleValue
0.000

@<SCITEGIC>MOL_PROPERTY
Tether
SciTegic.value.DoubleValue
0.000

@<TRIPOS>MOLECULE
guest-2_confgen4.mol2 : confsearch ligand conformer 550
          23          22           1
SMALL
USER_CHARGES
 
@<TRIPOS>ATOM
       1    N1      17.664082   18.708225   24.525328 N.4        1 MOL1        -0.5940
       2    H1      17.725707   17.826383   25.044086 H          1 MOL1         0.3649
       3    H2      16.860279   19.221677   24.902293 H          1 MOL1         0.3649
       4    H3      18.501927   19.252581   24.751805 H          1 MOL1         0.3649
       5    C1      17.534541   18.475650   23.032873 C.3        1 MOL1         0.0207
       6    H4      17.442647   19.449116   22.544600 H          1 MOL1         0.0950
       7    H5      16.606915   17.922706   22.861730 H          1 MOL1         0.0950
       8    C2      18.715567   17.693542   22.422331 C.3        1 MOL1        -0.1415
       9    H6      18.763725   16.699149   22.885653 H          1 MOL1         0.0976
      10    H7      18.512572   17.524257   21.356501 H          1 MOL1         0.0976
      11    C3      20.088784   18.395381   22.575119 C.3        1 MOL1        -0.1375
      12    H8      20.855965   17.737761   22.146349 H          1 MOL1         0.0976
      13    H9      20.337931   18.502207   23.639197 H          1 MOL1         0.0976
      14    C4      20.146723   19.780094   21.881116 C.3        1 MOL1        -0.1375
      15    H10     19.924342   19.667496   20.811052 H          1 MOL1         0.0976
      16    H11     19.363879   20.430782   22.292352 H          1 MOL1         0.0976
      17    C5      21.507181   20.498589   22.052486 C.3        1 MOL1        -0.1350
      18    H12     21.729901   20.623822   23.121335 H          1 MOL1         0.0976
      19    H13     21.424502   21.512100   21.635566 H          1 MOL1         0.0976
      20    C6      22.681005   19.770959   21.358197 C.3        1 MOL1        -0.2365
      21    H14     22.468337   19.603854   20.294310 H          1 MOL1         0.0987
      22    H15     22.887248   18.799906   21.824852 H          1 MOL1         0.0987
      23    H16     23.598202   20.370128   21.426615 H          1 MOL1         0.0987
@<TRIPOS>BOND
    1     1     2    1
    2     1     3    1
    3     1     4    1
    4     1     5    1
    5     5     6    1
    6     5     7    1
    7     5     8    1
    8     8     9    1
    9     8    10    1
   10     8    11    1
   11    11    12    1
   12    11    13    1
   13    11    14    1
   14    14    15    1
   15    14    16    1
   16    14    17    1
   17    17    18    1
   18    17    19    1
   19    17    20    1
   20    20    21    1
   21    20    22    1
   22    20    23    1
@<TRIPOS>SUBSTRUCTURE
       1 MOL1            1 RESIDUE      1      MOL     
@<SCITEGIC>MOL_PROPERTY
VConf Rank
SciTegic.value.IntegerValue
550

@<SCITEGIC>MOL_PROPERTY
Conf_Id
SciTegic.value.IntegerValue
83

@<SCITEGIC>MOL_PROPERTY
Delta U+W
SciTegic.value.DoubleValue
1.229

@<SCITEGIC>MOL_PROPERTY
U+W
SciTegic.value.DoubleValue
-7.154

@<SCITEGIC>MOL_PROPERTY
Grad RMS
SciTegic.value.DoubleValue
0.000000

@<SCITEGIC>MOL_PROPERTY
U
SciTegic.value.DoubleValue
48.727

@<SCITEGIC>MOL_PROPERTY
W
SciTegic.value.DoubleValue
-55.880

@<SCITEGIC>MOL_PROPERTY
W(PB)
SciTegic.value.DoubleValue
-57.960

@<SCITEGIC>MOL_PROPERTY
W(SA)
SciTegic.value.DoubleValue
2.080

@<SCITEGIC>MOL_PROPERTY
Valence
SciTegic.value.DoubleValue
2.671

@<SCITEGIC>MOL_PROPERTY
Coulomb
SciTegic.value.DoubleValue
45.371

@<SCITEGIC>MOL_PROPERTY
VdW
SciTegic.value.DoubleValue
0.684

@<SCITEGIC>MOL_PROPERTY
VdW6
SciTegic.value.DoubleValue
-6.511

@<SCITEGIC>MOL_PROPERTY
VdW12
SciTegic.value.DoubleValue
7.195

@<SCITEGIC>MOL_PROPERTY
Bond
SciTegic.value.DoubleValue
0.203

@<SCITEGIC>MOL_PROPERTY
Angle
SciTegic.value.DoubleValue
0.915

@<SCITEGIC>MOL_PROPERTY
Pdih
SciTegic.value.DoubleValue
1.554

@<SCITEGIC>MOL_PROPERTY
Idih
SciTegic.value.DoubleValue
0.000

@<SCITEGIC>MOL_PROPERTY
Tether
SciTegic.value.DoubleValue
0.000

@<TRIPOS>MOLECULE
guest-2_confgen4.mol2 : confsearch ligand conformer 551
          23          22           1
SMALL
USER_CHARGES
 
@<TRIPOS>ATOM
       1    N1      19.779636   19.570200   19.722195 N.4        1 MOL1        -0.5940
       2    H1      19.355814   18.828675   19.155566 H          1 MOL1         0.3649
       3    H2      20.586793   19.161104   20.202549 H          1 MOL1         0.3649
       4    H3      20.142003   20.274574   19.070750 H          1 MOL1         0.3649
       5    C1      18.788360   20.166143   20.702256 C.3        1 MOL1         0.0207
       6    H4      17.975481   20.612572   20.123071 H          1 MOL1         0.0950
       7    H5      19.292262   20.966561   21.249891 H          1 MOL1         0.0950
       8    C2      18.204632   19.140038   21.695054 C.3        1 MOL1        -0.1415
       9    H6      17.460828   19.644278   22.326210 H          1 MOL1         0.0976
      10    H7      17.657732   18.370656   21.134023 H          1 MOL1         0.0976
      11    C3      19.262673   18.457970   22.598924 C.3        1 MOL1        -0.1375
      12    H8      19.969301   17.886946   21.982194 H          1 MOL1         0.0976
      13    H9      18.746806   17.723892   23.231290 H          1 MOL1         0.0976
      14    C4      20.037186   19.459001   23.493629 C.3        1 MOL1        -0.1375
      15    H10     20.533695   20.208128   22.863041 H          1 MOL1         0.0976
      16    H11     19.330971   20.009897   24.129981 H          1 MOL1         0.0976
      17    C5      21.114353   18.787410   24.379700 C.3        1 MOL1        -0.1350
      18    H12     21.690117   19.572725   24.889250 H          1 MOL1         0.0976
      19    H13     21.830121   18.243530   23.747563 H          1 MOL1         0.0976
      20    C6      20.529362   17.831498   25.444294 C.3        1 MOL1        -0.2365
      21    H14     19.785644   18.343315   26.068741 H          1 MOL1         0.0987
      22    H15     21.323675   17.460690   26.104978 H          1 MOL1         0.0987
      23    H16     20.050494   16.958510   24.984056 H          1 MOL1         0.0987
@<TRIPOS>BOND
    1     1     2    1
    2     1     3    1
    3     1     4    1
    4     1     5    1
    5     5     6    1
    6     5     7    1
    7     5     8    1
    8     8     9    1
    9     8    10    1
   10     8    11    1
   11    11    12    1
   12    11    13    1
   13    11    14    1
   14    14    15    1
   15    14    16    1
   16    14    17    1
   17    17    18    1
   18    17    19    1
   19    17    20    1
   20    20    21    1
   21    20    22    1
   22    20    23    1
@<TRIPOS>SUBSTRUCTURE
       1 MOL1            1 RESIDUE      1      MOL     
@<SCITEGIC>MOL_PROPERTY
VConf Rank
SciTegic.value.IntegerValue
551

@<SCITEGIC>MOL_PROPERTY
Conf_Id
SciTegic.value.IntegerValue
50

@<SCITEGIC>MOL_PROPERTY
Delta U+W
SciTegic.value.DoubleValue
1.252

@<SCITEGIC>MOL_PROPERTY
U+W
SciTegic.value.DoubleValue
-7.130

@<SCITEGIC>MOL_PROPERTY
Grad RMS
SciTegic.value.DoubleValue
0.000000

@<SCITEGIC>MOL_PROPERTY
U
SciTegic.value.DoubleValue
48.727

@<SCITEGIC>MOL_PROPERTY
W
SciTegic.value.DoubleValue
-55.857

@<SCITEGIC>MOL_PROPERTY
W(PB)
SciTegic.value.DoubleValue
-57.937

@<SCITEGIC>MOL_PROPERTY
W(SA)
SciTegic.value.DoubleValue
2.080

@<SCITEGIC>MOL_PROPERTY
Valence
SciTegic.value.DoubleValue
2.671

@<SCITEGIC>MOL_PROPERTY
Coulomb
SciTegic.value.DoubleValue
45.371

@<SCITEGIC>MOL_PROPERTY
VdW
SciTegic.value.DoubleValue
0.684

@<SCITEGIC>MOL_PROPERTY
VdW6
SciTegic.value.DoubleValue
-6.511

@<SCITEGIC>MOL_PROPERTY
VdW12
SciTegic.value.DoubleValue
7.196

@<SCITEGIC>MOL_PROPERTY
Bond
SciTegic.value.DoubleValue
0.203

@<SCITEGIC>MOL_PROPERTY
Angle
SciTegic.value.DoubleValue
0.915

@<SCITEGIC>MOL_PROPERTY
Pdih
SciTegic.value.DoubleValue
1.554

@<SCITEGIC>MOL_PROPERTY
Idih
SciTegic.value.DoubleValue
0.000

@<SCITEGIC>MOL_PROPERTY
Tether
SciTegic.value.DoubleValue
0.000

@<TRIPOS>MOLECULE
guest-2_confgen4.mol2 : confsearch ligand conformer 552
          23          22           1
SMALL
USER_CHARGES
 
@<TRIPOS>ATOM
       1    N1      20.951640   21.384828   20.809059 N.4        1 MOL1        -0.5940
       2    H1      20.065393   21.160699   20.346604 H          1 MOL1         0.3649
       3    H2      21.615148   21.649111   20.072960 H          1 MOL1         0.3649
       4    H3      20.792259   22.220046   21.381452 H          1 MOL1         0.3649
       5    C1      21.463827   20.222753   21.637603 C.3        1 MOL1         0.0207
       6    H4      22.426083   20.518805   22.064204 H          1 MOL1         0.0950
       7    H5      21.634877   19.376774   20.966429 H          1 MOL1         0.0950
       8    C2      20.510907   19.799572   22.772338 C.3        1 MOL1        -0.1415
       9    H6      21.014080   19.035323   23.375168 H          1 MOL1         0.0976
      10    H7      20.338208   20.653677   23.440505 H          1 MOL1         0.0976
      11    C3      19.156313   19.261350   22.245016 C.3        1 MOL1        -0.1375
      12    H8      19.322578   18.468587   21.502562 H          1 MOL1         0.0976
      13    H9      18.641559   20.073059   21.713844 H          1 MOL1         0.0976
      14    C4      18.218533   18.748407   23.369100 C.3        1 MOL1        -0.1375
      15    H10     18.409404   19.293402   24.303841 H          1 MOL1         0.0976
      16    H11     17.184227   18.993325   23.090321 H          1 MOL1         0.0976
      17    C5      18.283312   17.220015   23.620157 C.3        1 MOL1        -0.1350
      18    H12     17.991441   16.683980   22.706235 H          1 MOL1         0.0976
      19    H13     17.531634   16.959240   24.378306 H          1 MOL1         0.0976
      20    C6      19.661811   16.710298   24.094454 C.3        1 MOL1        -0.2365
      21    H14     20.009195   17.267472   24.974066 H          1 MOL1         0.0987
      22    H15     20.414817   16.801432   23.302020 H          1 MOL1         0.0987
      23    H16     19.603991   15.649490   24.370554 H          1 MOL1         0.0987
@<TRIPOS>BOND
    1     1     2    1
    2     1     3    1
    3     1     4    1
    4     1     5    1
    5     5     6    1
    6     5     7    1
    7     5     8    1
    8     8     9    1
    9     8    10    1
   10     8    11    1
   11    11    12    1
   12    11    13    1
   13    11    14    1
   14    14    15    1
   15    14    16    1
   16    14    17    1
   17    17    18    1
   18    17    19    1
   19    17    20    1
   20    20    21    1
   21    20    22    1
   22    20    23    1
@<TRIPOS>SUBSTRUCTURE
       1 MOL1            1 RESIDUE      1      MOL     
@<SCITEGIC>MOL_PROPERTY
VConf Rank
SciTegic.value.IntegerValue
552

@<SCITEGIC>MOL_PROPERTY
Conf_Id
SciTegic.value.IntegerValue
55

@<SCITEGIC>MOL_PROPERTY
Delta U+W
SciTegic.value.DoubleValue
3.232

@<SCITEGIC>MOL_PROPERTY
U+W
SciTegic.value.DoubleValue
-5.150

@<SCITEGIC>MOL_PROPERTY
Grad RMS
SciTegic.value.DoubleValue
0.000000

@<SCITEGIC>MOL_PROPERTY
U
SciTegic.value.DoubleValue
50.625

@<SCITEGIC>MOL_PROPERTY
W
SciTegic.value.DoubleValue
-55.776

@<SCITEGIC>MOL_PROPERTY
W(PB)
SciTegic.value.DoubleValue
-57.839

@<SCITEGIC>MOL_PROPERTY
W(SA)
SciTegic.value.DoubleValue
2.064

@<SCITEGIC>MOL_PROPERTY
Valence
SciTegic.value.DoubleValue
4.837

@<SCITEGIC>MOL_PROPERTY
Coulomb
SciTegic.value.DoubleValue
45.097

@<SCITEGIC>MOL_PROPERTY
VdW
SciTegic.value.DoubleValue
0.692

@<SCITEGIC>MOL_PROPERTY
VdW6
SciTegic.value.DoubleValue
-6.655

@<SCITEGIC>MOL_PROPERTY
VdW12
SciTegic.value.DoubleValue
7.347

@<SCITEGIC>MOL_PROPERTY
Bond
SciTegic.value.DoubleValue
0.223

@<SCITEGIC>MOL_PROPERTY
Angle
SciTegic.value.DoubleValue
1.167

@<SCITEGIC>MOL_PROPERTY
Pdih
SciTegic.value.DoubleValue
3.447

@<SCITEGIC>MOL_PROPERTY
Idih
SciTegic.value.DoubleValue
0.000

@<SCITEGIC>MOL_PROPERTY
Tether
SciTegic.value.DoubleValue
0.000

@<TRIPOS>MOLECULE
guest-2_confgen4.mol2 : confsearch ligand conformer 553
          23          22           1
SMALL
USER_CHARGES
 
@<TRIPOS>ATOM
       1    N1      20.902329   20.820358   20.259513 N.4        1 MOL1        -0.5940
       2    H1      20.293288   21.471950   19.754215 H          1 MOL1         0.3649
       3    H2      21.573118   20.450291   19.577537 H          1 MOL1         0.3649
       4    H3      21.438986   21.372651   20.936069 H          1 MOL1         0.3649
       5    C1      20.113438   19.714570   20.930730 C.3        1 MOL1         0.0207
       6    H4      20.825460   19.043715   21.414796 H          1 MOL1         0.0950
       7    H5      19.592180   19.152785   20.150930 H          1 MOL1         0.0950
       8    C2      19.091204   20.241411   21.957014 C.3        1 MOL1        -0.1415
       9    H6      19.594964   20.847344   22.721823 H          1 MOL1         0.0976
      10    H7      18.399871   20.915242   21.433535 H          1 MOL1         0.0976
      11    C3      18.266701   19.113898   22.628113 C.3        1 MOL1        -0.1375
      12    H8      18.041016   18.325933   21.896144 H          1 MOL1         0.0976
      13    H9      17.294283   19.531663   22.923701 H          1 MOL1         0.0976
      14    C4      18.913566   18.495427   23.894815 C.3        1 MOL1        -0.1375
      15    H10     19.038351   19.274479   24.659536 H          1 MOL1         0.0976
      16    H11     18.208666   17.765530   24.316486 H          1 MOL1         0.0976
      17    C5      20.270528   17.796268   23.649183 C.3        1 MOL1        -0.1350
      18    H12     21.030497   18.540072   23.376938 H          1 MOL1         0.0976
      19    H13     20.183150   17.095471   22.807205 H          1 MOL1         0.0976
      20    C6      20.753013   17.033943   24.901679 C.3        1 MOL1        -0.2365
      21    H14     20.038879   16.250645   25.187459 H          1 MOL1         0.0987
      22    H15     20.874360   17.713924   25.754997 H          1 MOL1         0.0987
      23    H16     21.721793   16.553217   24.713532 H          1 MOL1         0.0987
@<TRIPOS>BOND
    1     1     2    1
    2     1     3    1
    3     1     4    1
    4     1     5    1
    5     5     6    1
    6     5     7    1
    7     5     8    1
    8     8     9    1
    9     8    10    1
   10     8    11    1
   11    11    12    1
   12    11    13    1
   13    11    14    1
   14    14    15    1
   15    14    16    1
   16    14    17    1
   17    17    18    1
   18    17    19    1
   19    17    20    1
   20    20    21    1
   21    20    22    1
   22    20    23    1
@<TRIPOS>SUBSTRUCTURE
       1 MOL1            1 RESIDUE      1      MOL     
@<SCITEGIC>MOL_PROPERTY
VConf Rank
SciTegic.value.IntegerValue
553

@<SCITEGIC>MOL_PROPERTY
Conf_Id
SciTegic.value.IntegerValue
93

@<SCITEGIC>MOL_PROPERTY
Delta U+W
SciTegic.value.DoubleValue
2.589

@<SCITEGIC>MOL_PROPERTY
U+W
SciTegic.value.DoubleValue
-5.793

@<SCITEGIC>MOL_PROPERTY
Grad RMS
SciTegic.value.DoubleValue
0.000000

@<SCITEGIC>MOL_PROPERTY
U
SciTegic.value.DoubleValue
50.122

@<SCITEGIC>MOL_PROPERTY
W
SciTegic.value.DoubleValue
-55.915

@<SCITEGIC>MOL_PROPERTY
W(PB)
SciTegic.value.DoubleValue
-58.031

@<SCITEGIC>MOL_PROPERTY
W(SA)
SciTegic.value.DoubleValue
2.115

@<SCITEGIC>MOL_PROPERTY
Valence
SciTegic.value.DoubleValue
4.132

@<SCITEGIC>MOL_PROPERTY
Coulomb
SciTegic.value.DoubleValue
45.536

@<SCITEGIC>MOL_PROPERTY
VdW
SciTegic.value.DoubleValue
0.454

@<SCITEGIC>MOL_PROPERTY
VdW6
SciTegic.value.DoubleValue
-6.262

@<SCITEGIC>MOL_PROPERTY
VdW12
SciTegic.value.DoubleValue
6.715

@<SCITEGIC>MOL_PROPERTY
Bond
SciTegic.value.DoubleValue
0.182

@<SCITEGIC>MOL_PROPERTY
Angle
SciTegic.value.DoubleValue
1.157

@<SCITEGIC>MOL_PROPERTY
Pdih
SciTegic.value.DoubleValue
2.794

@<SCITEGIC>MOL_PROPERTY
Idih
SciTegic.value.DoubleValue
0.000

@<SCITEGIC>MOL_PROPERTY
Tether
SciTegic.value.DoubleValue
0.000

@<TRIPOS>MOLECULE
guest-2_confgen4.mol2 : confsearch ligand conformer 554
          23          22           1
SMALL
USER_CHARGES
 
@<TRIPOS>ATOM
       1    N1      19.365541   16.647818   20.511130 N.4        1 MOL1        -0.5940
       2    H1      19.088904   17.336003   19.803578 H          1 MOL1         0.3649
       3    H2      18.592566   15.978869   20.594895 H          1 MOL1         0.3649
       4    H3      20.166038   16.131468   20.132427 H          1 MOL1         0.3649
       5    C1      19.691452   17.301091   21.838782 C.3        1 MOL1         0.0207
       6    H4      19.948265   16.509964   22.548406 H          1 MOL1         0.0950
       7    H5      18.787984   17.798368   22.196276 H          1 MOL1         0.0950
       8    C2      20.855309   18.307326   21.745427 C.3        1 MOL1        -0.1415
       9    H6      21.740025   17.771062   21.377026 H          1 MOL1         0.0976
      10    H7      20.631074   19.083184   21.001367 H          1 MOL1         0.0976
      11    C3      21.206010   18.959723   23.106622 C.3        1 MOL1        -0.1375
      12    H8      22.269365   19.236234   23.088831 H          1 MOL1         0.0976
      13    H9      21.104702   18.222031   23.914800 H          1 MOL1         0.0976
      14    C4      20.396832   20.238249   23.447319 C.3        1 MOL1        -0.1375
      15    H10     20.782090   20.644315   24.392902 H          1 MOL1         0.0976
      16    H11     20.588858   21.006647   22.685753 H          1 MOL1         0.0976
      17    C5      18.872196   20.019030   23.581217 C.3        1 MOL1        -0.1350
      18    H12     18.673625   19.174253   24.255457 H          1 MOL1         0.0976
      19    H13     18.443893   19.763547   22.603362 H          1 MOL1         0.0976
      20    C6      18.160762   21.279758   24.117043 C.3        1 MOL1        -0.2365
      21    H14     17.078986   21.110511   24.195432 H          1 MOL1         0.0987
      22    H15     18.320252   22.136539   23.449407 H          1 MOL1         0.0987
      23    H16     18.531964   21.549611   25.114341 H          1 MOL1         0.0987
@<TRIPOS>BOND
    1     1     2    1
    2     1     3    1
    3     1     4    1
    4     1     5    1
    5     5     6    1
    6     5     7    1
    7     5     8    1
    8     8     9    1
    9     8    10    1
   10     8    11    1
   11    11    12    1
   12    11    13    1
   13    11    14    1
   14    14    15    1
   15    14    16    1
   16    14    17    1
   17    17    18    1
   18    17    19    1
   19    17    20    1
   20    20    21    1
   21    20    22    1
   22    20    23    1
@<TRIPOS>SUBSTRUCTURE
       1 MOL1            1 RESIDUE      1      MOL     
@<SCITEGIC>MOL_PROPERTY
VConf Rank
SciTegic.value.IntegerValue
554

@<SCITEGIC>MOL_PROPERTY
Conf_Id
SciTegic.value.IntegerValue
70

@<SCITEGIC>MOL_PROPERTY
Delta U+W
SciTegic.value.DoubleValue
2.599

@<SCITEGIC>MOL_PROPERTY
U+W
SciTegic.value.DoubleValue
-5.783

@<SCITEGIC>MOL_PROPERTY
Grad RMS
SciTegic.value.DoubleValue
0.000000

@<SCITEGIC>MOL_PROPERTY
U
SciTegic.value.DoubleValue
50.122

@<SCITEGIC>MOL_PROPERTY
W
SciTegic.value.DoubleValue
-55.906

@<SCITEGIC>MOL_PROPERTY
W(PB)
SciTegic.value.DoubleValue
-58.010

@<SCITEGIC>MOL_PROPERTY
W(SA)
SciTegic.value.DoubleValue
2.105

@<SCITEGIC>MOL_PROPERTY
Valence
SciTegic.value.DoubleValue
4.132

@<SCITEGIC>MOL_PROPERTY
Coulomb
SciTegic.value.DoubleValue
45.536

@<SCITEGIC>MOL_PROPERTY
VdW
SciTegic.value.DoubleValue
0.454

@<SCITEGIC>MOL_PROPERTY
VdW6
SciTegic.value.DoubleValue
-6.262

@<SCITEGIC>MOL_PROPERTY
VdW12
SciTegic.value.DoubleValue
6.715

@<SCITEGIC>MOL_PROPERTY
Bond
SciTegic.value.DoubleValue
0.182

@<SCITEGIC>MOL_PROPERTY
Angle
SciTegic.value.DoubleValue
1.157

@<SCITEGIC>MOL_PROPERTY
Pdih
SciTegic.value.DoubleValue
2.794

@<SCITEGIC>MOL_PROPERTY
Idih
SciTegic.value.DoubleValue
0.000

@<SCITEGIC>MOL_PROPERTY
Tether
SciTegic.value.DoubleValue
0.000

@<TRIPOS>MOLECULE
guest-2_confgen4.mol2 : confsearch ligand conformer 555
          23          22           1
SMALL
USER_CHARGES
 
@<TRIPOS>ATOM
       1    N1      21.779711   17.464017   23.964617 N.4        1 MOL1        -0.5940
       2    H1      22.337120   16.715240   23.541374 H          1 MOL1         0.3649
       3    H2      21.919225   17.404251   24.978879 H          1 MOL1         0.3649
       4    H3      22.183951   18.353533   23.656692 H          1 MOL1         0.3649
       5    C1      20.314826   17.355723   23.589624 C.3        1 MOL1         0.0207
       6    H4      19.773915   18.158503   24.097467 H          1 MOL1         0.0950
       7    H5      19.942914   16.401096   23.971546 H          1 MOL1         0.0950
       8    C2      20.058201   17.435054   22.071193 C.3        1 MOL1        -0.1415
       9    H6      20.577683   16.604307   21.575499 H          1 MOL1         0.0976
      10    H7      18.989079   17.273028   21.883731 H          1 MOL1         0.0976
      11    C3      20.504782   18.773211   21.425510 C.3        1 MOL1        -0.1375
      12    H8      20.247298   18.754133   20.357549 H          1 MOL1         0.0976
      13    H9      21.599914   18.846454   21.464929 H          1 MOL1         0.0976
      14    C4      19.894819   20.044912   22.070119 C.3        1 MOL1        -0.1375
      15    H10     20.219777   20.130624   23.115561 H          1 MOL1         0.0976
      16    H11     20.303075   20.924607   21.553590 H          1 MOL1         0.0976
      17    C5      18.350298   20.093447   21.999450 C.3        1 MOL1        -0.1350
      18    H12     17.918555   19.260735   22.570526 H          1 MOL1         0.0976
      19    H13     18.022517   19.969598   20.957849 H          1 MOL1         0.0976
      20    C6      17.796531   21.422390   22.555897 C.3        1 MOL1        -0.2365
      21    H14     16.700317   21.438925   22.500630 H          1 MOL1         0.0987
      22    H15     18.175297   22.278998   21.983226 H          1 MOL1         0.0987
      23    H16     18.083012   21.559971   23.606709 H          1 MOL1         0.0987
@<TRIPOS>BOND
    1     1     2    1
    2     1     3    1
    3     1     4    1
    4     1     5    1
    5     5     6    1
    6     5     7    1
    7     5     8    1
    8     8     9    1
    9     8    10    1
   10     8    11    1
   11    11    12    1
   12    11    13    1
   13    11    14    1
   14    14    15    1
   15    14    16    1
   16    14    17    1
   17    17    18    1
   18    17    19    1
   19    17    20    1
   20    20    21    1
   21    20    22    1
   22    20    23    1
@<TRIPOS>SUBSTRUCTURE
       1 MOL1            1 RESIDUE      1      MOL     
@<SCITEGIC>MOL_PROPERTY
VConf Rank
SciTegic.value.IntegerValue
555

@<SCITEGIC>MOL_PROPERTY
Conf_Id
SciTegic.value.IntegerValue
72

@<SCITEGIC>MOL_PROPERTY
Delta U+W
SciTegic.value.DoubleValue
1.051

@<SCITEGIC>MOL_PROPERTY
U+W
SciTegic.value.DoubleValue
-7.331

@<SCITEGIC>MOL_PROPERTY
Grad RMS
SciTegic.value.DoubleValue
0.000000

@<SCITEGIC>MOL_PROPERTY
U
SciTegic.value.DoubleValue
48.590

@<SCITEGIC>MOL_PROPERTY
W
SciTegic.value.DoubleValue
-55.922

@<SCITEGIC>MOL_PROPERTY
W(PB)
SciTegic.value.DoubleValue
-58.012

@<SCITEGIC>MOL_PROPERTY
W(SA)
SciTegic.value.DoubleValue
2.090

@<SCITEGIC>MOL_PROPERTY
Valence
SciTegic.value.DoubleValue
2.601

@<SCITEGIC>MOL_PROPERTY
Coulomb
SciTegic.value.DoubleValue
45.520

@<SCITEGIC>MOL_PROPERTY
VdW
SciTegic.value.DoubleValue
0.469

@<SCITEGIC>MOL_PROPERTY
VdW6
SciTegic.value.DoubleValue
-6.867

@<SCITEGIC>MOL_PROPERTY
VdW12
SciTegic.value.DoubleValue
7.336

@<SCITEGIC>MOL_PROPERTY
Bond
SciTegic.value.DoubleValue
0.205

@<SCITEGIC>MOL_PROPERTY
Angle
SciTegic.value.DoubleValue
0.962

@<SCITEGIC>MOL_PROPERTY
Pdih
SciTegic.value.DoubleValue
1.434

@<SCITEGIC>MOL_PROPERTY
Idih
SciTegic.value.DoubleValue
0.000

@<SCITEGIC>MOL_PROPERTY
Tether
SciTegic.value.DoubleValue
0.000

@<TRIPOS>MOLECULE
guest-2_confgen4.mol2 : confsearch ligand conformer 556
          23          22           1
SMALL
USER_CHARGES
 
@<TRIPOS>ATOM
       1    N1      22.424123   19.640993   24.101783 N.4        1 MOL1        -0.5940
       2    H1      22.730421   20.515140   24.542245 H          1 MOL1         0.3649
       3    H2      23.261404   19.193013   23.715701 H          1 MOL1         0.3649
       4    H3      22.076522   19.035026   24.851876 H          1 MOL1         0.3649
       5    C1      21.372708   19.884864   23.038443 C.3        1 MOL1         0.0207
       6    H4      21.798986   20.557799   22.289579 H          1 MOL1         0.0950
       7    H5      20.526351   20.388967   23.512249 H          1 MOL1         0.0950
       8    C2      20.890984   18.590432   22.357117 C.3        1 MOL1        -0.1415
       9    H6      21.754006   18.073468   21.917036 H          1 MOL1         0.0976
      10    H7      20.474671   17.908755   23.109733 H          1 MOL1         0.0976
      11    C3      19.845613   18.853797   21.244956 C.3        1 MOL1        -0.1375
      12    H8      19.561112   17.897593   20.785954 H          1 MOL1         0.0976
      13    H9      20.319759   19.437015   20.443486 H          1 MOL1         0.0976
      14    C4      18.569836   19.603993   21.714380 C.3        1 MOL1        -0.1375
      15    H10     18.838118   20.624329   22.019736 H          1 MOL1         0.0976
      16    H11     17.896017   19.721409   20.854525 H          1 MOL1         0.0976
      17    C5      17.792015   18.923307   22.869318 C.3        1 MOL1        -0.1350
      18    H12     16.923383   19.547305   23.121894 H          1 MOL1         0.0976
      19    H13     18.411008   18.889151   23.775848 H          1 MOL1         0.0976
      20    C6      17.297970   17.500993   22.520807 C.3        1 MOL1        -0.2365
      21    H14     16.686367   17.508307   21.609309 H          1 MOL1         0.0987
      22    H15     16.682452   17.097291   23.335058 H          1 MOL1         0.0987
      23    H16     18.136340   16.810394   22.366639 H          1 MOL1         0.0987
@<TRIPOS>BOND
    1     1     2    1
    2     1     3    1
    3     1     4    1
    4     1     5    1
    5     5     6    1
    6     5     7    1
    7     5     8    1
    8     8     9    1
    9     8    10    1
   10     8    11    1
   11    11    12    1
   12    11    13    1
   13    11    14    1
   14    14    15    1
   15    14    16    1
   16    14    17    1
   17    17    18    1
   18    17    19    1
   19    17    20    1
   20    20    21    1
   21    20    22    1
   22    20    23    1
@<TRIPOS>SUBSTRUCTURE
       1 MOL1            1 RESIDUE      1      MOL     
@<SCITEGIC>MOL_PROPERTY
VConf Rank
SciTegic.value.IntegerValue
556

@<SCITEGIC>MOL_PROPERTY
Conf_Id
SciTegic.value.IntegerValue
26

@<SCITEGIC>MOL_PROPERTY
Delta U+W
SciTegic.value.DoubleValue
1.076

@<SCITEGIC>MOL_PROPERTY
U+W
SciTegic.value.DoubleValue
-7.306

@<SCITEGIC>MOL_PROPERTY
Grad RMS
SciTegic.value.DoubleValue
0.000000

@<SCITEGIC>MOL_PROPERTY
U
SciTegic.value.DoubleValue
48.641

@<SCITEGIC>MOL_PROPERTY
W
SciTegic.value.DoubleValue
-55.947

@<SCITEGIC>MOL_PROPERTY
W(PB)
SciTegic.value.DoubleValue
-58.031

@<SCITEGIC>MOL_PROPERTY
W(SA)
SciTegic.value.DoubleValue
2.084

@<SCITEGIC>MOL_PROPERTY
Valence
SciTegic.value.DoubleValue
2.922

@<SCITEGIC>MOL_PROPERTY
Coulomb
SciTegic.value.DoubleValue
45.269

@<SCITEGIC>MOL_PROPERTY
VdW
SciTegic.value.DoubleValue
0.449

@<SCITEGIC>MOL_PROPERTY
VdW6
SciTegic.value.DoubleValue
-7.045

@<SCITEGIC>MOL_PROPERTY
VdW12
SciTegic.value.DoubleValue
7.494

@<SCITEGIC>MOL_PROPERTY
Bond
SciTegic.value.DoubleValue
0.220

@<SCITEGIC>MOL_PROPERTY
Angle
SciTegic.value.DoubleValue
1.205

@<SCITEGIC>MOL_PROPERTY
Pdih
SciTegic.value.DoubleValue
1.497

@<SCITEGIC>MOL_PROPERTY
Idih
SciTegic.value.DoubleValue
0.000

@<SCITEGIC>MOL_PROPERTY
Tether
SciTegic.value.DoubleValue
0.000

@<TRIPOS>MOLECULE
guest-2_confgen4.mol2 : confsearch ligand conformer 557
          23          22           1
SMALL
USER_CHARGES
 
@<TRIPOS>ATOM
       1    N1      21.585263   16.410569   22.761950 N.4        1 MOL1        -0.5940
       2    H1      22.270585   16.310559   22.006228 H          1 MOL1         0.3649
       3    H2      21.344739   15.463295   23.073043 H          1 MOL1         0.3649
       4    H3      22.063579   16.868819   23.544180 H          1 MOL1         0.3649
       5    C1      20.361291   17.184195   22.315824 C.3        1 MOL1         0.0207
       6    H4      19.664834   17.225512   23.157354 H          1 MOL1         0.0950
       7    H5      19.886927   16.627251   21.503333 H          1 MOL1         0.0950
       8    C2      20.688893   18.612576   21.842303 C.3        1 MOL1        -0.1415
       9    H6      21.176941   19.168537   22.652951 H          1 MOL1         0.0976
      10    H7      21.417178   18.560999   21.022138 H          1 MOL1         0.0976
      11    C3      19.437021   19.381389   21.351583 C.3        1 MOL1        -0.1375
      12    H8      19.034157   18.873597   20.464363 H          1 MOL1         0.0976
      13    H9      19.740287   20.379547   21.008563 H          1 MOL1         0.0976
      14    C4      18.301976   19.516453   22.402387 C.3        1 MOL1        -0.1375
      15    H10     17.477122   20.088491   21.955670 H          1 MOL1         0.0976
      16    H11     17.887055   18.523298   22.620988 H          1 MOL1         0.0976
      17    C5      18.714128   20.191931   23.735084 C.3        1 MOL1        -0.1350
      18    H12     19.465241   19.581460   24.254001 H          1 MOL1         0.0976
      19    H13     17.838740   20.219713   24.398873 H          1 MOL1         0.0976
      20    C6      19.246406   21.631468   23.553615 C.3        1 MOL1        -0.2365
      21    H14     20.185375   21.644708   22.986411 H          1 MOL1         0.0987
      22    H15     19.442796   22.094813   24.529107 H          1 MOL1         0.0987
      23    H16     18.516443   22.258086   23.024988 H          1 MOL1         0.0987
@<TRIPOS>BOND
    1     1     2    1
    2     1     3    1
    3     1     4    1
    4     1     5    1
    5     5     6    1
    6     5     7    1
    7     5     8    1
    8     8     9    1
    9     8    10    1
   10     8    11    1
   11    11    12    1
   12    11    13    1
   13    11    14    1
   14    14    15    1
   15    14    16    1
   16    14    17    1
   17    17    18    1
   18    17    19    1
   19    17    20    1
   20    20    21    1
   21    20    22    1
   22    20    23    1
@<TRIPOS>SUBSTRUCTURE
       1 MOL1            1 RESIDUE      1      MOL     
@<SCITEGIC>MOL_PROPERTY
VConf Rank
SciTegic.value.IntegerValue
557

@<SCITEGIC>MOL_PROPERTY
Conf_Id
SciTegic.value.IntegerValue
90

@<SCITEGIC>MOL_PROPERTY
Delta U+W
SciTegic.value.DoubleValue
1.131

@<SCITEGIC>MOL_PROPERTY
U+W
SciTegic.value.DoubleValue
-7.251

@<SCITEGIC>MOL_PROPERTY
Grad RMS
SciTegic.value.DoubleValue
0.000000

@<SCITEGIC>MOL_PROPERTY
U
SciTegic.value.DoubleValue
48.641

@<SCITEGIC>MOL_PROPERTY
W
SciTegic.value.DoubleValue
-55.892

@<SCITEGIC>MOL_PROPERTY
W(PB)
SciTegic.value.DoubleValue
-57.962

@<SCITEGIC>MOL_PROPERTY
W(SA)
SciTegic.value.DoubleValue
2.070

@<SCITEGIC>MOL_PROPERTY
Valence
SciTegic.value.DoubleValue
2.922

@<SCITEGIC>MOL_PROPERTY
Coulomb
SciTegic.value.DoubleValue
45.269

@<SCITEGIC>MOL_PROPERTY
VdW
SciTegic.value.DoubleValue
0.450

@<SCITEGIC>MOL_PROPERTY
VdW6
SciTegic.value.DoubleValue
-7.045

@<SCITEGIC>MOL_PROPERTY
VdW12
SciTegic.value.DoubleValue
7.495

@<SCITEGIC>MOL_PROPERTY
Bond
SciTegic.value.DoubleValue
0.220

@<SCITEGIC>MOL_PROPERTY
Angle
SciTegic.value.DoubleValue
1.205

@<SCITEGIC>MOL_PROPERTY
Pdih
SciTegic.value.DoubleValue
1.497

@<SCITEGIC>MOL_PROPERTY
Idih
SciTegic.value.DoubleValue
0.000

@<SCITEGIC>MOL_PROPERTY
Tether
SciTegic.value.DoubleValue
0.000

@<TRIPOS>MOLECULE
guest-2_confgen4.mol2 : confsearch ligand conformer 558
          23          22           1
SMALL
USER_CHARGES
 
@<TRIPOS>ATOM
       1    N1      19.234162   19.163538   20.014859 N.4        1 MOL1        -0.5940
       2    H1      18.482352   19.577213   19.453160 H          1 MOL1         0.3649
       3    H2      18.793514   18.527546   20.686399 H          1 MOL1         0.3649
       4    H3      19.800778   18.591058   19.380993 H          1 MOL1         0.3649
       5    C1      20.065412   20.223076   20.711135 C.3        1 MOL1         0.0207
       6    H4      19.399168   20.814580   21.344348 H          1 MOL1         0.0950
       7    H5      20.476008   20.882875   19.941982 H          1 MOL1         0.0950
       8    C2      21.217468   19.648000   21.560219 C.3        1 MOL1        -0.1415
       9    H6      21.905391   19.095833   20.906260 H          1 MOL1         0.0976
      10    H7      21.796656   20.481868   21.978608 H          1 MOL1         0.0976
      11    C3      20.750103   18.722031   22.711189 C.3        1 MOL1        -0.1375
      12    H8      21.636498   18.352577   23.244965 H          1 MOL1         0.0976
      13    H9      20.255228   17.837290   22.291146 H          1 MOL1         0.0976
      14    C4      19.810437   19.432580   23.717977 C.3        1 MOL1        -0.1375
      15    H10     20.289191   20.359868   24.061778 H          1 MOL1         0.0976
      16    H11     18.878247   19.731556   23.220417 H          1 MOL1         0.0976
      17    C5      19.469905   18.567251   24.955166 C.3        1 MOL1        -0.1350
      18    H12     18.892824   19.177205   25.664227 H          1 MOL1         0.0976
      19    H13     20.394674   18.283004   25.476497 H          1 MOL1         0.0976
      20    C6      18.655777   17.299122   24.611390 C.3        1 MOL1        -0.2365
      21    H14     17.738151   17.554550   24.065812 H          1 MOL1         0.0987
      22    H15     18.364442   16.769921   25.527909 H          1 MOL1         0.0987
      23    H16     19.237860   16.599860   23.998510 H          1 MOL1         0.0987
@<TRIPOS>BOND
    1     1     2    1
    2     1     3    1
    3     1     4    1
    4     1     5    1
    5     5     6    1
    6     5     7    1
    7     5     8    1
    8     8     9    1
    9     8    10    1
   10     8    11    1
   11    11    12    1
   12    11    13    1
   13    11    14    1
   14    14    15    1
   15    14    16    1
   16    14    17    1
   17    17    18    1
   18    17    19    1
   19    17    20    1
   20    20    21    1
   21    20    22    1
   22    20    23    1
@<TRIPOS>SUBSTRUCTURE
       1 MOL1            1 RESIDUE      1      MOL     
@<SCITEGIC>MOL_PROPERTY
VConf Rank
SciTegic.value.IntegerValue
558

@<SCITEGIC>MOL_PROPERTY
Conf_Id
SciTegic.value.IntegerValue
85

@<SCITEGIC>MOL_PROPERTY
Delta U+W
SciTegic.value.DoubleValue
1.193

@<SCITEGIC>MOL_PROPERTY
U+W
SciTegic.value.DoubleValue
-7.189

@<SCITEGIC>MOL_PROPERTY
Grad RMS
SciTegic.value.DoubleValue
0.000000

@<SCITEGIC>MOL_PROPERTY
U
SciTegic.value.DoubleValue
48.775

@<SCITEGIC>MOL_PROPERTY
W
SciTegic.value.DoubleValue
-55.965

@<SCITEGIC>MOL_PROPERTY
W(PB)
SciTegic.value.DoubleValue
-58.038

@<SCITEGIC>MOL_PROPERTY
W(SA)
SciTegic.value.DoubleValue
2.073

@<SCITEGIC>MOL_PROPERTY
Valence
SciTegic.value.DoubleValue
2.602

@<SCITEGIC>MOL_PROPERTY
Coulomb
SciTegic.value.DoubleValue
45.581

@<SCITEGIC>MOL_PROPERTY
VdW
SciTegic.value.DoubleValue
0.592

@<SCITEGIC>MOL_PROPERTY
VdW6
SciTegic.value.DoubleValue
-6.616

@<SCITEGIC>MOL_PROPERTY
VdW12
SciTegic.value.DoubleValue
7.208

@<SCITEGIC>MOL_PROPERTY
Bond
SciTegic.value.DoubleValue
0.196

@<SCITEGIC>MOL_PROPERTY
Angle
SciTegic.value.DoubleValue
0.832

@<SCITEGIC>MOL_PROPERTY
Pdih
SciTegic.value.DoubleValue
1.574

@<SCITEGIC>MOL_PROPERTY
Idih
SciTegic.value.DoubleValue
0.000

@<SCITEGIC>MOL_PROPERTY
Tether
SciTegic.value.DoubleValue
0.000

@<TRIPOS>MOLECULE
guest-2_confgen4.mol2 : confsearch ligand conformer 559
          23          22           1
SMALL
USER_CHARGES
 
@<TRIPOS>ATOM
       1    N1      17.706105   19.218488   22.203623 N.4        1 MOL1        -0.5940
       2    H1      18.546424   19.804779   22.175410 H          1 MOL1         0.3649
       3    H2      16.984476   19.739716   22.713404 H          1 MOL1         0.3649
       4    H3      17.373681   19.113525   21.239521 H          1 MOL1         0.3649
       5    C1      17.991472   17.875620   22.847777 C.3        1 MOL1         0.0207
       6    H4      17.054627   17.311917   22.839322 H          1 MOL1         0.0950
       7    H5      18.278490   18.040743   23.889642 H          1 MOL1         0.0950
       8    C2      19.080052   17.053470   22.128207 C.3        1 MOL1        -0.1415
       9    H6      18.934574   15.998961   22.397806 H          1 MOL1         0.0976
      10    H7      18.928399   17.107318   21.041940 H          1 MOL1         0.0976
      11    C3      20.542132   17.435837   22.483495 C.3        1 MOL1        -0.1375
      12    H8      21.202826   16.740075   21.947862 H          1 MOL1         0.0976
      13    H9      20.728458   17.254032   23.551062 H          1 MOL1         0.0976
      14    C4      20.960033   18.880387   22.106806 C.3        1 MOL1        -0.1375
      15    H10     22.009133   18.865992   21.779818 H          1 MOL1         0.0976
      16    H11     20.384882   19.227177   21.238093 H          1 MOL1         0.0976
      17    C5      20.844110   19.875775   23.287003 C.3        1 MOL1        -0.1350
      18    H12     21.558387   19.590912   24.072367 H          1 MOL1         0.0976
      19    H13     19.851313   19.826446   23.749819 H          1 MOL1         0.0976
      20    C6      21.132114   21.325075   22.841569 C.3        1 MOL1        -0.2365
      21    H14     22.142781   21.414492   22.422137 H          1 MOL1         0.0987
      22    H15     21.060108   22.013766   23.693449 H          1 MOL1         0.0987
      23    H16     20.416227   21.657334   22.078761 H          1 MOL1         0.0987
@<TRIPOS>BOND
    1     1     2    1
    2     1     3    1
    3     1     4    1
    4     1     5    1
    5     5     6    1
    6     5     7    1
    7     5     8    1
    8     8     9    1
    9     8    10    1
   10     8    11    1
   11    11    12    1
   12    11    13    1
   13    11    14    1
   14    14    15    1
   15    14    16    1
   16    14    17    1
   17    17    18    1
   18    17    19    1
   19    17    20    1
   20    20    21    1
   21    20    22    1
   22    20    23    1
@<TRIPOS>SUBSTRUCTURE
       1 MOL1            1 RESIDUE      1      MOL     
@<SCITEGIC>MOL_PROPERTY
VConf Rank
SciTegic.value.IntegerValue
559

@<SCITEGIC>MOL_PROPERTY
Conf_Id
SciTegic.value.IntegerValue
82

@<SCITEGIC>MOL_PROPERTY
Delta U+W
SciTegic.value.DoubleValue
5.994

@<SCITEGIC>MOL_PROPERTY
U+W
SciTegic.value.DoubleValue
-2.388

@<SCITEGIC>MOL_PROPERTY
Grad RMS
SciTegic.value.DoubleValue
0.000000

@<SCITEGIC>MOL_PROPERTY
U
SciTegic.value.DoubleValue
52.836

@<SCITEGIC>MOL_PROPERTY
W
SciTegic.value.DoubleValue
-55.224

@<SCITEGIC>MOL_PROPERTY
W(PB)
SciTegic.value.DoubleValue
-57.261

@<SCITEGIC>MOL_PROPERTY
W(SA)
SciTegic.value.DoubleValue
2.037

@<SCITEGIC>MOL_PROPERTY
Valence
SciTegic.value.DoubleValue
5.785

@<SCITEGIC>MOL_PROPERTY
Coulomb
SciTegic.value.DoubleValue
46.744

@<SCITEGIC>MOL_PROPERTY
VdW
SciTegic.value.DoubleValue
0.307

@<SCITEGIC>MOL_PROPERTY
VdW6
SciTegic.value.DoubleValue
-7.672

@<SCITEGIC>MOL_PROPERTY
VdW12
SciTegic.value.DoubleValue
7.979

@<SCITEGIC>MOL_PROPERTY
Bond
SciTegic.value.DoubleValue
0.217

@<SCITEGIC>MOL_PROPERTY
Angle
SciTegic.value.DoubleValue
1.470

@<SCITEGIC>MOL_PROPERTY
Pdih
SciTegic.value.DoubleValue
4.098

@<SCITEGIC>MOL_PROPERTY
Idih
SciTegic.value.DoubleValue
0.000

@<SCITEGIC>MOL_PROPERTY
Tether
SciTegic.value.DoubleValue
0.000

@<TRIPOS>MOLECULE
guest-2_confgen4.mol2 : confsearch ligand conformer 560
          23          22           1
SMALL
USER_CHARGES
 
@<TRIPOS>ATOM
       1    N1      21.062814   19.442867   20.935509 N.4        1 MOL1        -0.5940
       2    H1      20.842281   18.989991   20.042602 H          1 MOL1         0.3649
       3    H2      21.657575   20.250892   20.721832 H          1 MOL1         0.3649
       4    H3      20.183867   19.801905   21.321797 H          1 MOL1         0.3649
       5    C1      21.738369   18.485463   21.898140 C.3        1 MOL1         0.0207
       6    H4      22.009366   19.033178   22.804616 H          1 MOL1         0.0950
       7    H5      22.660531   18.147361   21.417708 H          1 MOL1         0.0950
       8    C2      20.881943   17.256293   22.264737 C.3        1 MOL1        -0.1415
       9    H6      20.397628   16.859145   21.362747 H          1 MOL1         0.0976
      10    H7      21.562304   16.466643   22.610279 H          1 MOL1         0.0976
      11    C3      19.826366   17.492767   23.378268 C.3        1 MOL1        -0.1375
      12    H8      20.327077   17.762596   24.318455 H          1 MOL1         0.0976
      13    H9      19.334270   16.529929   23.573943 H          1 MOL1         0.0976
      14    C4      18.727805   18.533126   23.040509 C.3        1 MOL1        -0.1375
      15    H10     18.554622   18.563395   21.956619 H          1 MOL1         0.0976
      16    H11     17.779761   18.195124   23.481763 H          1 MOL1         0.0976
      17    C5      19.033823   19.945148   23.596968 C.3        1 MOL1        -0.1350
      18    H12     20.037900   20.275842   23.305840 H          1 MOL1         0.0976
      19    H13     19.033948   19.909157   24.695530 H          1 MOL1         0.0976
      20    C6      17.993718   20.982637   23.124077 C.3        1 MOL1        -0.2365
      21    H14     17.987527   21.070669   22.030012 H          1 MOL1         0.0987
      22    H15     18.217964   21.973455   23.540217 H          1 MOL1         0.0987
      23    H16     16.982982   20.703003   23.449017 H          1 MOL1         0.0987
@<TRIPOS>BOND
    1     1     2    1
    2     1     3    1
    3     1     4    1
    4     1     5    1
    5     5     6    1
    6     5     7    1
    7     5     8    1
    8     8     9    1
    9     8    10    1
   10     8    11    1
   11    11    12    1
   12    11    13    1
   13    11    14    1
   14    14    15    1
   15    14    16    1
   16    14    17    1
   17    17    18    1
   18    17    19    1
   19    17    20    1
   20    20    21    1
   21    20    22    1
   22    20    23    1
@<TRIPOS>SUBSTRUCTURE
       1 MOL1            1 RESIDUE      1      MOL     
@<SCITEGIC>MOL_PROPERTY
VConf Rank
SciTegic.value.IntegerValue
560

@<SCITEGIC>MOL_PROPERTY
Conf_Id
SciTegic.value.IntegerValue
5

@<SCITEGIC>MOL_PROPERTY
Delta U+W
SciTegic.value.DoubleValue
6.087

@<SCITEGIC>MOL_PROPERTY
U+W
SciTegic.value.DoubleValue
-2.295

@<SCITEGIC>MOL_PROPERTY
Grad RMS
SciTegic.value.DoubleValue
0.000000

@<SCITEGIC>MOL_PROPERTY
U
SciTegic.value.DoubleValue
52.836

@<SCITEGIC>MOL_PROPERTY
W
SciTegic.value.DoubleValue
-55.131

@<SCITEGIC>MOL_PROPERTY
W(PB)
SciTegic.value.DoubleValue
-57.202

@<SCITEGIC>MOL_PROPERTY
W(SA)
SciTegic.value.DoubleValue
2.071

@<SCITEGIC>MOL_PROPERTY
Valence
SciTegic.value.DoubleValue
5.785

@<SCITEGIC>MOL_PROPERTY
Coulomb
SciTegic.value.DoubleValue
46.744

@<SCITEGIC>MOL_PROPERTY
VdW
SciTegic.value.DoubleValue
0.307

@<SCITEGIC>MOL_PROPERTY
VdW6
SciTegic.value.DoubleValue
-7.672

@<SCITEGIC>MOL_PROPERTY
VdW12
SciTegic.value.DoubleValue
7.980

@<SCITEGIC>MOL_PROPERTY
Bond
SciTegic.value.DoubleValue
0.217

@<SCITEGIC>MOL_PROPERTY
Angle
SciTegic.value.DoubleValue
1.470

@<SCITEGIC>MOL_PROPERTY
Pdih
SciTegic.value.DoubleValue
4.098

@<SCITEGIC>MOL_PROPERTY
Idih
SciTegic.value.DoubleValue
0.000

@<SCITEGIC>MOL_PROPERTY
Tether
SciTegic.value.DoubleValue
0.000

@<TRIPOS>MOLECULE
guest-2_confgen4.mol2 : confsearch ligand conformer 561
          23          22           1
SMALL
USER_CHARGES
 
@<TRIPOS>ATOM
       1    N1      22.951824   20.844247   23.730563 N.4        1 MOL1        -0.5940
       2    H1      22.475744   21.603638   24.228114 H          1 MOL1         0.3649
       3    H2      23.811151   21.240315   23.334609 H          1 MOL1         0.3649
       4    H3      23.237996   20.155659   24.434009 H          1 MOL1         0.3649
       5    C1      22.071345   20.228798   22.661976 C.3        1 MOL1         0.0207
       6    H4      22.649313   19.451375   22.154964 H          1 MOL1         0.0950
       7    H5      21.830039   21.007759   21.933630 H          1 MOL1         0.0950
       8    C2      20.772191   19.624882   23.224170 C.3        1 MOL1        -0.1415
       9    H6      21.019309   18.854584   23.966918 H          1 MOL1         0.0976
      10    H7      20.202982   20.405466   23.746460 H          1 MOL1         0.0976
      11    C3      19.904195   19.008872   22.104661 C.3        1 MOL1        -0.1375
      12    H8      20.479029   18.232153   21.581138 H          1 MOL1         0.0976
      13    H9      19.663540   19.781395   21.360957 H          1 MOL1         0.0976
      14    C4      18.596277   18.399097   22.658309 C.3        1 MOL1        -0.1375
      15    H10     18.836739   17.626537   23.401843 H          1 MOL1         0.0976
      16    H11     18.021379   19.175610   23.181790 H          1 MOL1         0.0976
      17    C5      17.728382   17.783194   21.538406 C.3        1 MOL1        -0.1350
      18    H12     18.298345   17.003929   21.013181 H          1 MOL1         0.0976
      19    H13     17.483050   18.552865   20.793161 H          1 MOL1         0.0976
      20    C6      16.423322   17.175330   22.095027 C.3        1 MOL1        -0.2365
      21    H14     15.820831   16.743201   21.285512 H          1 MOL1         0.0987
      22    H15     15.814842   17.938870   22.597011 H          1 MOL1         0.0987
      23    H16     16.636507   16.377851   22.818772 H          1 MOL1         0.0987
@<TRIPOS>BOND
    1     1     2    1
    2     1     3    1
    3     1     4    1
    4     1     5    1
    5     5     6    1
    6     5     7    1
    7     5     8    1
    8     8     9    1
    9     8    10    1
   10     8    11    1
   11    11    12    1
   12    11    13    1
   13    11    14    1
   14    14    15    1
   15    14    16    1
   16    14    17    1
   17    17    18    1
   18    17    19    1
   19    17    20    1
   20    20    21    1
   21    20    22    1
   22    20    23    1
@<TRIPOS>SUBSTRUCTURE
       1 MOL1            1 RESIDUE      1      MOL     
@<SCITEGIC>MOL_PROPERTY
VConf Rank
SciTegic.value.IntegerValue
561

@<SCITEGIC>MOL_PROPERTY
Conf_Id
SciTegic.value.IntegerValue
40

@<SCITEGIC>MOL_PROPERTY
Delta U+W
SciTegic.value.DoubleValue
0.000

@<SCITEGIC>MOL_PROPERTY
U+W
SciTegic.value.DoubleValue
-8.382

@<SCITEGIC>MOL_PROPERTY
Grad RMS
SciTegic.value.DoubleValue
0.000000

@<SCITEGIC>MOL_PROPERTY
U
SciTegic.value.DoubleValue
46.604

@<SCITEGIC>MOL_PROPERTY
W
SciTegic.value.DoubleValue
-54.986

@<SCITEGIC>MOL_PROPERTY
W(PB)
SciTegic.value.DoubleValue
-57.162

@<SCITEGIC>MOL_PROPERTY
W(SA)
SciTegic.value.DoubleValue
2.176

@<SCITEGIC>MOL_PROPERTY
Valence
SciTegic.value.DoubleValue
1.727

@<SCITEGIC>MOL_PROPERTY
Coulomb
SciTegic.value.DoubleValue
44.434

@<SCITEGIC>MOL_PROPERTY
VdW
SciTegic.value.DoubleValue
0.443

@<SCITEGIC>MOL_PROPERTY
VdW6
SciTegic.value.DoubleValue
-4.623

@<SCITEGIC>MOL_PROPERTY
VdW12
SciTegic.value.DoubleValue
5.066

@<SCITEGIC>MOL_PROPERTY
Bond
SciTegic.value.DoubleValue
0.112

@<SCITEGIC>MOL_PROPERTY
Angle
SciTegic.value.DoubleValue
0.386

@<SCITEGIC>MOL_PROPERTY
Pdih
SciTegic.value.DoubleValue
1.228

@<SCITEGIC>MOL_PROPERTY
Idih
SciTegic.value.DoubleValue
0.000

@<SCITEGIC>MOL_PROPERTY
Tether
SciTegic.value.DoubleValue
0.000

@<TRIPOS>MOLECULE
guest-2_confgen4.mol2 : confsearch ligand conformer 562
          23          22           1
SMALL
USER_CHARGES
 
@<TRIPOS>ATOM
       1    N1      18.334580   20.205948   25.664967 N.4        1 MOL1        -0.5940
       2    H1      17.736803   21.019334   25.486349 H          1 MOL1         0.3649
       3    H2      19.203164   20.555930   26.081989 H          1 MOL1         0.3649
       4    H3      17.865072   19.643138   26.382489 H          1 MOL1         0.3649
       5    C1      18.594455   19.407394   24.403793 C.3        1 MOL1         0.0207
       6    H4      17.633374   19.042997   24.031032 H          1 MOL1         0.0950
       7    H5      19.208261   18.544561   24.674498 H          1 MOL1         0.0950
       8    C2      19.299176   20.226315   23.305673 C.3        1 MOL1        -0.1415
       9    H6      18.694274   21.114227   23.078397 H          1 MOL1         0.0976
      10    H7      20.265146   20.591579   23.679128 H          1 MOL1         0.0976
      11    C3      19.516195   19.421377   22.002370 C.3        1 MOL1        -0.1375
      12    H8      19.914900   20.103318   21.240168 H          1 MOL1         0.0976
      13    H9      18.547154   19.065508   21.625954 H          1 MOL1         0.0976
      14    C4      20.480815   18.221468   22.182090 C.3        1 MOL1        -0.1375
      15    H10     21.456165   18.580316   22.538660 H          1 MOL1         0.0976
      16    H11     20.093839   17.552578   22.962053 H          1 MOL1         0.0976
      17    C5      20.677674   17.390723   20.890720 C.3        1 MOL1        -0.1350
      18    H12     19.706045   17.020201   20.535123 H          1 MOL1         0.0976
      19    H13     21.275480   16.500811   21.132705 H          1 MOL1         0.0976
      20    C6      21.383939   18.169661   19.757655 C.3        1 MOL1        -0.2365
      21    H14     20.766421   18.999099   19.391648 H          1 MOL1         0.0987
      22    H15     21.585191   17.508322   18.904968 H          1 MOL1         0.0987
      23    H16     22.343876   18.578864   20.098367 H          1 MOL1         0.0987
@<TRIPOS>BOND
    1     1     2    1
    2     1     3    1
    3     1     4    1
    4     1     5    1
    5     5     6    1
    6     5     7    1
    7     5     8    1
    8     8     9    1
    9     8    10    1
   10     8    11    1
   11    11    12    1
   12    11    13    1
   13    11    14    1
   14    14    15    1
   15    14    16    1
   16    14    17    1
   17    17    18    1
   18    17    19    1
   19    17    20    1
   20    20    21    1
   21    20    22    1
   22    20    23    1
@<TRIPOS>SUBSTRUCTURE
       1 MOL1            1 RESIDUE      1      MOL     
@<SCITEGIC>MOL_PROPERTY
VConf Rank
SciTegic.value.IntegerValue
562

@<SCITEGIC>MOL_PROPERTY
Conf_Id
SciTegic.value.IntegerValue
65

@<SCITEGIC>MOL_PROPERTY
Delta U+W
SciTegic.value.DoubleValue
1.004

@<SCITEGIC>MOL_PROPERTY
U+W
SciTegic.value.DoubleValue
-7.378

@<SCITEGIC>MOL_PROPERTY
Grad RMS
SciTegic.value.DoubleValue
0.000000

@<SCITEGIC>MOL_PROPERTY
U
SciTegic.value.DoubleValue
48.047

@<SCITEGIC>MOL_PROPERTY
W
SciTegic.value.DoubleValue
-55.425

@<SCITEGIC>MOL_PROPERTY
W(PB)
SciTegic.value.DoubleValue
-57.542

@<SCITEGIC>MOL_PROPERTY
W(SA)
SciTegic.value.DoubleValue
2.116

@<SCITEGIC>MOL_PROPERTY
Valence
SciTegic.value.DoubleValue
2.583

@<SCITEGIC>MOL_PROPERTY
Coulomb
SciTegic.value.DoubleValue
44.791

@<SCITEGIC>MOL_PROPERTY
VdW
SciTegic.value.DoubleValue
0.673

@<SCITEGIC>MOL_PROPERTY
VdW6
SciTegic.value.DoubleValue
-5.788

@<SCITEGIC>MOL_PROPERTY
VdW12
SciTegic.value.DoubleValue
6.462

@<SCITEGIC>MOL_PROPERTY
Bond
SciTegic.value.DoubleValue
0.177

@<SCITEGIC>MOL_PROPERTY
Angle
SciTegic.value.DoubleValue
0.787

@<SCITEGIC>MOL_PROPERTY
Pdih
SciTegic.value.DoubleValue
1.619

@<SCITEGIC>MOL_PROPERTY
Idih
SciTegic.value.DoubleValue
0.000

@<SCITEGIC>MOL_PROPERTY
Tether
SciTegic.value.DoubleValue
0.000

@<TRIPOS>MOLECULE
guest-2_confgen4.mol2 : confsearch ligand conformer 563
          23          22           1
SMALL
USER_CHARGES
 
@<TRIPOS>ATOM
       1    N1      18.794400   15.583708   22.734963 N.4        1 MOL1        -0.5940
       2    H1      17.779810   15.495950   22.617723 H          1 MOL1         0.3649
       3    H2      19.073918   14.891382   23.438228 H          1 MOL1         0.3649
       4    H3      19.225868   15.299797   21.849489 H          1 MOL1         0.3649
       5    C1      19.197870   16.988060   23.135941 C.3        1 MOL1         0.0207
       6    H4      20.282205   16.998663   23.272417 H          1 MOL1         0.0950
       7    H5      18.727572   17.212885   24.097025 H          1 MOL1         0.0950
       8    C2      18.791147   18.051968   22.098729 C.3        1 MOL1        -0.1415
       9    H6      19.264205   17.827310   21.133468 H          1 MOL1         0.0976
      10    H7      17.706332   17.997083   21.937140 H          1 MOL1         0.0976
      11    C3      19.159995   19.489262   22.536624 C.3        1 MOL1        -0.1375
      12    H8      18.677368   19.714618   23.497694 H          1 MOL1         0.0976
      13    H9      18.738192   20.190000   21.804495 H          1 MOL1         0.0976
      14    C4      20.688923   19.716267   22.652483 C.3        1 MOL1        -0.1375
      15    H10     21.113849   18.998602   23.366556 H          1 MOL1         0.0976
      16    H11     21.168357   19.510806   21.685452 H          1 MOL1         0.0976
      17    C5      21.065969   21.142314   23.122317 C.3        1 MOL1        -0.1350
      18    H12     22.151401   21.181859   23.290084 H          1 MOL1         0.0976
      19    H13     20.597509   21.349568   24.094629 H          1 MOL1         0.0976
      20    C6      20.679549   22.246968   22.112461 C.3        1 MOL1        -0.2365
      21    H14     19.591340   22.333253   22.004696 H          1 MOL1         0.0987
      22    H15     21.108992   22.045085   21.122596 H          1 MOL1         0.0987
      23    H16     21.055119   23.222243   22.448214 H          1 MOL1         0.0987
@<TRIPOS>BOND
    1     1     2    1
    2     1     3    1
    3     1     4    1
    4     1     5    1
    5     5     6    1
    6     5     7    1
    7     5     8    1
    8     8     9    1
    9     8    10    1
   10     8    11    1
   11    11    12    1
   12    11    13    1
   13    11    14    1
   14    14    15    1
   15    14    16    1
   16    14    17    1
   17    17    18    1
   18    17    19    1
   19    17    20    1
   20    20    21    1
   21    20    22    1
   22    20    23    1
@<TRIPOS>SUBSTRUCTURE
       1 MOL1            1 RESIDUE      1      MOL     
@<SCITEGIC>MOL_PROPERTY
VConf Rank
SciTegic.value.IntegerValue
563

@<SCITEGIC>MOL_PROPERTY
Conf_Id
SciTegic.value.IntegerValue
92

@<SCITEGIC>MOL_PROPERTY
Delta U+W
SciTegic.value.DoubleValue
0.973

@<SCITEGIC>MOL_PROPERTY
U+W
SciTegic.value.DoubleValue
-7.409

@<SCITEGIC>MOL_PROPERTY
Grad RMS
SciTegic.value.DoubleValue
0.000000

@<SCITEGIC>MOL_PROPERTY
U
SciTegic.value.DoubleValue
48.047

@<SCITEGIC>MOL_PROPERTY
W
SciTegic.value.DoubleValue
-55.456

@<SCITEGIC>MOL_PROPERTY
W(PB)
SciTegic.value.DoubleValue
-57.595

@<SCITEGIC>MOL_PROPERTY
W(SA)
SciTegic.value.DoubleValue
2.138

@<SCITEGIC>MOL_PROPERTY
Valence
SciTegic.value.DoubleValue
2.583

@<SCITEGIC>MOL_PROPERTY
Coulomb
SciTegic.value.DoubleValue
44.791

@<SCITEGIC>MOL_PROPERTY
VdW
SciTegic.value.DoubleValue
0.674

@<SCITEGIC>MOL_PROPERTY
VdW6
SciTegic.value.DoubleValue
-5.789

@<SCITEGIC>MOL_PROPERTY
VdW12
SciTegic.value.DoubleValue
6.462

@<SCITEGIC>MOL_PROPERTY
Bond
SciTegic.value.DoubleValue
0.177

@<SCITEGIC>MOL_PROPERTY
Angle
SciTegic.value.DoubleValue
0.787

@<SCITEGIC>MOL_PROPERTY
Pdih
SciTegic.value.DoubleValue
1.619

@<SCITEGIC>MOL_PROPERTY
Idih
SciTegic.value.DoubleValue
0.000

@<SCITEGIC>MOL_PROPERTY
Tether
SciTegic.value.DoubleValue
0.000

@<TRIPOS>MOLECULE
guest-2_confgen4.mol2 : confsearch ligand conformer 564
          23          22           1
SMALL
USER_CHARGES
 
@<TRIPOS>ATOM
       1    N1      22.777314   20.780681   22.453949 N.4        1 MOL1        -0.5940
       2    H1      23.682505   20.299631   22.418543 H          1 MOL1         0.3649
       3    H2      22.877528   21.554935   23.118284 H          1 MOL1         0.3649
       4    H3      22.623810   21.195086   21.528992 H          1 MOL1         0.3649
       5    C1      21.655232   19.840972   22.845940 C.3        1 MOL1         0.0207
       6    H4      21.897093   19.415745   23.823745 H          1 MOL1         0.0950
       7    H5      21.627317   19.028979   22.114789 H          1 MOL1         0.0950
       8    C2      20.281231   20.534591   22.908164 C.3        1 MOL1        -0.1415
       9    H6      20.335512   21.375367   23.612505 H          1 MOL1         0.0976
      10    H7      20.038753   20.962388   21.926232 H          1 MOL1         0.0976
      11    C3      19.148689   19.579433   23.353196 C.3        1 MOL1        -0.1375
      12    H8      18.222217   20.159658   23.464727 H          1 MOL1         0.0976
      13    H9      19.381809   19.172825   24.347165 H          1 MOL1         0.0976
      14    C4      18.905555   18.419212   22.358090 C.3        1 MOL1        -0.1375
      15    H10     18.705427   18.828750   21.358268 H          1 MOL1         0.0976
      16    H11     19.809335   17.801045   22.273775 H          1 MOL1         0.0976
      17    C5      17.721637   17.527757   22.794459 C.3        1 MOL1        -0.1350
      18    H12     16.808947   18.134901   22.874033 H          1 MOL1         0.0976
      19    H13     17.916341   17.115851   23.794660 H          1 MOL1         0.0976
      20    C6      17.480932   16.370240   21.802099 C.3        1 MOL1        -0.2365
      21    H14     17.250249   16.751837   20.798906 H          1 MOL1         0.0987
      22    H15     16.636712   15.749100   22.128477 H          1 MOL1         0.0987
      23    H16     18.365253   15.724042   21.727099 H          1 MOL1         0.0987
@<TRIPOS>BOND
    1     1     2    1
    2     1     3    1
    3     1     4    1
    4     1     5    1
    5     5     6    1
    6     5     7    1
    7     5     8    1
    8     8     9    1
    9     8    10    1
   10     8    11    1
   11    11    12    1
   12    11    13    1
   13    11    14    1
   14    14    15    1
   15    14    16    1
   16    14    17    1
   17    17    18    1
   18    17    19    1
   19    17    20    1
   20    20    21    1
   21    20    22    1
   22    20    23    1
@<TRIPOS>SUBSTRUCTURE
       1 MOL1            1 RESIDUE      1      MOL     
@<SCITEGIC>MOL_PROPERTY
VConf Rank
SciTegic.value.IntegerValue
564

@<SCITEGIC>MOL_PROPERTY
Conf_Id
SciTegic.value.IntegerValue
42

@<SCITEGIC>MOL_PROPERTY
Delta U+W
SciTegic.value.DoubleValue
0.365

@<SCITEGIC>MOL_PROPERTY
U+W
SciTegic.value.DoubleValue
-8.017

@<SCITEGIC>MOL_PROPERTY
Grad RMS
SciTegic.value.DoubleValue
0.000000

@<SCITEGIC>MOL_PROPERTY
U
SciTegic.value.DoubleValue
47.375

@<SCITEGIC>MOL_PROPERTY
W
SciTegic.value.DoubleValue
-55.392

@<SCITEGIC>MOL_PROPERTY
W(PB)
SciTegic.value.DoubleValue
-57.543

@<SCITEGIC>MOL_PROPERTY
W(SA)
SciTegic.value.DoubleValue
2.152

@<SCITEGIC>MOL_PROPERTY
Valence
SciTegic.value.DoubleValue
2.032

@<SCITEGIC>MOL_PROPERTY
Coulomb
SciTegic.value.DoubleValue
44.843

@<SCITEGIC>MOL_PROPERTY
VdW
SciTegic.value.DoubleValue
0.499

@<SCITEGIC>MOL_PROPERTY
VdW6
SciTegic.value.DoubleValue
-5.218

@<SCITEGIC>MOL_PROPERTY
VdW12
SciTegic.value.DoubleValue
5.717

@<SCITEGIC>MOL_PROPERTY
Bond
SciTegic.value.DoubleValue
0.135

@<SCITEGIC>MOL_PROPERTY
Angle
SciTegic.value.DoubleValue
0.514

@<SCITEGIC>MOL_PROPERTY
Pdih
SciTegic.value.DoubleValue
1.383

@<SCITEGIC>MOL_PROPERTY
Idih
SciTegic.value.DoubleValue
0.000

@<SCITEGIC>MOL_PROPERTY
Tether
SciTegic.value.DoubleValue
0.000

@<TRIPOS>MOLECULE
guest-2_confgen4.mol2 : confsearch ligand conformer 565
          23          22           1
SMALL
USER_CHARGES
 
@<TRIPOS>ATOM
       1    N1      19.464473   20.533039   19.860545 N.4        1 MOL1        -0.5940
       2    H1      18.566827   20.952762   20.122645 H          1 MOL1         0.3649
       3    H2      19.553430   20.628902   18.843272 H          1 MOL1         0.3649
       4    H3      20.201466   21.107397   20.280492 H          1 MOL1         0.3649
       5    C1      19.559219   19.084621   20.299514 C.3        1 MOL1         0.0207
       6    H4      20.524963   18.691752   19.970251 H          1 MOL1         0.0950
       7    H5      18.771898   18.530617   19.781077 H          1 MOL1         0.0950
       8    C2      19.407637   18.882475   21.819840 C.3        1 MOL1        -0.1415
       9    H6      18.449241   19.302491   22.152575 H          1 MOL1         0.0976
      10    H7      19.368461   17.803285   22.012020 H          1 MOL1         0.0976
      11    C3      20.572808   19.506678   22.625788 C.3        1 MOL1        -0.1375
      12    H8      20.678587   20.565282   22.354678 H          1 MOL1         0.0976
      13    H9      21.515624   19.021766   22.337057 H          1 MOL1         0.0976
      14    C4      20.402004   19.423997   24.164959 C.3        1 MOL1        -0.1375
      15    H10     21.261799   19.934878   24.620195 H          1 MOL1         0.0976
      16    H11     19.518681   19.997463   24.478173 H          1 MOL1         0.0976
      17    C5      20.338152   17.984699   24.738356 C.3        1 MOL1        -0.1350
      18    H12     20.846818   17.973138   25.712572 H          1 MOL1         0.0976
      19    H13     20.900260   17.292010   24.096627 H          1 MOL1         0.0976
      20    C6      18.894371   17.471665   24.949430 C.3        1 MOL1        -0.2365
      21    H14     18.348236   18.116814   25.649843 H          1 MOL1         0.0987
      22    H15     18.904870   16.457980   25.370437 H          1 MOL1         0.0987
      23    H16     18.327432   17.436110   24.012714 H          1 MOL1         0.0987
@<TRIPOS>BOND
    1     1     2    1
    2     1     3    1
    3     1     4    1
    4     1     5    1
    5     5     6    1
    6     5     7    1
    7     5     8    1
    8     8     9    1
    9     8    10    1
   10     8    11    1
   11    11    12    1
   12    11    13    1
   13    11    14    1
   14    14    15    1
   15    14    16    1
   16    14    17    1
   17    17    18    1
   18    17    19    1
   19    17    20    1
   20    20    21    1
   21    20    22    1
   22    20    23    1
@<TRIPOS>SUBSTRUCTURE
       1 MOL1            1 RESIDUE      1      MOL     
@<SCITEGIC>MOL_PROPERTY
VConf Rank
SciTegic.value.IntegerValue
565

@<SCITEGIC>MOL_PROPERTY
Conf_Id
SciTegic.value.IntegerValue
3

@<SCITEGIC>MOL_PROPERTY
Delta U+W
SciTegic.value.DoubleValue
3.283

@<SCITEGIC>MOL_PROPERTY
U+W
SciTegic.value.DoubleValue
-5.099

@<SCITEGIC>MOL_PROPERTY
Grad RMS
SciTegic.value.DoubleValue
0.000000

@<SCITEGIC>MOL_PROPERTY
U
SciTegic.value.DoubleValue
50.701

@<SCITEGIC>MOL_PROPERTY
W
SciTegic.value.DoubleValue
-55.800

@<SCITEGIC>MOL_PROPERTY
W(PB)
SciTegic.value.DoubleValue
-57.867

@<SCITEGIC>MOL_PROPERTY
W(SA)
SciTegic.value.DoubleValue
2.067

@<SCITEGIC>MOL_PROPERTY
Valence
SciTegic.value.DoubleValue
4.880

@<SCITEGIC>MOL_PROPERTY
Coulomb
SciTegic.value.DoubleValue
45.095

@<SCITEGIC>MOL_PROPERTY
VdW
SciTegic.value.DoubleValue
0.726

@<SCITEGIC>MOL_PROPERTY
VdW6
SciTegic.value.DoubleValue
-6.620

@<SCITEGIC>MOL_PROPERTY
VdW12
SciTegic.value.DoubleValue
7.346

@<SCITEGIC>MOL_PROPERTY
Bond
SciTegic.value.DoubleValue
0.222

@<SCITEGIC>MOL_PROPERTY
Angle
SciTegic.value.DoubleValue
1.260

@<SCITEGIC>MOL_PROPERTY
Pdih
SciTegic.value.DoubleValue
3.398

@<SCITEGIC>MOL_PROPERTY
Idih
SciTegic.value.DoubleValue
0.000

@<SCITEGIC>MOL_PROPERTY
Tether
SciTegic.value.DoubleValue
0.000

@<TRIPOS>MOLECULE
guest-2_confgen4.mol2 : confsearch ligand conformer 566
          23          22           1
SMALL
USER_CHARGES
 
@<TRIPOS>ATOM
       1    N1      18.221323   21.422658   21.945075 N.4        1 MOL1        -0.5940
       2    H1      18.326674   21.735605   20.974756 H          1 MOL1         0.3649
       3    H2      17.534226   22.042921   22.386670 H          1 MOL1         0.3649
       4    H3      17.807582   20.485798   21.918423 H          1 MOL1         0.3649
       5    C1      19.544170   21.429162   22.685565 C.3        1 MOL1         0.0207
       6    H4      19.357536   21.116858   23.716159 H          1 MOL1         0.0950
       7    H5      19.909121   22.459668   22.705435 H          1 MOL1         0.0950
       8    C2      20.615500   20.519962   22.049259 C.3        1 MOL1        -0.1415
       9    H6      20.829906   20.876893   21.033171 H          1 MOL1         0.0976
      10    H7      21.550605   20.628469   22.614648 H          1 MOL1         0.0976
      11    C3      20.224425   19.021470   21.992449 C.3        1 MOL1        -0.1375
      12    H8      21.033758   18.478057   21.487911 H          1 MOL1         0.0976
      13    H9      19.332076   18.891260   21.365945 H          1 MOL1         0.0976
      14    C4      19.978094   18.401827   23.391660 C.3        1 MOL1        -0.1375
      15    H10     20.881413   18.508346   24.007969 H          1 MOL1         0.0976
      16    H11     19.185292   18.959911   23.906793 H          1 MOL1         0.0976
      17    C5      19.561003   16.911896   23.340799 C.3        1 MOL1        -0.1350
      18    H12     18.651301   16.800564   22.734356 H          1 MOL1         0.0976
      19    H13     19.294509   16.586535   24.356173 H          1 MOL1         0.0976
      20    C6      20.667047   15.979805   22.795620 C.3        1 MOL1        -0.2365
      21    H14     21.598308   16.096813   23.364890 H          1 MOL1         0.0987
      22    H15     20.881523   16.182111   21.739061 H          1 MOL1         0.0987
      23    H16     20.356567   14.929778   22.872961 H          1 MOL1         0.0987
@<TRIPOS>BOND
    1     1     2    1
    2     1     3    1
    3     1     4    1
    4     1     5    1
    5     5     6    1
    6     5     7    1
    7     5     8    1
    8     8     9    1
    9     8    10    1
   10     8    11    1
   11    11    12    1
   12    11    13    1
   13    11    14    1
   14    14    15    1
   15    14    16    1
   16    14    17    1
   17    17    18    1
   18    17    19    1
   19    17    20    1
   20    20    21    1
   21    20    22    1
   22    20    23    1
@<TRIPOS>SUBSTRUCTURE
       1 MOL1            1 RESIDUE      1      MOL     
@<SCITEGIC>MOL_PROPERTY
VConf Rank
SciTegic.value.IntegerValue
566

@<SCITEGIC>MOL_PROPERTY
Conf_Id
SciTegic.value.IntegerValue
83

@<SCITEGIC>MOL_PROPERTY
Delta U+W
SciTegic.value.DoubleValue
1.229

@<SCITEGIC>MOL_PROPERTY
U+W
SciTegic.value.DoubleValue
-7.154

@<SCITEGIC>MOL_PROPERTY
Grad RMS
SciTegic.value.DoubleValue
0.000000

@<SCITEGIC>MOL_PROPERTY
U
SciTegic.value.DoubleValue
48.727

@<SCITEGIC>MOL_PROPERTY
W
SciTegic.value.DoubleValue
-55.880

@<SCITEGIC>MOL_PROPERTY
W(PB)
SciTegic.value.DoubleValue
-57.960

@<SCITEGIC>MOL_PROPERTY
W(SA)
SciTegic.value.DoubleValue
2.080

@<SCITEGIC>MOL_PROPERTY
Valence
SciTegic.value.DoubleValue
2.671

@<SCITEGIC>MOL_PROPERTY
Coulomb
SciTegic.value.DoubleValue
45.371

@<SCITEGIC>MOL_PROPERTY
VdW
SciTegic.value.DoubleValue
0.684

@<SCITEGIC>MOL_PROPERTY
VdW6
SciTegic.value.DoubleValue
-6.511

@<SCITEGIC>MOL_PROPERTY
VdW12
SciTegic.value.DoubleValue
7.195

@<SCITEGIC>MOL_PROPERTY
Bond
SciTegic.value.DoubleValue
0.203

@<SCITEGIC>MOL_PROPERTY
Angle
SciTegic.value.DoubleValue
0.915

@<SCITEGIC>MOL_PROPERTY
Pdih
SciTegic.value.DoubleValue
1.554

@<SCITEGIC>MOL_PROPERTY
Idih
SciTegic.value.DoubleValue
0.000

@<SCITEGIC>MOL_PROPERTY
Tether
SciTegic.value.DoubleValue
0.000

@<TRIPOS>MOLECULE
guest-2_confgen4.mol2 : confsearch ligand conformer 567
          23          22           1
SMALL
USER_CHARGES
 
@<TRIPOS>ATOM
       1    N1      21.413678   17.959600   20.474968 N.4        1 MOL1        -0.5940
       2    H1      21.427965   18.535958   19.627524 H          1 MOL1         0.3649
       3    H2      20.452452   17.627954   20.600094 H          1 MOL1         0.3649
       4    H3      21.994461   17.135618   20.286344 H          1 MOL1         0.3649
       5    C1      21.902545   18.728094   21.686876 C.3        1 MOL1         0.0207
       6    H4      22.939533   19.019833   21.499608 H          1 MOL1         0.0950
       7    H5      21.891647   18.051139   22.544841 H          1 MOL1         0.0950
       8    C2      21.066989   19.985756   22.002170 C.3        1 MOL1        -0.1415
       9    H6      21.522178   20.506386   22.855170 H          1 MOL1         0.0976
      10    H7      21.129433   20.678872   21.152762 H          1 MOL1         0.0976
      11    C3      19.577424   19.696181   22.316797 C.3        1 MOL1        -0.1375
      12    H8      19.091508   19.243675   21.442227 H          1 MOL1         0.0976
      13    H9      19.072604   20.656449   22.483876 H          1 MOL1         0.0976
      14    C4      19.381452   18.785488   23.555613 C.3        1 MOL1        -0.1375
      15    H10     19.906449   17.833982   23.399510 H          1 MOL1         0.0976
      16    H11     19.844205   19.252947   24.435676 H          1 MOL1         0.0976
      17    C5      17.896662   18.470251   23.859699 C.3        1 MOL1        -0.1350
      18    H12     17.853335   17.731941   24.672647 H          1 MOL1         0.0976
      19    H13     17.431193   17.992482   22.986313 H          1 MOL1         0.0976
      20    C6      17.074408   19.712107   24.273261 C.3        1 MOL1        -0.2365
      21    H14     17.537854   20.227085   25.124744 H          1 MOL1         0.0987
      22    H15     16.059474   19.418567   24.571053 H          1 MOL1         0.0987
      23    H16     16.980489   20.427949   23.447433 H          1 MOL1         0.0987
@<TRIPOS>BOND
    1     1     2    1
    2     1     3    1
    3     1     4    1
    4     1     5    1
    5     5     6    1
    6     5     7    1
    7     5     8    1
    8     8     9    1
    9     8    10    1
   10     8    11    1
   11    11    12    1
   12    11    13    1
   13    11    14    1
   14    14    15    1
   15    14    16    1
   16    14    17    1
   17    17    18    1
   18    17    19    1
   19    17    20    1
   20    20    21    1
   21    20    22    1
   22    20    23    1
@<TRIPOS>SUBSTRUCTURE
       1 MOL1            1 RESIDUE      1      MOL     
@<SCITEGIC>MOL_PROPERTY
VConf Rank
SciTegic.value.IntegerValue
567

@<SCITEGIC>MOL_PROPERTY
Conf_Id
SciTegic.value.IntegerValue
50

@<SCITEGIC>MOL_PROPERTY
Delta U+W
SciTegic.value.DoubleValue
1.252

@<SCITEGIC>MOL_PROPERTY
U+W
SciTegic.value.DoubleValue
-7.130

@<SCITEGIC>MOL_PROPERTY
Grad RMS
SciTegic.value.DoubleValue
0.000000

@<SCITEGIC>MOL_PROPERTY
U
SciTegic.value.DoubleValue
48.727

@<SCITEGIC>MOL_PROPERTY
W
SciTegic.value.DoubleValue
-55.857

@<SCITEGIC>MOL_PROPERTY
W(PB)
SciTegic.value.DoubleValue
-57.937

@<SCITEGIC>MOL_PROPERTY
W(SA)
SciTegic.value.DoubleValue
2.080

@<SCITEGIC>MOL_PROPERTY
Valence
SciTegic.value.DoubleValue
2.671

@<SCITEGIC>MOL_PROPERTY
Coulomb
SciTegic.value.DoubleValue
45.371

@<SCITEGIC>MOL_PROPERTY
VdW
SciTegic.value.DoubleValue
0.684

@<SCITEGIC>MOL_PROPERTY
VdW6
SciTegic.value.DoubleValue
-6.511

@<SCITEGIC>MOL_PROPERTY
VdW12
SciTegic.value.DoubleValue
7.196

@<SCITEGIC>MOL_PROPERTY
Bond
SciTegic.value.DoubleValue
0.203

@<SCITEGIC>MOL_PROPERTY
Angle
SciTegic.value.DoubleValue
0.915

@<SCITEGIC>MOL_PROPERTY
Pdih
SciTegic.value.DoubleValue
1.554

@<SCITEGIC>MOL_PROPERTY
Idih
SciTegic.value.DoubleValue
0.000

@<SCITEGIC>MOL_PROPERTY
Tether
SciTegic.value.DoubleValue
0.000

@<TRIPOS>MOLECULE
guest-2_confgen4.mol2 : confsearch ligand conformer 568
          23          22           1
SMALL
USER_CHARGES
 
@<TRIPOS>ATOM
       1    N1      21.956348   18.474192   20.372552 N.4        1 MOL1        -0.5940
       2    H1      22.520044   18.463281   21.227924 H          1 MOL1         0.3649
       3    H2      22.546033   18.865489   19.630201 H          1 MOL1         0.3649
       4    H3      21.767796   17.498544   20.121188 H          1 MOL1         0.3649
       5    C1      20.676719   19.267696   20.551827 C.3        1 MOL1         0.0207
       6    H4      20.151158   19.269772   19.592997 H          1 MOL1         0.0950
       7    H5      20.947905   20.298922   20.793578 H          1 MOL1         0.0950
       8    C2      19.744632   18.707413   21.643640 C.3        1 MOL1        -0.1415
       9    H6      18.808827   19.276977   21.620606 H          1 MOL1         0.0976
      10    H7      19.479387   17.670295   21.399102 H          1 MOL1         0.0976
      11    C3      20.376307   18.769838   23.057771 C.3        1 MOL1        -0.1375
      12    H8      20.731528   19.787005   23.273516 H          1 MOL1         0.0976
      13    H9      21.266661   18.127115   23.070648 H          1 MOL1         0.0976
      14    C4      19.419007   18.291939   24.180844 C.3        1 MOL1        -0.1375
      15    H10     18.714398   17.545112   23.789730 H          1 MOL1         0.0976
      16    H11     20.016094   17.766182   24.938840 H          1 MOL1         0.0976
      17    C5      18.647409   19.427099   24.901438 C.3        1 MOL1        -0.1350
      18    H12     19.361725   20.114055   25.376432 H          1 MOL1         0.0976
      19    H13     18.061203   18.985315   25.719365 H          1 MOL1         0.0976
      20    C6      17.695384   20.229720   23.987940 C.3        1 MOL1        -0.2365
      21    H14     17.005413   19.564687   23.452676 H          1 MOL1         0.0987
      22    H15     18.253604   20.821350   23.251978 H          1 MOL1         0.0987
      23    H16     17.093657   20.929648   24.582004 H          1 MOL1         0.0987
@<TRIPOS>BOND
    1     1     2    1
    2     1     3    1
    3     1     4    1
    4     1     5    1
    5     5     6    1
    6     5     7    1
    7     5     8    1
    8     8     9    1
    9     8    10    1
   10     8    11    1
   11    11    12    1
   12    11    13    1
   13    11    14    1
   14    14    15    1
   15    14    16    1
   16    14    17    1
   17    17    18    1
   18    17    19    1
   19    17    20    1
   20    20    21    1
   21    20    22    1
   22    20    23    1
@<TRIPOS>SUBSTRUCTURE
       1 MOL1            1 RESIDUE      1      MOL     
@<SCITEGIC>MOL_PROPERTY
VConf Rank
SciTegic.value.IntegerValue
568

@<SCITEGIC>MOL_PROPERTY
Conf_Id
SciTegic.value.IntegerValue
55

@<SCITEGIC>MOL_PROPERTY
Delta U+W
SciTegic.value.DoubleValue
3.232

@<SCITEGIC>MOL_PROPERTY
U+W
SciTegic.value.DoubleValue
-5.150

@<SCITEGIC>MOL_PROPERTY
Grad RMS
SciTegic.value.DoubleValue
0.000000

@<SCITEGIC>MOL_PROPERTY
U
SciTegic.value.DoubleValue
50.625

@<SCITEGIC>MOL_PROPERTY
W
SciTegic.value.DoubleValue
-55.776

@<SCITEGIC>MOL_PROPERTY
W(PB)
SciTegic.value.DoubleValue
-57.839

@<SCITEGIC>MOL_PROPERTY
W(SA)
SciTegic.value.DoubleValue
2.064

@<SCITEGIC>MOL_PROPERTY
Valence
SciTegic.value.DoubleValue
4.837

@<SCITEGIC>MOL_PROPERTY
Coulomb
SciTegic.value.DoubleValue
45.097

@<SCITEGIC>MOL_PROPERTY
VdW
SciTegic.value.DoubleValue
0.692

@<SCITEGIC>MOL_PROPERTY
VdW6
SciTegic.value.DoubleValue
-6.655

@<SCITEGIC>MOL_PROPERTY
VdW12
SciTegic.value.DoubleValue
7.347

@<SCITEGIC>MOL_PROPERTY
Bond
SciTegic.value.DoubleValue
0.223

@<SCITEGIC>MOL_PROPERTY
Angle
SciTegic.value.DoubleValue
1.167

@<SCITEGIC>MOL_PROPERTY
Pdih
SciTegic.value.DoubleValue
3.447

@<SCITEGIC>MOL_PROPERTY
Idih
SciTegic.value.DoubleValue
0.000

@<SCITEGIC>MOL_PROPERTY
Tether
SciTegic.value.DoubleValue
0.000

@<TRIPOS>MOLECULE
guest-2_confgen4.mol2 : confsearch ligand conformer 569
          23          22           1
SMALL
USER_CHARGES
 
@<TRIPOS>ATOM
       1    N1      18.786382   21.956969   22.920562 N.4        1 MOL1        -0.5940
       2    H1      17.886099   22.257258   22.533076 H          1 MOL1         0.3649
       3    H2      19.425370   22.755420   22.842020 H          1 MOL1         0.3649
       4    H3      18.642285   21.787735   23.921238 H          1 MOL1         0.3649
       5    C1      19.326235   20.731639   22.211499 C.3        1 MOL1         0.0207
       6    H4      20.297031   20.493505   22.649892 H          1 MOL1         0.0950
       7    H5      19.481606   20.992483   21.161156 H          1 MOL1         0.0950
       8    C2      18.383089   19.516228   22.306561 C.3        1 MOL1        -0.1415
       9    H6      18.180418   19.270944   23.357572 H          1 MOL1         0.0976
      10    H7      17.418995   19.798117   21.862624 H          1 MOL1         0.0976
      11    C3      18.922100   18.268368   21.562398 C.3        1 MOL1        -0.1375
      12    H8      19.429020   18.572358   20.635994 H          1 MOL1         0.0976
      13    H9      18.062242   17.662240   21.244988 H          1 MOL1         0.0976
      14    C4      19.851620   17.355431   22.403833 C.3        1 MOL1        -0.1375
      15    H10     19.299588   16.973365   23.273649 H          1 MOL1         0.0976
      16    H11     20.107992   16.476438   21.796309 H          1 MOL1         0.0976
      17    C5      21.157416   18.031302   22.881950 C.3        1 MOL1        -0.1350
      18    H12     20.926138   18.814767   23.615168 H          1 MOL1         0.0976
      19    H13     21.659909   18.516249   22.033418 H          1 MOL1         0.0976
      20    C6      22.119087   17.014646   23.533318 C.3        1 MOL1        -0.2365
      21    H14     22.408897   16.231599   22.820533 H          1 MOL1         0.0987
      22    H15     21.652918   16.531084   24.401710 H          1 MOL1         0.0987
      23    H16     23.035202   17.512642   23.876482 H          1 MOL1         0.0987
@<TRIPOS>BOND
    1     1     2    1
    2     1     3    1
    3     1     4    1
    4     1     5    1
    5     5     6    1
    6     5     7    1
    7     5     8    1
    8     8     9    1
    9     8    10    1
   10     8    11    1
   11    11    12    1
   12    11    13    1
   13    11    14    1
   14    14    15    1
   15    14    16    1
   16    14    17    1
   17    17    18    1
   18    17    19    1
   19    17    20    1
   20    20    21    1
   21    20    22    1
   22    20    23    1
@<TRIPOS>SUBSTRUCTURE
       1 MOL1            1 RESIDUE      1      MOL     
@<SCITEGIC>MOL_PROPERTY
VConf Rank
SciTegic.value.IntegerValue
569

@<SCITEGIC>MOL_PROPERTY
Conf_Id
SciTegic.value.IntegerValue
93

@<SCITEGIC>MOL_PROPERTY
Delta U+W
SciTegic.value.DoubleValue
2.589

@<SCITEGIC>MOL_PROPERTY
U+W
SciTegic.value.DoubleValue
-5.793

@<SCITEGIC>MOL_PROPERTY
Grad RMS
SciTegic.value.DoubleValue
0.000000

@<SCITEGIC>MOL_PROPERTY
U
SciTegic.value.DoubleValue
50.122

@<SCITEGIC>MOL_PROPERTY
W
SciTegic.value.DoubleValue
-55.915

@<SCITEGIC>MOL_PROPERTY
W(PB)
SciTegic.value.DoubleValue
-58.031

@<SCITEGIC>MOL_PROPERTY
W(SA)
SciTegic.value.DoubleValue
2.115

@<SCITEGIC>MOL_PROPERTY
Valence
SciTegic.value.DoubleValue
4.132

@<SCITEGIC>MOL_PROPERTY
Coulomb
SciTegic.value.DoubleValue
45.536

@<SCITEGIC>MOL_PROPERTY
VdW
SciTegic.value.DoubleValue
0.454

@<SCITEGIC>MOL_PROPERTY
VdW6
SciTegic.value.DoubleValue
-6.262

@<SCITEGIC>MOL_PROPERTY
VdW12
SciTegic.value.DoubleValue
6.715

@<SCITEGIC>MOL_PROPERTY
Bond
SciTegic.value.DoubleValue
0.182

@<SCITEGIC>MOL_PROPERTY
Angle
SciTegic.value.DoubleValue
1.157

@<SCITEGIC>MOL_PROPERTY
Pdih
SciTegic.value.DoubleValue
2.794

@<SCITEGIC>MOL_PROPERTY
Idih
SciTegic.value.DoubleValue
0.000

@<SCITEGIC>MOL_PROPERTY
Tether
SciTegic.value.DoubleValue
0.000

@<TRIPOS>MOLECULE
guest-2_confgen4.mol2 : confsearch ligand conformer 570
          23          22           1
SMALL
USER_CHARGES
 
@<TRIPOS>ATOM
       1    N1      18.523813   16.177583   21.784055 N.4        1 MOL1        -0.5940
       2    H1      17.858140   16.650000   21.164009 H          1 MOL1         0.3649
       3    H2      17.971670   15.629128   22.452138 H          1 MOL1         0.3649
       4    H3      19.047088   15.508285   21.210425 H          1 MOL1         0.3649
       5    C1      19.440684   17.160166   22.483715 C.3        1 MOL1         0.0207
       6    H4      20.099598   16.591920   23.145778 H          1 MOL1         0.0950
       7    H5      18.820770   17.813698   23.100110 H          1 MOL1         0.0950
       8    C2      20.289344   17.994583   21.504270 C.3        1 MOL1        -0.1415
       9    H6      20.891038   17.302286   20.900359 H          1 MOL1         0.0976
      10    H7      19.641228   18.535514   20.801987 H          1 MOL1         0.0976
      11    C3      21.244899   18.984047   22.217951 C.3        1 MOL1        -0.1375
      12    H8      22.111521   19.153576   21.563945 H          1 MOL1         0.0976
      13    H9      21.647878   18.525359   23.131634 H          1 MOL1         0.0976
      14    C4      20.628178   20.369224   22.544160 C.3        1 MOL1        -0.1375
      15    H10     21.415936   20.999841   22.979130 H          1 MOL1         0.0976
      16    H11     20.323809   20.863197   21.611077 H          1 MOL1         0.0976
      17    C5      19.427200   20.326659   23.516961 C.3        1 MOL1        -0.1350
      18    H12     19.686764   19.734979   24.405904 H          1 MOL1         0.0976
      19    H13     18.572987   19.833703   23.035060 H          1 MOL1         0.0976
      20    C6      18.997294   21.743642   23.952873 C.3        1 MOL1        -0.2365
      21    H14     18.137620   21.695535   24.633810 H          1 MOL1         0.0987
      22    H15     18.707083   22.351949   23.086276 H          1 MOL1         0.0987
      23    H16     19.812152   22.260729   24.476173 H          1 MOL1         0.0987
@<TRIPOS>BOND
    1     1     2    1
    2     1     3    1
    3     1     4    1
    4     1     5    1
    5     5     6    1
    6     5     7    1
    7     5     8    1
    8     8     9    1
    9     8    10    1
   10     8    11    1
   11    11    12    1
   12    11    13    1
   13    11    14    1
   14    14    15    1
   15    14    16    1
   16    14    17    1
   17    17    18    1
   18    17    19    1
   19    17    20    1
   20    20    21    1
   21    20    22    1
   22    20    23    1
@<TRIPOS>SUBSTRUCTURE
       1 MOL1            1 RESIDUE      1      MOL     
@<SCITEGIC>MOL_PROPERTY
VConf Rank
SciTegic.value.IntegerValue
570

@<SCITEGIC>MOL_PROPERTY
Conf_Id
SciTegic.value.IntegerValue
70

@<SCITEGIC>MOL_PROPERTY
Delta U+W
SciTegic.value.DoubleValue
2.599

@<SCITEGIC>MOL_PROPERTY
U+W
SciTegic.value.DoubleValue
-5.783

@<SCITEGIC>MOL_PROPERTY
Grad RMS
SciTegic.value.DoubleValue
0.000000

@<SCITEGIC>MOL_PROPERTY
U
SciTegic.value.DoubleValue
50.122

@<SCITEGIC>MOL_PROPERTY
W
SciTegic.value.DoubleValue
-55.906

@<SCITEGIC>MOL_PROPERTY
W(PB)
SciTegic.value.DoubleValue
-58.010

@<SCITEGIC>MOL_PROPERTY
W(SA)
SciTegic.value.DoubleValue
2.105

@<SCITEGIC>MOL_PROPERTY
Valence
SciTegic.value.DoubleValue
4.132

@<SCITEGIC>MOL_PROPERTY
Coulomb
SciTegic.value.DoubleValue
45.536

@<SCITEGIC>MOL_PROPERTY
VdW
SciTegic.value.DoubleValue
0.454

@<SCITEGIC>MOL_PROPERTY
VdW6
SciTegic.value.DoubleValue
-6.262

@<SCITEGIC>MOL_PROPERTY
VdW12
SciTegic.value.DoubleValue
6.715

@<SCITEGIC>MOL_PROPERTY
Bond
SciTegic.value.DoubleValue
0.182

@<SCITEGIC>MOL_PROPERTY
Angle
SciTegic.value.DoubleValue
1.157

@<SCITEGIC>MOL_PROPERTY
Pdih
SciTegic.value.DoubleValue
2.794

@<SCITEGIC>MOL_PROPERTY
Idih
SciTegic.value.DoubleValue
0.000

@<SCITEGIC>MOL_PROPERTY
Tether
SciTegic.value.DoubleValue
0.000

@<TRIPOS>MOLECULE
guest-2_confgen4.mol2 : confsearch ligand conformer 571
          23          22           1
SMALL
USER_CHARGES
 
@<TRIPOS>ATOM
       1    N1      20.801437   16.565166   23.703551 N.4        1 MOL1        -0.5940
       2    H1      21.325579   16.502013   24.582068 H          1 MOL1         0.3649
       3    H2      20.892526   15.657576   23.234780 H          1 MOL1         0.3649
       4    H3      19.813289   16.680256   23.948058 H          1 MOL1         0.3649
       5    C1      21.298198   17.702083   22.832412 C.3        1 MOL1         0.0207
       6    H4      20.723919   17.693320   21.902319 H          1 MOL1         0.0950
       7    H5      22.344652   17.501202   22.587308 H          1 MOL1         0.0950
       8    C2      21.185235   19.087259   23.500476 C.3        1 MOL1        -0.1415
       9    H6      21.793266   19.095440   24.414777 H          1 MOL1         0.0976
      10    H7      21.633345   19.838007   22.837159 H          1 MOL1         0.0976
      11    C3      19.731769   19.501231   23.851288 C.3        1 MOL1        -0.1375
      12    H8      19.745941   20.511551   24.282863 H          1 MOL1         0.0976
      13    H9      19.350170   18.845287   24.645236 H          1 MOL1         0.0976
      14    C4      18.739452   19.474118   22.659914 C.3        1 MOL1        -0.1375
      15    H10     18.640616   18.450505   22.274764 H          1 MOL1         0.0976
      16    H11     17.744296   19.754517   23.031904 H          1 MOL1         0.0976
      17    C5      19.131527   20.428390   21.507293 C.3        1 MOL1        -0.1350
      18    H12     20.092540   20.122682   21.072628 H          1 MOL1         0.0976
      19    H13     19.267879   21.446265   21.898511 H          1 MOL1         0.0976
      20    C6      18.061961   20.446539   20.394602 C.3        1 MOL1        -0.2365
      21    H14     18.356968   21.125960   19.584434 H          1 MOL1         0.0987
      22    H15     17.093223   20.786793   20.783146 H          1 MOL1         0.0987
      23    H16     17.925028   19.446593   19.962673 H          1 MOL1         0.0987
@<TRIPOS>BOND
    1     1     2    1
    2     1     3    1
    3     1     4    1
    4     1     5    1
    5     5     6    1
    6     5     7    1
    7     5     8    1
    8     8     9    1
    9     8    10    1
   10     8    11    1
   11    11    12    1
   12    11    13    1
   13    11    14    1
   14    14    15    1
   15    14    16    1
   16    14    17    1
   17    17    18    1
   18    17    19    1
   19    17    20    1
   20    20    21    1
   21    20    22    1
   22    20    23    1
@<TRIPOS>SUBSTRUCTURE
       1 MOL1            1 RESIDUE      1      MOL     
@<SCITEGIC>MOL_PROPERTY
VConf Rank
SciTegic.value.IntegerValue
571

@<SCITEGIC>MOL_PROPERTY
Conf_Id
SciTegic.value.IntegerValue
72

@<SCITEGIC>MOL_PROPERTY
Delta U+W
SciTegic.value.DoubleValue
1.051

@<SCITEGIC>MOL_PROPERTY
U+W
SciTegic.value.DoubleValue
-7.331

@<SCITEGIC>MOL_PROPERTY
Grad RMS
SciTegic.value.DoubleValue
0.000000

@<SCITEGIC>MOL_PROPERTY
U
SciTegic.value.DoubleValue
48.590

@<SCITEGIC>MOL_PROPERTY
W
SciTegic.value.DoubleValue
-55.922

@<SCITEGIC>MOL_PROPERTY
W(PB)
SciTegic.value.DoubleValue
-58.012

@<SCITEGIC>MOL_PROPERTY
W(SA)
SciTegic.value.DoubleValue
2.090

@<SCITEGIC>MOL_PROPERTY
Valence
SciTegic.value.DoubleValue
2.601

@<SCITEGIC>MOL_PROPERTY
Coulomb
SciTegic.value.DoubleValue
45.520

@<SCITEGIC>MOL_PROPERTY
VdW
SciTegic.value.DoubleValue
0.469

@<SCITEGIC>MOL_PROPERTY
VdW6
SciTegic.value.DoubleValue
-6.867

@<SCITEGIC>MOL_PROPERTY
VdW12
SciTegic.value.DoubleValue
7.336

@<SCITEGIC>MOL_PROPERTY
Bond
SciTegic.value.DoubleValue
0.205

@<SCITEGIC>MOL_PROPERTY
Angle
SciTegic.value.DoubleValue
0.962

@<SCITEGIC>MOL_PROPERTY
Pdih
SciTegic.value.DoubleValue
1.434

@<SCITEGIC>MOL_PROPERTY
Idih
SciTegic.value.DoubleValue
0.000

@<SCITEGIC>MOL_PROPERTY
Tether
SciTegic.value.DoubleValue
0.000

@<TRIPOS>MOLECULE
guest-2_confgen4.mol2 : confsearch ligand conformer 572
          23          22           1
SMALL
USER_CHARGES
 
@<TRIPOS>ATOM
       1    N1      20.761595   21.687921   23.790011 N.4        1 MOL1        -0.5940
       2    H1      21.040726   22.550324   23.310110 H          1 MOL1         0.3649
       3    H2      21.350774   21.607997   24.625034 H          1 MOL1         0.3649
       4    H3      19.798288   21.824610   24.112530 H          1 MOL1         0.3649
       5    C1      20.890236   20.476018   22.889800 C.3        1 MOL1         0.0207
       6    H4      21.930897   20.407600   22.561631 H          1 MOL1         0.0950
       7    H5      20.262272   20.642408   22.010648 H          1 MOL1         0.0950
       8    C2      20.477970   19.163219   23.581474 C.3        1 MOL1        -0.1415
       9    H6      21.089135   19.024927   24.483183 H          1 MOL1         0.0976
      10    H7      19.437460   19.235536   23.922856 H          1 MOL1         0.0976
      11    C3      20.650363   17.925697   22.666115 C.3        1 MOL1        -0.1375
      12    H8      20.362183   17.024222   23.223111 H          1 MOL1         0.0976
      13    H9      21.717285   17.801732   22.434551 H          1 MOL1         0.0976
      14    C4      19.858391   17.986696   21.332017 C.3        1 MOL1        -0.1375
      15    H10     20.263177   18.791609   20.703872 H          1 MOL1         0.0976
      16    H11     20.039996   17.057879   20.773905 H          1 MOL1         0.0976
      17    C5      18.329006   18.188669   21.481718 C.3        1 MOL1        -0.1350
      18    H12     17.881321   18.228508   20.478881 H          1 MOL1         0.0976
      19    H13     18.117846   19.162349   21.943752 H          1 MOL1         0.0976
      20    C6      17.638857   17.066740   22.290102 C.3        1 MOL1        -0.2365
      21    H14     17.846510   16.081238   21.853518 H          1 MOL1         0.0987
      22    H15     16.550543   17.209547   22.294592 H          1 MOL1         0.0987
      23    H16     17.975333   17.057896   23.334259 H          1 MOL1         0.0987
@<TRIPOS>BOND
    1     1     2    1
    2     1     3    1
    3     1     4    1
    4     1     5    1
    5     5     6    1
    6     5     7    1
    7     5     8    1
    8     8     9    1
    9     8    10    1
   10     8    11    1
   11    11    12    1
   12    11    13    1
   13    11    14    1
   14    14    15    1
   15    14    16    1
   16    14    17    1
   17    17    18    1
   18    17    19    1
   19    17    20    1
   20    20    21    1
   21    20    22    1
   22    20    23    1
@<TRIPOS>SUBSTRUCTURE
       1 MOL1            1 RESIDUE      1      MOL     
@<SCITEGIC>MOL_PROPERTY
VConf Rank
SciTegic.value.IntegerValue
572

@<SCITEGIC>MOL_PROPERTY
Conf_Id
SciTegic.value.IntegerValue
26

@<SCITEGIC>MOL_PROPERTY
Delta U+W
SciTegic.value.DoubleValue
1.076

@<SCITEGIC>MOL_PROPERTY
U+W
SciTegic.value.DoubleValue
-7.306

@<SCITEGIC>MOL_PROPERTY
Grad RMS
SciTegic.value.DoubleValue
0.000000

@<SCITEGIC>MOL_PROPERTY
U
SciTegic.value.DoubleValue
48.641

@<SCITEGIC>MOL_PROPERTY
W
SciTegic.value.DoubleValue
-55.947

@<SCITEGIC>MOL_PROPERTY
W(PB)
SciTegic.value.DoubleValue
-58.031

@<SCITEGIC>MOL_PROPERTY
W(SA)
SciTegic.value.DoubleValue
2.084

@<SCITEGIC>MOL_PROPERTY
Valence
SciTegic.value.DoubleValue
2.922

@<SCITEGIC>MOL_PROPERTY
Coulomb
SciTegic.value.DoubleValue
45.269

@<SCITEGIC>MOL_PROPERTY
VdW
SciTegic.value.DoubleValue
0.449

@<SCITEGIC>MOL_PROPERTY
VdW6
SciTegic.value.DoubleValue
-7.045

@<SCITEGIC>MOL_PROPERTY
VdW12
SciTegic.value.DoubleValue
7.494

@<SCITEGIC>MOL_PROPERTY
Bond
SciTegic.value.DoubleValue
0.220

@<SCITEGIC>MOL_PROPERTY
Angle
SciTegic.value.DoubleValue
1.205

@<SCITEGIC>MOL_PROPERTY
Pdih
SciTegic.value.DoubleValue
1.497

@<SCITEGIC>MOL_PROPERTY
Idih
SciTegic.value.DoubleValue
0.000

@<SCITEGIC>MOL_PROPERTY
Tether
SciTegic.value.DoubleValue
0.000

@<TRIPOS>MOLECULE
guest-2_confgen4.mol2 : confsearch ligand conformer 573
          23          22           1
SMALL
USER_CHARGES
 
@<TRIPOS>ATOM
       1    N1      22.238628   20.233961   24.166044 N.4        1 MOL1        -0.5940
       2    H1      23.043535   20.486138   23.583537 H          1 MOL1         0.3649
       3    H2      22.602933   20.019423   25.100504 H          1 MOL1         0.3649
       4    H3      21.657964   21.073629   24.257960 H          1 MOL1         0.3649
       5    C1      21.462434   19.070295   23.583775 C.3        1 MOL1         0.0207
       6    H4      20.642043   18.837862   24.267782 H          1 MOL1         0.0950
       7    H5      22.130499   18.205879   23.541060 H          1 MOL1         0.0950
       8    C2      20.901094   19.360868   22.179395 C.3        1 MOL1        -0.1415
       9    H6      20.240516   20.236386   22.218601 H          1 MOL1         0.0976
      10    H7      21.729089   19.629390   21.510030 H          1 MOL1         0.0976
      11    C3      20.143115   18.151954   21.576851 C.3        1 MOL1        -0.1375
      12    H8      20.851816   17.324573   21.433688 H          1 MOL1         0.0976
      13    H9      19.789107   18.415175   20.571194 H          1 MOL1         0.0976
      14    C4      18.950618   17.640037   22.429288 C.3        1 MOL1        -0.1375
      15    H10     18.479753   16.798150   21.903285 H          1 MOL1         0.0976
      16    H11     19.328682   17.223494   23.372613 H          1 MOL1         0.0976
      17    C5      17.865386   18.699573   22.748471 C.3        1 MOL1        -0.1350
      18    H12     18.288829   19.502918   23.366089 H          1 MOL1         0.0976
      19    H13     17.085441   18.227887   23.362385 H          1 MOL1         0.0976
      20    C6      17.207894   19.302809   21.486596 C.3        1 MOL1        -0.2365
      21    H14     17.928707   19.879841   20.894125 H          1 MOL1         0.0987
      22    H15     16.390906   19.980829   21.765272 H          1 MOL1         0.0987
      23    H16     16.787986   18.516195   20.846395 H          1 MOL1         0.0987
@<TRIPOS>BOND
    1     1     2    1
    2     1     3    1
    3     1     4    1
    4     1     5    1
    5     5     6    1
    6     5     7    1
    7     5     8    1
    8     8     9    1
    9     8    10    1
   10     8    11    1
   11    11    12    1
   12    11    13    1
   13    11    14    1
   14    14    15    1
   15    14    16    1
   16    14    17    1
   17    17    18    1
   18    17    19    1
   19    17    20    1
   20    20    21    1
   21    20    22    1
   22    20    23    1
@<TRIPOS>SUBSTRUCTURE
       1 MOL1            1 RESIDUE      1      MOL     
@<SCITEGIC>MOL_PROPERTY
VConf Rank
SciTegic.value.IntegerValue
573

@<SCITEGIC>MOL_PROPERTY
Conf_Id
SciTegic.value.IntegerValue
90

@<SCITEGIC>MOL_PROPERTY
Delta U+W
SciTegic.value.DoubleValue
1.131

@<SCITEGIC>MOL_PROPERTY
U+W
SciTegic.value.DoubleValue
-7.251

@<SCITEGIC>MOL_PROPERTY
Grad RMS
SciTegic.value.DoubleValue
0.000000

@<SCITEGIC>MOL_PROPERTY
U
SciTegic.value.DoubleValue
48.641

@<SCITEGIC>MOL_PROPERTY
W
SciTegic.value.DoubleValue
-55.892

@<SCITEGIC>MOL_PROPERTY
W(PB)
SciTegic.value.DoubleValue
-57.962

@<SCITEGIC>MOL_PROPERTY
W(SA)
SciTegic.value.DoubleValue
2.070

@<SCITEGIC>MOL_PROPERTY
Valence
SciTegic.value.DoubleValue
2.922

@<SCITEGIC>MOL_PROPERTY
Coulomb
SciTegic.value.DoubleValue
45.269

@<SCITEGIC>MOL_PROPERTY
VdW
SciTegic.value.DoubleValue
0.450

@<SCITEGIC>MOL_PROPERTY
VdW6
SciTegic.value.DoubleValue
-7.045

@<SCITEGIC>MOL_PROPERTY
VdW12
SciTegic.value.DoubleValue
7.495

@<SCITEGIC>MOL_PROPERTY
Bond
SciTegic.value.DoubleValue
0.220

@<SCITEGIC>MOL_PROPERTY
Angle
SciTegic.value.DoubleValue
1.205

@<SCITEGIC>MOL_PROPERTY
Pdih
SciTegic.value.DoubleValue
1.497

@<SCITEGIC>MOL_PROPERTY
Idih
SciTegic.value.DoubleValue
0.000

@<SCITEGIC>MOL_PROPERTY
Tether
SciTegic.value.DoubleValue
0.000

@<TRIPOS>MOLECULE
guest-2_confgen4.mol2 : confsearch ligand conformer 574
          23          22           1
SMALL
USER_CHARGES
 
@<TRIPOS>ATOM
       1    N1      19.693493   16.468988   23.516996 N.4        1 MOL1        -0.5940
       2    H1      20.143677   15.935787   24.268583 H          1 MOL1         0.3649
       3    H2      20.441064   16.873282   22.944889 H          1 MOL1         0.3649
       4    H3      19.192851   15.794189   22.929988 H          1 MOL1         0.3649
       5    C1      18.766499   17.537764   24.061783 C.3        1 MOL1         0.0207
       6    H4      19.353940   18.202536   24.700304 H          1 MOL1         0.0950
       7    H5      18.017862   17.042547   24.686141 H          1 MOL1         0.0950
       8    C2      18.056720   18.359543   22.966437 C.3        1 MOL1        -0.1415
       9    H6      17.432900   17.688747   22.360902 H          1 MOL1         0.0976
      10    H7      17.367666   19.066367   23.447528 H          1 MOL1         0.0976
      11    C3      19.022346   19.138508   22.038342 C.3        1 MOL1        -0.1375
      12    H8      18.427855   19.676615   21.287253 H          1 MOL1         0.0976
      13    H9      19.647674   18.428724   21.482217 H          1 MOL1         0.0976
      14    C4      19.912855   20.151124   22.801936 C.3        1 MOL1        -0.1375
      15    H10     19.272819   20.797399   23.418337 H          1 MOL1         0.0976
      16    H11     20.578766   19.621889   23.496490 H          1 MOL1         0.0976
      17    C5      20.762247   21.046956   21.868441 C.3        1 MOL1        -0.1350
      18    H12     21.278518   21.801895   22.477839 H          1 MOL1         0.0976
      19    H13     20.104249   21.601701   21.185011 H          1 MOL1         0.0976
      20    C6      21.814058   20.260252   21.053626 C.3        1 MOL1        -0.2365
      21    H14     22.468439   19.675718   21.713204 H          1 MOL1         0.0987
      22    H15     22.446684   20.948252   20.477973 H          1 MOL1         0.0987
      23    H16     21.341065   19.573621   20.340726 H          1 MOL1         0.0987
@<TRIPOS>BOND
    1     1     2    1
    2     1     3    1
    3     1     4    1
    4     1     5    1
    5     5     6    1
    6     5     7    1
    7     5     8    1
    8     8     9    1
    9     8    10    1
   10     8    11    1
   11    11    12    1
   12    11    13    1
   13    11    14    1
   14    14    15    1
   15    14    16    1
   16    14    17    1
   17    17    18    1
   18    17    19    1
   19    17    20    1
   20    20    21    1
   21    20    22    1
   22    20    23    1
@<TRIPOS>SUBSTRUCTURE
       1 MOL1            1 RESIDUE      1      MOL     
@<SCITEGIC>MOL_PROPERTY
VConf Rank
SciTegic.value.IntegerValue
574

@<SCITEGIC>MOL_PROPERTY
Conf_Id
SciTegic.value.IntegerValue
85

@<SCITEGIC>MOL_PROPERTY
Delta U+W
SciTegic.value.DoubleValue
1.193

@<SCITEGIC>MOL_PROPERTY
U+W
SciTegic.value.DoubleValue
-7.189

@<SCITEGIC>MOL_PROPERTY
Grad RMS
SciTegic.value.DoubleValue
0.000000

@<SCITEGIC>MOL_PROPERTY
U
SciTegic.value.DoubleValue
48.775

@<SCITEGIC>MOL_PROPERTY
W
SciTegic.value.DoubleValue
-55.965

@<SCITEGIC>MOL_PROPERTY
W(PB)
SciTegic.value.DoubleValue
-58.038

@<SCITEGIC>MOL_PROPERTY
W(SA)
SciTegic.value.DoubleValue
2.073

@<SCITEGIC>MOL_PROPERTY
Valence
SciTegic.value.DoubleValue
2.602

@<SCITEGIC>MOL_PROPERTY
Coulomb
SciTegic.value.DoubleValue
45.581

@<SCITEGIC>MOL_PROPERTY
VdW
SciTegic.value.DoubleValue
0.592

@<SCITEGIC>MOL_PROPERTY
VdW6
SciTegic.value.DoubleValue
-6.616

@<SCITEGIC>MOL_PROPERTY
VdW12
SciTegic.value.DoubleValue
7.208

@<SCITEGIC>MOL_PROPERTY
Bond
SciTegic.value.DoubleValue
0.196

@<SCITEGIC>MOL_PROPERTY
Angle
SciTegic.value.DoubleValue
0.832

@<SCITEGIC>MOL_PROPERTY
Pdih
SciTegic.value.DoubleValue
1.574

@<SCITEGIC>MOL_PROPERTY
Idih
SciTegic.value.DoubleValue
0.000

@<SCITEGIC>MOL_PROPERTY
Tether
SciTegic.value.DoubleValue
0.000

@<TRIPOS>MOLECULE
guest-2_confgen4.mol2 : confsearch ligand conformer 575
          23          22           1
SMALL
USER_CHARGES
 
@<TRIPOS>ATOM
       1    N1      21.348517   18.853478   23.838648 N.4        1 MOL1        -0.5940
       2    H1      21.212351   18.784724   22.825039 H          1 MOL1         0.3649
       3    H2      21.973907   18.089616   24.117405 H          1 MOL1         0.3649
       4    H3      21.847782   19.729994   24.021592 H          1 MOL1         0.3649
       5    C1      20.025881   18.796540   24.578279 C.3        1 MOL1         0.0207
       6    H4      20.252790   18.876786   25.644855 H          1 MOL1         0.0950
       7    H5      19.567459   17.819924   24.401647 H          1 MOL1         0.0950
       8    C2      19.040141   19.916602   24.187772 C.3        1 MOL1        -0.1415
       9    H6      18.326296   20.035746   25.013647 H          1 MOL1         0.0976
      10    H7      19.574930   20.872968   24.115404 H          1 MOL1         0.0976
      11    C3      18.225845   19.659970   22.891172 C.3        1 MOL1        -0.1375
      12    H8      17.532020   20.502995   22.766989 H          1 MOL1         0.0976
      13    H9      17.589792   18.772826   23.017196 H          1 MOL1         0.0976
      14    C4      19.065936   19.534987   21.594297 C.3        1 MOL1        -0.1375
      15    H10     18.502746   19.991658   20.768460 H          1 MOL1         0.0976
      16    H11     19.989197   20.122818   21.682447 H          1 MOL1         0.0976
      17    C5      19.372679   18.067990   21.205799 C.3        1 MOL1        -0.1350
      18    H12     18.432346   17.553983   20.961454 H          1 MOL1         0.0976
      19    H13     19.806748   17.518064   22.049270 H          1 MOL1         0.0976
      20    C6      20.324837   17.985726   19.994001 C.3        1 MOL1        -0.2365
      21    H14     19.890167   18.483625   19.117344 H          1 MOL1         0.0987
      22    H15     20.518752   16.939465   19.723973 H          1 MOL1         0.0987
      23    H16     21.289687   18.461350   20.212203 H          1 MOL1         0.0987
@<TRIPOS>BOND
    1     1     2    1
    2     1     3    1
    3     1     4    1
    4     1     5    1
    5     5     6    1
    6     5     7    1
    7     5     8    1
    8     8     9    1
    9     8    10    1
   10     8    11    1
   11    11    12    1
   12    11    13    1
   13    11    14    1
   14    14    15    1
   15    14    16    1
   16    14    17    1
   17    17    18    1
   18    17    19    1
   19    17    20    1
   20    20    21    1
   21    20    22    1
   22    20    23    1
@<TRIPOS>SUBSTRUCTURE
       1 MOL1            1 RESIDUE      1      MOL     
@<SCITEGIC>MOL_PROPERTY
VConf Rank
SciTegic.value.IntegerValue
575

@<SCITEGIC>MOL_PROPERTY
Conf_Id
SciTegic.value.IntegerValue
82

@<SCITEGIC>MOL_PROPERTY
Delta U+W
SciTegic.value.DoubleValue
5.994

@<SCITEGIC>MOL_PROPERTY
U+W
SciTegic.value.DoubleValue
-2.388

@<SCITEGIC>MOL_PROPERTY
Grad RMS
SciTegic.value.DoubleValue
0.000000

@<SCITEGIC>MOL_PROPERTY
U
SciTegic.value.DoubleValue
52.836

@<SCITEGIC>MOL_PROPERTY
W
SciTegic.value.DoubleValue
-55.224

@<SCITEGIC>MOL_PROPERTY
W(PB)
SciTegic.value.DoubleValue
-57.261

@<SCITEGIC>MOL_PROPERTY
W(SA)
SciTegic.value.DoubleValue
2.037

@<SCITEGIC>MOL_PROPERTY
Valence
SciTegic.value.DoubleValue
5.785

@<SCITEGIC>MOL_PROPERTY
Coulomb
SciTegic.value.DoubleValue
46.744

@<SCITEGIC>MOL_PROPERTY
VdW
SciTegic.value.DoubleValue
0.307

@<SCITEGIC>MOL_PROPERTY
VdW6
SciTegic.value.DoubleValue
-7.672

@<SCITEGIC>MOL_PROPERTY
VdW12
SciTegic.value.DoubleValue
7.979

@<SCITEGIC>MOL_PROPERTY
Bond
SciTegic.value.DoubleValue
0.217

@<SCITEGIC>MOL_PROPERTY
Angle
SciTegic.value.DoubleValue
1.470

@<SCITEGIC>MOL_PROPERTY
Pdih
SciTegic.value.DoubleValue
4.098

@<SCITEGIC>MOL_PROPERTY
Idih
SciTegic.value.DoubleValue
0.000

@<SCITEGIC>MOL_PROPERTY
Tether
SciTegic.value.DoubleValue
0.000

@<TRIPOS>MOLECULE
guest-2_confgen4.mol2 : confsearch ligand conformer 576
          23          22           1
SMALL
USER_CHARGES
 
@<TRIPOS>ATOM
       1    N1      18.491203   18.578838   21.062214 N.4        1 MOL1        -0.5940
       2    H1      18.362248   17.597955   20.793410 H          1 MOL1         0.3649
       3    H2      17.674932   19.093716   20.714503 H          1 MOL1         0.3649
       4    H3      18.467856   18.621113   22.086100 H          1 MOL1         0.3649
       5    C1      19.787988   19.144190   20.515970 C.3        1 MOL1         0.0207
       6    H4      19.844355   20.204810   20.774882 H          1 MOL1         0.0950
       7    H5      19.737873   19.063162   19.426735 H          1 MOL1         0.0950
       8    C2      21.050817   18.414414   21.017376 C.3        1 MOL1        -0.1415
       9    H6      20.885775   17.329004   20.994621 H          1 MOL1         0.0976
      10    H7      21.856618   18.608787   20.297139 H          1 MOL1         0.0976
      11    C3      21.554174   18.849350   22.420080 C.3        1 MOL1        -0.1375
      12    H8      21.844299   19.909060   22.402438 H          1 MOL1         0.0976
      13    H9      22.481010   18.294905   22.622736 H          1 MOL1         0.0976
      14    C4      20.571105   18.584122   23.589051 C.3        1 MOL1        -0.1375
      15    H10     19.935019   17.718706   23.360635 H          1 MOL1         0.0976
      16    H11     21.153080   18.297029   24.475967 H          1 MOL1         0.0976
      17    C5      19.718229   19.821637   23.960888 C.3        1 MOL1        -0.1350
      18    H12     19.225121   20.242250   23.076461 H          1 MOL1         0.0976
      19    H13     20.377035   20.613215   24.344962 H          1 MOL1         0.0976
      20    C6      18.656834   19.483172   25.028928 C.3        1 MOL1        -0.2365
      21    H14     17.958387   18.717207   24.668047 H          1 MOL1         0.0987
      22    H15     18.072548   20.374942   25.290724 H          1 MOL1         0.0987
      23    H16     19.127932   19.109004   25.947314 H          1 MOL1         0.0987
@<TRIPOS>BOND
    1     1     2    1
    2     1     3    1
    3     1     4    1
    4     1     5    1
    5     5     6    1
    6     5     7    1
    7     5     8    1
    8     8     9    1
    9     8    10    1
   10     8    11    1
   11    11    12    1
   12    11    13    1
   13    11    14    1
   14    14    15    1
   15    14    16    1
   16    14    17    1
   17    17    18    1
   18    17    19    1
   19    17    20    1
   20    20    21    1
   21    20    22    1
   22    20    23    1
@<TRIPOS>SUBSTRUCTURE
       1 MOL1            1 RESIDUE      1      MOL     
@<SCITEGIC>MOL_PROPERTY
VConf Rank
SciTegic.value.IntegerValue
576

@<SCITEGIC>MOL_PROPERTY
Conf_Id
SciTegic.value.IntegerValue
5

@<SCITEGIC>MOL_PROPERTY
Delta U+W
SciTegic.value.DoubleValue
6.087

@<SCITEGIC>MOL_PROPERTY
U+W
SciTegic.value.DoubleValue
-2.295

@<SCITEGIC>MOL_PROPERTY
Grad RMS
SciTegic.value.DoubleValue
0.000000

@<SCITEGIC>MOL_PROPERTY
U
SciTegic.value.DoubleValue
52.836

@<SCITEGIC>MOL_PROPERTY
W
SciTegic.value.DoubleValue
-55.131

@<SCITEGIC>MOL_PROPERTY
W(PB)
SciTegic.value.DoubleValue
-57.202

@<SCITEGIC>MOL_PROPERTY
W(SA)
SciTegic.value.DoubleValue
2.071

@<SCITEGIC>MOL_PROPERTY
Valence
SciTegic.value.DoubleValue
5.785

@<SCITEGIC>MOL_PROPERTY
Coulomb
SciTegic.value.DoubleValue
46.744

@<SCITEGIC>MOL_PROPERTY
VdW
SciTegic.value.DoubleValue
0.307

@<SCITEGIC>MOL_PROPERTY
VdW6
SciTegic.value.DoubleValue
-7.672

@<SCITEGIC>MOL_PROPERTY
VdW12
SciTegic.value.DoubleValue
7.980

@<SCITEGIC>MOL_PROPERTY
Bond
SciTegic.value.DoubleValue
0.217

@<SCITEGIC>MOL_PROPERTY
Angle
SciTegic.value.DoubleValue
1.470

@<SCITEGIC>MOL_PROPERTY
Pdih
SciTegic.value.DoubleValue
4.098

@<SCITEGIC>MOL_PROPERTY
Idih
SciTegic.value.DoubleValue
0.000

@<SCITEGIC>MOL_PROPERTY
Tether
SciTegic.value.DoubleValue
0.000

@<TRIPOS>MOLECULE
guest-2_confgen4.mol2 : confsearch ligand conformer 577
          23          22           1
SMALL
USER_CHARGES
 
@<TRIPOS>ATOM
       1    N1      17.323369   16.610682   24.338567 N.4        1 MOL1        -0.5940
       2    H1      17.778453   15.743462   24.035728 H          1 MOL1         0.3649
       3    H2      16.317303   16.417290   24.388805 H          1 MOL1         0.3649
       4    H3      17.638604   16.798313   25.295805 H          1 MOL1         0.3649
       5    C1      17.628657   17.765208   23.405954 C.3        1 MOL1         0.0207
       6    H4      17.090643   18.644621   23.770193 H          1 MOL1         0.0950
       7    H5      17.240912   17.510806   22.415787 H          1 MOL1         0.0950
       8    C2      19.131718   18.081168   23.308214 C.3        1 MOL1        -0.1415
       9    H6      19.520158   18.320176   24.307258 H          1 MOL1         0.0976
      10    H7      19.669905   17.190316   22.957732 H          1 MOL1         0.0976
      11    C3      19.400134   19.262094   22.349282 C.3        1 MOL1        -0.1375
      12    H8      18.855757   20.149886   22.700398 H          1 MOL1         0.0976
      13    H9      19.005388   19.021200   21.352313 H          1 MOL1         0.0976
      14    C4      20.907272   19.588215   22.243522 C.3        1 MOL1        -0.1375
      15    H10     21.302094   19.829246   23.240283 H          1 MOL1         0.0976
      16    H11     21.451732   18.700625   21.892439 H          1 MOL1         0.0976
      17    C5      21.175371   20.769253   21.284338 C.3        1 MOL1        -0.1350
      18    H12     20.634686   21.660480   21.632688 H          1 MOL1         0.0976
      19    H13     20.784324   20.531953   20.284966 H          1 MOL1         0.0976
      20    C6      22.681277   21.091961   21.181316 C.3        1 MOL1        -0.2365
      21    H14     22.851605   21.932653   20.496283 H          1 MOL1         0.0987
      22    H15     23.244882   20.229350   20.802527 H          1 MOL1         0.0987
      23    H16     23.094083   21.366668   22.160784 H          1 MOL1         0.0987
@<TRIPOS>BOND
    1     1     2    1
    2     1     3    1
    3     1     4    1
    4     1     5    1
    5     5     6    1
    6     5     7    1
    7     5     8    1
    8     8     9    1
    9     8    10    1
   10     8    11    1
   11    11    12    1
   12    11    13    1
   13    11    14    1
   14    14    15    1
   15    14    16    1
   16    14    17    1
   17    17    18    1
   18    17    19    1
   19    17    20    1
   20    20    21    1
   21    20    22    1
   22    20    23    1
@<TRIPOS>SUBSTRUCTURE
       1 MOL1            1 RESIDUE      1      MOL     
@<SCITEGIC>MOL_PROPERTY
VConf Rank
SciTegic.value.IntegerValue
577

@<SCITEGIC>MOL_PROPERTY
Conf_Id
SciTegic.value.IntegerValue
40

@<SCITEGIC>MOL_PROPERTY
Delta U+W
SciTegic.value.DoubleValue
0.000

@<SCITEGIC>MOL_PROPERTY
U+W
SciTegic.value.DoubleValue
-8.382

@<SCITEGIC>MOL_PROPERTY
Grad RMS
SciTegic.value.DoubleValue
0.000000

@<SCITEGIC>MOL_PROPERTY
U
SciTegic.value.DoubleValue
46.604

@<SCITEGIC>MOL_PROPERTY
W
SciTegic.value.DoubleValue
-54.986

@<SCITEGIC>MOL_PROPERTY
W(PB)
SciTegic.value.DoubleValue
-57.162

@<SCITEGIC>MOL_PROPERTY
W(SA)
SciTegic.value.DoubleValue
2.176

@<SCITEGIC>MOL_PROPERTY
Valence
SciTegic.value.DoubleValue
1.727

@<SCITEGIC>MOL_PROPERTY
Coulomb
SciTegic.value.DoubleValue
44.434

@<SCITEGIC>MOL_PROPERTY
VdW
SciTegic.value.DoubleValue
0.443

@<SCITEGIC>MOL_PROPERTY
VdW6
SciTegic.value.DoubleValue
-4.623

@<SCITEGIC>MOL_PROPERTY
VdW12
SciTegic.value.DoubleValue
5.066

@<SCITEGIC>MOL_PROPERTY
Bond
SciTegic.value.DoubleValue
0.112

@<SCITEGIC>MOL_PROPERTY
Angle
SciTegic.value.DoubleValue
0.386

@<SCITEGIC>MOL_PROPERTY
Pdih
SciTegic.value.DoubleValue
1.228

@<SCITEGIC>MOL_PROPERTY
Idih
SciTegic.value.DoubleValue
0.000

@<SCITEGIC>MOL_PROPERTY
Tether
SciTegic.value.DoubleValue
0.000

@<TRIPOS>MOLECULE
guest-2_confgen4.mol2 : confsearch ligand conformer 578
          23          22           1
SMALL
USER_CHARGES
 
@<TRIPOS>ATOM
       1    N1      20.121958   22.118035   24.358253 N.4        1 MOL1        -0.5940
       2    H1      19.749982   22.035350   25.309902 H          1 MOL1         0.3649
       3    H2      19.436593   22.649541   23.811802 H          1 MOL1         0.3649
       4    H3      20.967668   22.695281   24.418181 H          1 MOL1         0.3649
       5    C1      20.407505   20.763113   23.743083 C.3        1 MOL1         0.0207
       6    H4      21.163068   20.266015   24.357435 H          1 MOL1         0.0950
       7    H5      20.827759   20.929219   22.747938 H          1 MOL1         0.0950
       8    C2      19.155475   19.871571   23.639616 C.3        1 MOL1        -0.1415
       9    H6      18.717631   19.753009   24.639708 H          1 MOL1         0.0976
      10    H7      18.396659   20.369849   23.021635 H          1 MOL1         0.0976
      11    C3      19.462056   18.471056   23.058078 C.3        1 MOL1        -0.1375
      12    H8      18.549403   17.864703   23.124139 H          1 MOL1         0.0976
      13    H9      20.214323   17.971216   23.683878 H          1 MOL1         0.0976
      14    C4      19.950602   18.516652   21.587766 C.3        1 MOL1        -0.1375
      15    H10     19.188891   18.997934   20.958970 H          1 MOL1         0.0976
      16    H11     20.849362   19.143502   21.518509 H          1 MOL1         0.0976
      17    C5      20.291450   17.122088   21.008505 C.3        1 MOL1        -0.1350
      18    H12     21.060864   16.640077   21.627751 H          1 MOL1         0.0976
      19    H13     20.737443   17.254264   20.012768 H          1 MOL1         0.0976
      20    C6      19.065037   16.189604   20.882909 C.3        1 MOL1        -0.2365
      21    H14     18.657032   15.923934   21.865868 H          1 MOL1         0.0987
      22    H15     19.343579   15.255048   20.378958 H          1 MOL1         0.0987
      23    H16     18.267657   16.662610   20.295148 H          1 MOL1         0.0987
@<TRIPOS>BOND
    1     1     2    1
    2     1     3    1
    3     1     4    1
    4     1     5    1
    5     5     6    1
    6     5     7    1
    7     5     8    1
    8     8     9    1
    9     8    10    1
   10     8    11    1
   11    11    12    1
   12    11    13    1
   13    11    14    1
   14    14    15    1
   15    14    16    1
   16    14    17    1
   17    17    18    1
   18    17    19    1
   19    17    20    1
   20    20    21    1
   21    20    22    1
   22    20    23    1
@<TRIPOS>SUBSTRUCTURE
       1 MOL1            1 RESIDUE      1      MOL     
@<SCITEGIC>MOL_PROPERTY
VConf Rank
SciTegic.value.IntegerValue
578

@<SCITEGIC>MOL_PROPERTY
Conf_Id
SciTegic.value.IntegerValue
65

@<SCITEGIC>MOL_PROPERTY
Delta U+W
SciTegic.value.DoubleValue
1.004

@<SCITEGIC>MOL_PROPERTY
U+W
SciTegic.value.DoubleValue
-7.378

@<SCITEGIC>MOL_PROPERTY
Grad RMS
SciTegic.value.DoubleValue
0.000000

@<SCITEGIC>MOL_PROPERTY
U
SciTegic.value.DoubleValue
48.047

@<SCITEGIC>MOL_PROPERTY
W
SciTegic.value.DoubleValue
-55.425

@<SCITEGIC>MOL_PROPERTY
W(PB)
SciTegic.value.DoubleValue
-57.542

@<SCITEGIC>MOL_PROPERTY
W(SA)
SciTegic.value.DoubleValue
2.116

@<SCITEGIC>MOL_PROPERTY
Valence
SciTegic.value.DoubleValue
2.583

@<SCITEGIC>MOL_PROPERTY
Coulomb
SciTegic.value.DoubleValue
44.791

@<SCITEGIC>MOL_PROPERTY
VdW
SciTegic.value.DoubleValue
0.673

@<SCITEGIC>MOL_PROPERTY
VdW6
SciTegic.value.DoubleValue
-5.788

@<SCITEGIC>MOL_PROPERTY
VdW12
SciTegic.value.DoubleValue
6.462

@<SCITEGIC>MOL_PROPERTY
Bond
SciTegic.value.DoubleValue
0.177

@<SCITEGIC>MOL_PROPERTY
Angle
SciTegic.value.DoubleValue
0.787

@<SCITEGIC>MOL_PROPERTY
Pdih
SciTegic.value.DoubleValue
1.619

@<SCITEGIC>MOL_PROPERTY
Idih
SciTegic.value.DoubleValue
0.000

@<SCITEGIC>MOL_PROPERTY
Tether
SciTegic.value.DoubleValue
0.000

@<TRIPOS>MOLECULE
guest-2_confgen4.mol2 : confsearch ligand conformer 579
          23          22           1
SMALL
USER_CHARGES
 
@<TRIPOS>ATOM
       1    N1      17.497679   21.734609   22.095844 N.4        1 MOL1        -0.5940
       2    H1      16.547859   21.461393   22.367936 H          1 MOL1         0.3649
       3    H2      17.411482   22.311332   21.252049 H          1 MOL1         0.3649
       4    H3      17.860273   22.343120   22.836839 H          1 MOL1         0.3649
       5    C1      18.388493   20.530634   21.866349 C.3        1 MOL1         0.0207
       6    H4      19.369404   20.895290   21.551137 H          1 MOL1         0.0950
       7    H5      17.959902   19.944628   21.048843 H          1 MOL1         0.0950
       8    C2      18.537734   19.643456   23.116860 C.3        1 MOL1        -0.1415
       9    H6      18.969297   20.231243   23.937984 H          1 MOL1         0.0976
      10    H7      17.541060   19.324020   23.449346 H          1 MOL1         0.0976
      11    C3      19.406669   18.388869   22.862737 C.3        1 MOL1        -0.1375
      12    H8      18.967043   17.797797   22.047426 H          1 MOL1         0.0976
      13    H9      19.369075   17.757821   23.760138 H          1 MOL1         0.0976
      14    C4      20.881409   18.728230   22.527251 C.3        1 MOL1        -0.1375
      15    H10     20.916778   19.379626   21.644110 H          1 MOL1         0.0976
      16    H11     21.326606   19.301448   23.352140 H          1 MOL1         0.0976
      17    C5      21.750378   17.479934   22.238862 C.3        1 MOL1        -0.1350
      18    H12     22.740927   17.812108   21.897767 H          1 MOL1         0.0976
      19    H13     21.315419   16.908041   21.407269 H          1 MOL1         0.0976
      20    C6      21.931852   16.557624   23.465973 C.3        1 MOL1        -0.2365
      21    H14     20.983370   16.097869   23.769724 H          1 MOL1         0.0987
      22    H15     22.334982   17.113939   24.322133 H          1 MOL1         0.0987
      23    H16     22.632198   15.744619   23.234709 H          1 MOL1         0.0987
@<TRIPOS>BOND
    1     1     2    1
    2     1     3    1
    3     1     4    1
    4     1     5    1
    5     5     6    1
    6     5     7    1
    7     5     8    1
    8     8     9    1
    9     8    10    1
   10     8    11    1
   11    11    12    1
   12    11    13    1
   13    11    14    1
   14    14    15    1
   15    14    16    1
   16    14    17    1
   17    17    18    1
   18    17    19    1
   19    17    20    1
   20    20    21    1
   21    20    22    1
   22    20    23    1
@<TRIPOS>SUBSTRUCTURE
       1 MOL1            1 RESIDUE      1      MOL     
@<SCITEGIC>MOL_PROPERTY
VConf Rank
SciTegic.value.IntegerValue
579

@<SCITEGIC>MOL_PROPERTY
Conf_Id
SciTegic.value.IntegerValue
92

@<SCITEGIC>MOL_PROPERTY
Delta U+W
SciTegic.value.DoubleValue
0.973

@<SCITEGIC>MOL_PROPERTY
U+W
SciTegic.value.DoubleValue
-7.409

@<SCITEGIC>MOL_PROPERTY
Grad RMS
SciTegic.value.DoubleValue
0.000000

@<SCITEGIC>MOL_PROPERTY
U
SciTegic.value.DoubleValue
48.047

@<SCITEGIC>MOL_PROPERTY
W
SciTegic.value.DoubleValue
-55.456

@<SCITEGIC>MOL_PROPERTY
W(PB)
SciTegic.value.DoubleValue
-57.595

@<SCITEGIC>MOL_PROPERTY
W(SA)
SciTegic.value.DoubleValue
2.138

@<SCITEGIC>MOL_PROPERTY
Valence
SciTegic.value.DoubleValue
2.583

@<SCITEGIC>MOL_PROPERTY
Coulomb
SciTegic.value.DoubleValue
44.791

@<SCITEGIC>MOL_PROPERTY
VdW
SciTegic.value.DoubleValue
0.674

@<SCITEGIC>MOL_PROPERTY
VdW6
SciTegic.value.DoubleValue
-5.789

@<SCITEGIC>MOL_PROPERTY
VdW12
SciTegic.value.DoubleValue
6.462

@<SCITEGIC>MOL_PROPERTY
Bond
SciTegic.value.DoubleValue
0.177

@<SCITEGIC>MOL_PROPERTY
Angle
SciTegic.value.DoubleValue
0.787

@<SCITEGIC>MOL_PROPERTY
Pdih
SciTegic.value.DoubleValue
1.619

@<SCITEGIC>MOL_PROPERTY
Idih
SciTegic.value.DoubleValue
0.000

@<SCITEGIC>MOL_PROPERTY
Tether
SciTegic.value.DoubleValue
0.000

@<TRIPOS>MOLECULE
guest-2_confgen4.mol2 : confsearch ligand conformer 580
          23          22           1
SMALL
USER_CHARGES
 
@<TRIPOS>ATOM
       1    N1      19.530182   19.540160   26.082292 N.4        1 MOL1        -0.5940
       2    H1      19.617766   18.769535   26.753484 H          1 MOL1         0.3649
       3    H2      18.750233   20.124519   26.400187 H          1 MOL1         0.3649
       4    H3      20.382206   20.104324   26.163617 H          1 MOL1         0.3649
       5    C1      19.319042   19.035065   24.669467 C.3        1 MOL1         0.0207
       6    H4      18.414307   18.421210   24.662097 H          1 MOL1         0.0950
       7    H5      20.169053   18.398538   24.410609 H          1 MOL1         0.0950
       8    C2      19.183465   20.170010   23.636811 C.3        1 MOL1        -0.1415
       9    H6      18.354738   20.826977   23.932702 H          1 MOL1         0.0976
      10    H7      20.091887   20.787019   23.644865 H          1 MOL1         0.0976
      11    C3      18.922648   19.647297   22.204408 C.3        1 MOL1        -0.1375
      12    H8      18.744878   20.506552   21.542949 H          1 MOL1         0.0976
      13    H9      17.999252   19.051572   22.194303 H          1 MOL1         0.0976
      14    C4      20.093357   18.805782   21.641598 C.3        1 MOL1        -0.1375
      15    H10     21.021237   19.392865   21.683897 H          1 MOL1         0.0976
      16    H11     20.250786   17.916254   22.266109 H          1 MOL1         0.0976
      17    C5      19.832392   18.361746   20.185061 C.3        1 MOL1        -0.1350
      18    H12     19.681599   19.245062   19.548686 H          1 MOL1         0.0976
      19    H13     18.904647   17.774429   20.136837 H          1 MOL1         0.0976
      20    C6      20.999905   17.521449   19.625259 C.3        1 MOL1        -0.2365
      21    H14     21.936271   18.094536   19.629378 H          1 MOL1         0.0987
      22    H15     20.796515   17.216104   18.590637 H          1 MOL1         0.0987
      23    H16     21.153029   16.612024   20.220843 H          1 MOL1         0.0987
@<TRIPOS>BOND
    1     1     2    1
    2     1     3    1
    3     1     4    1
    4     1     5    1
    5     5     6    1
    6     5     7    1
    7     5     8    1
    8     8     9    1
    9     8    10    1
   10     8    11    1
   11    11    12    1
   12    11    13    1
   13    11    14    1
   14    14    15    1
   15    14    16    1
   16    14    17    1
   17    17    18    1
   18    17    19    1
   19    17    20    1
   20    20    21    1
   21    20    22    1
   22    20    23    1
@<TRIPOS>SUBSTRUCTURE
       1 MOL1            1 RESIDUE      1      MOL     
@<SCITEGIC>MOL_PROPERTY
VConf Rank
SciTegic.value.IntegerValue
580

@<SCITEGIC>MOL_PROPERTY
Conf_Id
SciTegic.value.IntegerValue
42

@<SCITEGIC>MOL_PROPERTY
Delta U+W
SciTegic.value.DoubleValue
0.365

@<SCITEGIC>MOL_PROPERTY
U+W
SciTegic.value.DoubleValue
-8.017

@<SCITEGIC>MOL_PROPERTY
Grad RMS
SciTegic.value.DoubleValue
0.000000

@<SCITEGIC>MOL_PROPERTY
U
SciTegic.value.DoubleValue
47.375

@<SCITEGIC>MOL_PROPERTY
W
SciTegic.value.DoubleValue
-55.392

@<SCITEGIC>MOL_PROPERTY
W(PB)
SciTegic.value.DoubleValue
-57.543

@<SCITEGIC>MOL_PROPERTY
W(SA)
SciTegic.value.DoubleValue
2.152

@<SCITEGIC>MOL_PROPERTY
Valence
SciTegic.value.DoubleValue
2.032

@<SCITEGIC>MOL_PROPERTY
Coulomb
SciTegic.value.DoubleValue
44.843

@<SCITEGIC>MOL_PROPERTY
VdW
SciTegic.value.DoubleValue
0.499

@<SCITEGIC>MOL_PROPERTY
VdW6
SciTegic.value.DoubleValue
-5.218

@<SCITEGIC>MOL_PROPERTY
VdW12
SciTegic.value.DoubleValue
5.717

@<SCITEGIC>MOL_PROPERTY
Bond
SciTegic.value.DoubleValue
0.135

@<SCITEGIC>MOL_PROPERTY
Angle
SciTegic.value.DoubleValue
0.514

@<SCITEGIC>MOL_PROPERTY
Pdih
SciTegic.value.DoubleValue
1.383

@<SCITEGIC>MOL_PROPERTY
Idih
SciTegic.value.DoubleValue
0.000

@<SCITEGIC>MOL_PROPERTY
Tether
SciTegic.value.DoubleValue
0.000

@<TRIPOS>MOLECULE
guest-2_confgen4.mol2 : confsearch ligand conformer 581
          23          22           1
SMALL
USER_CHARGES
 
@<TRIPOS>ATOM
       1    N1      22.572131   19.261646   24.061693 N.4        1 MOL1        -0.5940
       2    H1      22.225964   19.951530   24.736127 H          1 MOL1         0.3649
       3    H2      23.596374   19.310841   24.083011 H          1 MOL1         0.3649
       4    H3      22.309940   18.336029   24.413674 H          1 MOL1         0.3649
       5    C1      22.025816   19.511062   22.669244 C.3        1 MOL1         0.0207
       6    H4      22.450008   18.759750   21.997668 H          1 MOL1         0.0950
       7    H5      22.379982   20.494102   22.347109 H          1 MOL1         0.0950
       8    C2      20.487358   19.471772   22.586568 C.3        1 MOL1        -0.1415
       9    H6      20.063126   20.207930   23.282088 H          1 MOL1         0.0976
      10    H7      20.198189   19.782763   21.575240 H          1 MOL1         0.0976
      11    C3      19.907967   18.066011   22.878024 C.3        1 MOL1        -0.1375
      12    H8      20.282423   17.710237   23.846806 H          1 MOL1         0.0976
      13    H9      20.280969   17.355953   22.126962 H          1 MOL1         0.0976
      14    C4      18.358681   18.008265   22.915924 C.3        1 MOL1        -0.1375
      15    H10     18.073132   16.978758   23.172951 H          1 MOL1         0.0976
      16    H11     17.977484   18.633195   23.735300 H          1 MOL1         0.0976
      17    C5      17.658597   18.384010   21.584332 C.3        1 MOL1        -0.1350
      18    H12     16.766886   17.752250   21.467268 H          1 MOL1         0.0976
      19    H13     18.309030   18.148487   20.730479 H          1 MOL1         0.0976
      20    C6      17.205812   19.861742   21.524713 C.3        1 MOL1        -0.2365
      21    H14     16.495547   20.086296   22.331037 H          1 MOL1         0.0987
      22    H15     16.703488   20.071173   20.571443 H          1 MOL1         0.0987
      23    H16     18.048352   20.556020   21.615399 H          1 MOL1         0.0987
@<TRIPOS>BOND
    1     1     2    1
    2     1     3    1
    3     1     4    1
    4     1     5    1
    5     5     6    1
    6     5     7    1
    7     5     8    1
    8     8     9    1
    9     8    10    1
   10     8    11    1
   11    11    12    1
   12    11    13    1
   13    11    14    1
   14    14    15    1
   15    14    16    1
   16    14    17    1
   17    17    18    1
   18    17    19    1
   19    17    20    1
   20    20    21    1
   21    20    22    1
   22    20    23    1
@<TRIPOS>SUBSTRUCTURE
       1 MOL1            1 RESIDUE      1      MOL     
@<SCITEGIC>MOL_PROPERTY
VConf Rank
SciTegic.value.IntegerValue
581

@<SCITEGIC>MOL_PROPERTY
Conf_Id
SciTegic.value.IntegerValue
3

@<SCITEGIC>MOL_PROPERTY
Delta U+W
SciTegic.value.DoubleValue
3.283

@<SCITEGIC>MOL_PROPERTY
U+W
SciTegic.value.DoubleValue
-5.099

@<SCITEGIC>MOL_PROPERTY
Grad RMS
SciTegic.value.DoubleValue
0.000000

@<SCITEGIC>MOL_PROPERTY
U
SciTegic.value.DoubleValue
50.701

@<SCITEGIC>MOL_PROPERTY
W
SciTegic.value.DoubleValue
-55.800

@<SCITEGIC>MOL_PROPERTY
W(PB)
SciTegic.value.DoubleValue
-57.867

@<SCITEGIC>MOL_PROPERTY
W(SA)
SciTegic.value.DoubleValue
2.067

@<SCITEGIC>MOL_PROPERTY
Valence
SciTegic.value.DoubleValue
4.880

@<SCITEGIC>MOL_PROPERTY
Coulomb
SciTegic.value.DoubleValue
45.095

@<SCITEGIC>MOL_PROPERTY
VdW
SciTegic.value.DoubleValue
0.726

@<SCITEGIC>MOL_PROPERTY
VdW6
SciTegic.value.DoubleValue
-6.620

@<SCITEGIC>MOL_PROPERTY
VdW12
SciTegic.value.DoubleValue
7.346

@<SCITEGIC>MOL_PROPERTY
Bond
SciTegic.value.DoubleValue
0.222

@<SCITEGIC>MOL_PROPERTY
Angle
SciTegic.value.DoubleValue
1.260

@<SCITEGIC>MOL_PROPERTY
Pdih
SciTegic.value.DoubleValue
3.398

@<SCITEGIC>MOL_PROPERTY
Idih
SciTegic.value.DoubleValue
0.000

@<SCITEGIC>MOL_PROPERTY
Tether
SciTegic.value.DoubleValue
0.000

@<TRIPOS>MOLECULE
guest-2_confgen4.mol2 : confsearch ligand conformer 582
          23          22           1
SMALL
USER_CHARGES
 
@<TRIPOS>ATOM
       1    N1      18.644869   16.542438   21.705177 N.4        1 MOL1        -0.5940
       2    H1      19.250948   15.733790   21.876380 H          1 MOL1         0.3649
       3    H2      17.773710   16.183166   21.300405 H          1 MOL1         0.3649
       4    H3      18.409487   16.943756   22.617941 H          1 MOL1         0.3649
       5    C1      19.308344   17.561782   20.800173 C.3        1 MOL1         0.0207
       6    H4      18.601518   18.378613   20.633814 H          1 MOL1         0.0950
       7    H5      19.498778   17.078323   19.838129 H          1 MOL1         0.0950
       8    C2      20.631631   18.121216   21.361617 C.3        1 MOL1        -0.1415
       9    H6      21.348780   17.297401   21.474891 H          1 MOL1         0.0976
      10    H7      21.067089   18.805464   20.621320 H          1 MOL1         0.0976
      11    C3      20.484847   18.860575   22.715667 C.3        1 MOL1        -0.1375
      12    H8      21.484493   19.177838   23.039593 H          1 MOL1         0.0976
      13    H9      20.121049   18.165445   23.483907 H          1 MOL1         0.0976
      14    C4      19.549436   20.094082   22.638908 C.3        1 MOL1        -0.1375
      15    H10     19.930224   20.801402   21.889330 H          1 MOL1         0.0976
      16    H11     18.555946   19.781386   22.291699 H          1 MOL1         0.0976
      17    C5      19.377172   20.821847   23.994316 C.3        1 MOL1        -0.1350
      18    H12     18.986025   20.121663   24.745630 H          1 MOL1         0.0976
      19    H13     18.614795   21.604940   23.878511 H          1 MOL1         0.0976
      20    C6      20.679457   21.470819   24.516076 C.3        1 MOL1        -0.2365
      21    H14     21.108769   22.150880   23.768938 H          1 MOL1         0.0987
      22    H15     21.434156   20.715897   24.768600 H          1 MOL1         0.0987
      23    H16     20.480437   22.053643   25.424724 H          1 MOL1         0.0987
@<TRIPOS>BOND
    1     1     2    1
    2     1     3    1
    3     1     4    1
    4     1     5    1
    5     5     6    1
    6     5     7    1
    7     5     8    1
    8     8     9    1
    9     8    10    1
   10     8    11    1
   11    11    12    1
   12    11    13    1
   13    11    14    1
   14    14    15    1
   15    14    16    1
   16    14    17    1
   17    17    18    1
   18    17    19    1
   19    17    20    1
   20    20    21    1
   21    20    22    1
   22    20    23    1
@<TRIPOS>SUBSTRUCTURE
       1 MOL1            1 RESIDUE      1      MOL     
@<SCITEGIC>MOL_PROPERTY
VConf Rank
SciTegic.value.IntegerValue
582

@<SCITEGIC>MOL_PROPERTY
Conf_Id
SciTegic.value.IntegerValue
83

@<SCITEGIC>MOL_PROPERTY
Delta U+W
SciTegic.value.DoubleValue
1.229

@<SCITEGIC>MOL_PROPERTY
U+W
SciTegic.value.DoubleValue
-7.154

@<SCITEGIC>MOL_PROPERTY
Grad RMS
SciTegic.value.DoubleValue
0.000000

@<SCITEGIC>MOL_PROPERTY
U
SciTegic.value.DoubleValue
48.727

@<SCITEGIC>MOL_PROPERTY
W
SciTegic.value.DoubleValue
-55.880

@<SCITEGIC>MOL_PROPERTY
W(PB)
SciTegic.value.DoubleValue
-57.960

@<SCITEGIC>MOL_PROPERTY
W(SA)
SciTegic.value.DoubleValue
2.080

@<SCITEGIC>MOL_PROPERTY
Valence
SciTegic.value.DoubleValue
2.671

@<SCITEGIC>MOL_PROPERTY
Coulomb
SciTegic.value.DoubleValue
45.371

@<SCITEGIC>MOL_PROPERTY
VdW
SciTegic.value.DoubleValue
0.684

@<SCITEGIC>MOL_PROPERTY
VdW6
SciTegic.value.DoubleValue
-6.511

@<SCITEGIC>MOL_PROPERTY
VdW12
SciTegic.value.DoubleValue
7.195

@<SCITEGIC>MOL_PROPERTY
Bond
SciTegic.value.DoubleValue
0.203

@<SCITEGIC>MOL_PROPERTY
Angle
SciTegic.value.DoubleValue
0.915

@<SCITEGIC>MOL_PROPERTY
Pdih
SciTegic.value.DoubleValue
1.554

@<SCITEGIC>MOL_PROPERTY
Idih
SciTegic.value.DoubleValue
0.000

@<SCITEGIC>MOL_PROPERTY
Tether
SciTegic.value.DoubleValue
0.000

@<TRIPOS>MOLECULE
guest-2_confgen4.mol2 : confsearch ligand conformer 583
          23          22           1
SMALL
USER_CHARGES
 
@<TRIPOS>ATOM
       1    N1      20.863855   21.603179   21.864084 N.4        1 MOL1        -0.5940
       2    H1      20.210038   22.385840   21.966649 H          1 MOL1         0.3649
       3    H2      20.478897   20.977972   21.149574 H          1 MOL1         0.3649
       4    H3      21.736343   21.989374   21.487982 H          1 MOL1         0.3649
       5    C1      21.087677   20.880612   23.177893 C.3        1 MOL1         0.0207
       6    H4      21.529252   21.594169   23.878874 H          1 MOL1         0.0950
       7    H5      21.813812   20.081992   23.006354 H          1 MOL1         0.0950
       8    C2      19.799313   20.293619   23.790129 C.3        1 MOL1        -0.1415
       9    H6      20.044923   19.839865   24.759481 H          1 MOL1         0.0976
      10    H7      19.099979   21.112553   24.004801 H          1 MOL1         0.0976
      11    C3      19.094570   19.240736   22.897703 C.3        1 MOL1        -0.1375
      12    H8      18.776069   19.703189   21.954071 H          1 MOL1         0.0976
      13    H9      18.175815   18.923424   23.407681 H          1 MOL1         0.0976
      14    C4      19.977751   18.001589   22.602853 C.3        1 MOL1        -0.1375
      15    H10     20.907926   18.320532   22.114585 H          1 MOL1         0.0976
      16    H11     20.272626   17.523927   23.547341 H          1 MOL1         0.0976
      17    C5      19.289681   16.957951   21.689715 C.3        1 MOL1        -0.1350
      18    H12     20.019611   16.176075   21.437257 H          1 MOL1         0.0976
      19    H13     19.002024   17.427623   20.738721 H          1 MOL1         0.0976
      20    C6      18.053433   16.292219   22.336117 C.3        1 MOL1        -0.2365
      21    H14     18.307826   15.843482   23.305100 H          1 MOL1         0.0987
      22    H15     17.664678   15.495093   21.689282 H          1 MOL1         0.0987
      23    H16     17.241840   17.013301   22.492960 H          1 MOL1         0.0987
@<TRIPOS>BOND
    1     1     2    1
    2     1     3    1
    3     1     4    1
    4     1     5    1
    5     5     6    1
    6     5     7    1
    7     5     8    1
    8     8     9    1
    9     8    10    1
   10     8    11    1
   11    11    12    1
   12    11    13    1
   13    11    14    1
   14    14    15    1
   15    14    16    1
   16    14    17    1
   17    17    18    1
   18    17    19    1
   19    17    20    1
   20    20    21    1
   21    20    22    1
   22    20    23    1
@<TRIPOS>SUBSTRUCTURE
       1 MOL1            1 RESIDUE      1      MOL     
@<SCITEGIC>MOL_PROPERTY
VConf Rank
SciTegic.value.IntegerValue
583

@<SCITEGIC>MOL_PROPERTY
Conf_Id
SciTegic.value.IntegerValue
50

@<SCITEGIC>MOL_PROPERTY
Delta U+W
SciTegic.value.DoubleValue
1.252

@<SCITEGIC>MOL_PROPERTY
U+W
SciTegic.value.DoubleValue
-7.130

@<SCITEGIC>MOL_PROPERTY
Grad RMS
SciTegic.value.DoubleValue
0.000000

@<SCITEGIC>MOL_PROPERTY
U
SciTegic.value.DoubleValue
48.727

@<SCITEGIC>MOL_PROPERTY
W
SciTegic.value.DoubleValue
-55.857

@<SCITEGIC>MOL_PROPERTY
W(PB)
SciTegic.value.DoubleValue
-57.937

@<SCITEGIC>MOL_PROPERTY
W(SA)
SciTegic.value.DoubleValue
2.080

@<SCITEGIC>MOL_PROPERTY
Valence
SciTegic.value.DoubleValue
2.671

@<SCITEGIC>MOL_PROPERTY
Coulomb
SciTegic.value.DoubleValue
45.371

@<SCITEGIC>MOL_PROPERTY
VdW
SciTegic.value.DoubleValue
0.684

@<SCITEGIC>MOL_PROPERTY
VdW6
SciTegic.value.DoubleValue
-6.511

@<SCITEGIC>MOL_PROPERTY
VdW12
SciTegic.value.DoubleValue
7.196

@<SCITEGIC>MOL_PROPERTY
Bond
SciTegic.value.DoubleValue
0.203

@<SCITEGIC>MOL_PROPERTY
Angle
SciTegic.value.DoubleValue
0.915

@<SCITEGIC>MOL_PROPERTY
Pdih
SciTegic.value.DoubleValue
1.554

@<SCITEGIC>MOL_PROPERTY
Idih
SciTegic.value.DoubleValue
0.000

@<SCITEGIC>MOL_PROPERTY
Tether
SciTegic.value.DoubleValue
0.000

@<TRIPOS>MOLECULE
guest-2_confgen4.mol2 : confsearch ligand conformer 584
          23          22           1
SMALL
USER_CHARGES
 
@<TRIPOS>ATOM
       1    N1      17.757523   17.417100   24.450383 N.4        1 MOL1        -0.5940
       2    H1      17.304039   18.332732   24.376197 H          1 MOL1         0.3649
       3    H2      17.545082   17.052499   25.385190 H          1 MOL1         0.3649
       4    H3      17.298855   16.796037   23.776196 H          1 MOL1         0.3649
       5    C1      19.251578   17.507640   24.207811 C.3        1 MOL1         0.0207
       6    H4      19.670428   16.506763   24.343396 H          1 MOL1         0.0950
       7    H5      19.680302   18.162342   24.971338 H          1 MOL1         0.0950
       8    C2      19.624197   18.031521   22.807289 C.3        1 MOL1        -0.1415
       9    H6      20.711167   17.956041   22.691260 H          1 MOL1         0.0976
      10    H7      19.187173   17.373871   22.044220 H          1 MOL1         0.0976
      11    C3      19.159458   19.491547   22.572730 C.3        1 MOL1        -0.1375
      12    H8      19.513869   20.141008   23.385102 H          1 MOL1         0.0976
      13    H9      18.062528   19.519664   22.616794 H          1 MOL1         0.0976
      14    C4      19.602915   20.065593   21.201627 C.3        1 MOL1        -0.1375
      15    H10     19.691397   19.259127   20.460697 H          1 MOL1         0.0976
      16    H11     18.803212   20.721403   20.830306 H          1 MOL1         0.0976
      17    C5      20.908801   20.900093   21.240068 C.3        1 MOL1        -0.1350
      18    H12     20.774858   21.763111   21.907175 H          1 MOL1         0.0976
      19    H13     21.086557   21.315428   20.238213 H          1 MOL1         0.0976
      20    C6      22.159670   20.105837   21.675403 C.3        1 MOL1        -0.2365
      21    H14     22.288637   19.203302   21.064148 H          1 MOL1         0.0987
      22    H15     22.096608   19.809099   22.729559 H          1 MOL1         0.0987
      23    H16     23.062385   20.719892   21.561695 H          1 MOL1         0.0987
@<TRIPOS>BOND
    1     1     2    1
    2     1     3    1
    3     1     4    1
    4     1     5    1
    5     5     6    1
    6     5     7    1
    7     5     8    1
    8     8     9    1
    9     8    10    1
   10     8    11    1
   11    11    12    1
   12    11    13    1
   13    11    14    1
   14    14    15    1
   15    14    16    1
   16    14    17    1
   17    17    18    1
   18    17    19    1
   19    17    20    1
   20    20    21    1
   21    20    22    1
   22    20    23    1
@<TRIPOS>SUBSTRUCTURE
       1 MOL1            1 RESIDUE      1      MOL     
@<SCITEGIC>MOL_PROPERTY
VConf Rank
SciTegic.value.IntegerValue
584

@<SCITEGIC>MOL_PROPERTY
Conf_Id
SciTegic.value.IntegerValue
55

@<SCITEGIC>MOL_PROPERTY
Delta U+W
SciTegic.value.DoubleValue
3.232

@<SCITEGIC>MOL_PROPERTY
U+W
SciTegic.value.DoubleValue
-5.150

@<SCITEGIC>MOL_PROPERTY
Grad RMS
SciTegic.value.DoubleValue
0.000000

@<SCITEGIC>MOL_PROPERTY
U
SciTegic.value.DoubleValue
50.625

@<SCITEGIC>MOL_PROPERTY
W
SciTegic.value.DoubleValue
-55.776

@<SCITEGIC>MOL_PROPERTY
W(PB)
SciTegic.value.DoubleValue
-57.839

@<SCITEGIC>MOL_PROPERTY
W(SA)
SciTegic.value.DoubleValue
2.064

@<SCITEGIC>MOL_PROPERTY
Valence
SciTegic.value.DoubleValue
4.837

@<SCITEGIC>MOL_PROPERTY
Coulomb
SciTegic.value.DoubleValue
45.097

@<SCITEGIC>MOL_PROPERTY
VdW
SciTegic.value.DoubleValue
0.692

@<SCITEGIC>MOL_PROPERTY
VdW6
SciTegic.value.DoubleValue
-6.655

@<SCITEGIC>MOL_PROPERTY
VdW12
SciTegic.value.DoubleValue
7.347

@<SCITEGIC>MOL_PROPERTY
Bond
SciTegic.value.DoubleValue
0.223

@<SCITEGIC>MOL_PROPERTY
Angle
SciTegic.value.DoubleValue
1.167

@<SCITEGIC>MOL_PROPERTY
Pdih
SciTegic.value.DoubleValue
3.447

@<SCITEGIC>MOL_PROPERTY
Idih
SciTegic.value.DoubleValue
0.000

@<SCITEGIC>MOL_PROPERTY
Tether
SciTegic.value.DoubleValue
0.000

@<TRIPOS>MOLECULE
guest-2_confgen4.mol2 : confsearch ligand conformer 585
          23          22           1
SMALL
USER_CHARGES
 
@<TRIPOS>ATOM
       1    N1      17.019002   20.078358   21.748862 N.4        1 MOL1        -0.5940
       2    H1      16.209700   19.456300   21.654516 H          1 MOL1         0.3649
       3    H2      16.926214   20.799252   21.025190 H          1 MOL1         0.3649
       4    H3      16.931429   20.551496   22.653974 H          1 MOL1         0.3649
       5    C1      18.327943   19.324784   21.628662 C.3        1 MOL1         0.0207
       6    H4      19.138936   20.051609   21.701841 H          1 MOL1         0.0950
       7    H5      18.364924   18.872192   20.634081 H          1 MOL1         0.0950
       8    C2      18.492702   18.228906   22.699965 C.3        1 MOL1        -0.1415
       9    H6      18.411191   18.662190   23.705691 H          1 MOL1         0.0976
      10    H7      17.656613   17.524316   22.597358 H          1 MOL1         0.0976
      11    C3      19.820317   17.441065   22.565026 C.3        1 MOL1        -0.1375
      12    H8      20.064577   17.294078   21.503737 H          1 MOL1         0.0976
      13    H9      19.662945   16.433985   22.975539 H          1 MOL1         0.0976
      14    C4      21.029856   18.064708   23.309041 C.3        1 MOL1        -0.1375
      15    H10     20.813625   18.110100   24.385366 H          1 MOL1         0.0976
      16    H11     21.885895   17.384569   23.199268 H          1 MOL1         0.0976
      17    C5      21.439360   19.469196   22.808820 C.3        1 MOL1        -0.1350
      18    H12     20.654693   20.196740   23.053550 H          1 MOL1         0.0976
      19    H13     21.546624   19.460098   21.715162 H          1 MOL1         0.0976
      20    C6      22.763421   19.937783   23.449110 C.3        1 MOL1        -0.2365
      21    H14     23.587326   19.257608   23.196610 H          1 MOL1         0.0987
      22    H15     22.678987   19.981444   24.542826 H          1 MOL1         0.0987
      23    H16     23.033359   20.940012   23.091758 H          1 MOL1         0.0987
@<TRIPOS>BOND
    1     1     2    1
    2     1     3    1
    3     1     4    1
    4     1     5    1
    5     5     6    1
    6     5     7    1
    7     5     8    1
    8     8     9    1
    9     8    10    1
   10     8    11    1
   11    11    12    1
   12    11    13    1
   13    11    14    1
   14    14    15    1
   15    14    16    1
   16    14    17    1
   17    17    18    1
   18    17    19    1
   19    17    20    1
   20    20    21    1
   21    20    22    1
   22    20    23    1
@<TRIPOS>SUBSTRUCTURE
       1 MOL1            1 RESIDUE      1      MOL     
@<SCITEGIC>MOL_PROPERTY
VConf Rank
SciTegic.value.IntegerValue
585

@<SCITEGIC>MOL_PROPERTY
Conf_Id
SciTegic.value.IntegerValue
93

@<SCITEGIC>MOL_PROPERTY
Delta U+W
SciTegic.value.DoubleValue
2.589

@<SCITEGIC>MOL_PROPERTY
U+W
SciTegic.value.DoubleValue
-5.793

@<SCITEGIC>MOL_PROPERTY
Grad RMS
SciTegic.value.DoubleValue
0.000000

@<SCITEGIC>MOL_PROPERTY
U
SciTegic.value.DoubleValue
50.122

@<SCITEGIC>MOL_PROPERTY
W
SciTegic.value.DoubleValue
-55.915

@<SCITEGIC>MOL_PROPERTY
W(PB)
SciTegic.value.DoubleValue
-58.031

@<SCITEGIC>MOL_PROPERTY
W(SA)
SciTegic.value.DoubleValue
2.115

@<SCITEGIC>MOL_PROPERTY
Valence
SciTegic.value.DoubleValue
4.132

@<SCITEGIC>MOL_PROPERTY
Coulomb
SciTegic.value.DoubleValue
45.536

@<SCITEGIC>MOL_PROPERTY
VdW
SciTegic.value.DoubleValue
0.454

@<SCITEGIC>MOL_PROPERTY
VdW6
SciTegic.value.DoubleValue
-6.262

@<SCITEGIC>MOL_PROPERTY
VdW12
SciTegic.value.DoubleValue
6.715

@<SCITEGIC>MOL_PROPERTY
Bond
SciTegic.value.DoubleValue
0.182

@<SCITEGIC>MOL_PROPERTY
Angle
SciTegic.value.DoubleValue
1.157

@<SCITEGIC>MOL_PROPERTY
Pdih
SciTegic.value.DoubleValue
2.794

@<SCITEGIC>MOL_PROPERTY
Idih
SciTegic.value.DoubleValue
0.000

@<SCITEGIC>MOL_PROPERTY
Tether
SciTegic.value.DoubleValue
0.000

@<TRIPOS>MOLECULE
guest-2_confgen4.mol2 : confsearch ligand conformer 586
          23          22           1
SMALL
USER_CHARGES
 
@<TRIPOS>ATOM
       1    N1      20.689560   20.378057   25.218112 N.4        1 MOL1        -0.5940
       2    H1      20.503505   21.289369   24.787240 H          1 MOL1         0.3649
       3    H2      21.681674   20.367989   25.478126 H          1 MOL1         0.3649
       4    H3      20.152976   20.342232   26.090822 H          1 MOL1         0.3649
       5    C1      20.338467   19.231860   24.291498 C.3        1 MOL1         0.0207
       6    H4      20.588324   18.298133   24.802502 H          1 MOL1         0.0950
       7    H5      20.970347   19.314096   23.405324 H          1 MOL1         0.0950
       8    C2      18.850707   19.216791   23.888845 C.3        1 MOL1        -0.1415
       9    H6      18.250861   19.140249   24.805548 H          1 MOL1         0.0976
      10    H7      18.573188   20.167950   23.415408 H          1 MOL1         0.0976
      11    C3      18.483985   18.031995   22.959739 C.3        1 MOL1        -0.1375
      12    H8      17.423779   17.789927   23.117422 H          1 MOL1         0.0976
      13    H9      19.041189   17.133105   23.258275 H          1 MOL1         0.0976
      14    C4      18.680775   18.302757   21.445330 C.3        1 MOL1        -0.1375
      15    H10     18.322770   17.423547   20.891920 H          1 MOL1         0.0976
      16    H11     18.038176   19.138818   21.136527 H          1 MOL1         0.0976
      17    C5      20.140170   18.596619   21.027819 C.3        1 MOL1        -0.1350
      18    H12     20.807732   17.822672   21.431603 H          1 MOL1         0.0976
      19    H13     20.463087   19.557721   21.448443 H          1 MOL1         0.0976
      20    C6      20.292509   18.653964   19.492832 C.3        1 MOL1        -0.2365
      21    H14     21.331280   18.874116   19.214412 H          1 MOL1         0.0987
      22    H15     19.655014   19.437112   19.062099 H          1 MOL1         0.0987
      23    H16     20.016619   17.696523   19.031957 H          1 MOL1         0.0987
@<TRIPOS>BOND
    1     1     2    1
    2     1     3    1
    3     1     4    1
    4     1     5    1
    5     5     6    1
    6     5     7    1
    7     5     8    1
    8     8     9    1
    9     8    10    1
   10     8    11    1
   11    11    12    1
   12    11    13    1
   13    11    14    1
   14    14    15    1
   15    14    16    1
   16    14    17    1
   17    17    18    1
   18    17    19    1
   19    17    20    1
   20    20    21    1
   21    20    22    1
   22    20    23    1
@<TRIPOS>SUBSTRUCTURE
       1 MOL1            1 RESIDUE      1      MOL     
@<SCITEGIC>MOL_PROPERTY
VConf Rank
SciTegic.value.IntegerValue
586

@<SCITEGIC>MOL_PROPERTY
Conf_Id
SciTegic.value.IntegerValue
70

@<SCITEGIC>MOL_PROPERTY
Delta U+W
SciTegic.value.DoubleValue
2.599

@<SCITEGIC>MOL_PROPERTY
U+W
SciTegic.value.DoubleValue
-5.783

@<SCITEGIC>MOL_PROPERTY
Grad RMS
SciTegic.value.DoubleValue
0.000000

@<SCITEGIC>MOL_PROPERTY
U
SciTegic.value.DoubleValue
50.122

@<SCITEGIC>MOL_PROPERTY
W
SciTegic.value.DoubleValue
-55.906

@<SCITEGIC>MOL_PROPERTY
W(PB)
SciTegic.value.DoubleValue
-58.010

@<SCITEGIC>MOL_PROPERTY
W(SA)
SciTegic.value.DoubleValue
2.105

@<SCITEGIC>MOL_PROPERTY
Valence
SciTegic.value.DoubleValue
4.132

@<SCITEGIC>MOL_PROPERTY
Coulomb
SciTegic.value.DoubleValue
45.536

@<SCITEGIC>MOL_PROPERTY
VdW
SciTegic.value.DoubleValue
0.454

@<SCITEGIC>MOL_PROPERTY
VdW6
SciTegic.value.DoubleValue
-6.262

@<SCITEGIC>MOL_PROPERTY
VdW12
SciTegic.value.DoubleValue
6.715

@<SCITEGIC>MOL_PROPERTY
Bond
SciTegic.value.DoubleValue
0.182

@<SCITEGIC>MOL_PROPERTY
Angle
SciTegic.value.DoubleValue
1.157

@<SCITEGIC>MOL_PROPERTY
Pdih
SciTegic.value.DoubleValue
2.794

@<SCITEGIC>MOL_PROPERTY
Idih
SciTegic.value.DoubleValue
0.000

@<SCITEGIC>MOL_PROPERTY
Tether
SciTegic.value.DoubleValue
0.000

@<TRIPOS>MOLECULE
guest-2_confgen4.mol2 : confsearch ligand conformer 587
          23          22           1
SMALL
USER_CHARGES
 
@<TRIPOS>ATOM
       1    N1      20.975531   16.625725   21.508454 N.4        1 MOL1        -0.5940
       2    H1      20.590156   15.682989   21.623524 H          1 MOL1         0.3649
       3    H2      21.923273   16.517721   21.131779 H          1 MOL1         0.3649
       4    H3      20.417156   17.095461   20.789406 H          1 MOL1         0.3649
       5    C1      20.971869   17.398209   22.812865 C.3        1 MOL1         0.0207
       6    H4      21.423746   18.376551   22.629563 H          1 MOL1         0.0950
       7    H5      21.606139   16.858551   23.521361 H          1 MOL1         0.0950
       8    C2      19.565855   17.580036   23.419368 C.3        1 MOL1        -0.1415
       9    H6      19.135873   16.592147   23.631279 H          1 MOL1         0.0976
      10    H7      19.661563   18.078938   24.392175 H          1 MOL1         0.0976
      11    C3      18.588488   18.378325   22.516875 C.3        1 MOL1        -0.1375
      12    H8      17.631632   18.491549   23.044899 H          1 MOL1         0.0976
      13    H9      18.362820   17.789195   21.617857 H          1 MOL1         0.0976
      14    C4      19.095595   19.778225   22.083376 C.3        1 MOL1        -0.1375
      15    H10     20.002686   19.678161   21.472586 H          1 MOL1         0.0976
      16    H11     18.339148   20.232986   21.428916 H          1 MOL1         0.0976
      17    C5      19.370021   20.731017   23.270714 C.3        1 MOL1        -0.1350
      18    H12     20.174747   20.329230   23.900732 H          1 MOL1         0.0976
      19    H13     18.474637   20.802134   23.903913 H          1 MOL1         0.0976
      20    C6      19.769110   22.141724   22.787995 C.3        1 MOL1        -0.2365
      21    H14     19.962482   22.803425   23.642263 H          1 MOL1         0.0987
      22    H15     18.970275   22.594111   22.185997 H          1 MOL1         0.0987
      23    H16     20.680013   22.106346   22.176269 H          1 MOL1         0.0987
@<TRIPOS>BOND
    1     1     2    1
    2     1     3    1
    3     1     4    1
    4     1     5    1
    5     5     6    1
    6     5     7    1
    7     5     8    1
    8     8     9    1
    9     8    10    1
   10     8    11    1
   11    11    12    1
   12    11    13    1
   13    11    14    1
   14    14    15    1
   15    14    16    1
   16    14    17    1
   17    17    18    1
   18    17    19    1
   19    17    20    1
   20    20    21    1
   21    20    22    1
   22    20    23    1
@<TRIPOS>SUBSTRUCTURE
       1 MOL1            1 RESIDUE      1      MOL     
@<SCITEGIC>MOL_PROPERTY
VConf Rank
SciTegic.value.IntegerValue
587

@<SCITEGIC>MOL_PROPERTY
Conf_Id
SciTegic.value.IntegerValue
72

@<SCITEGIC>MOL_PROPERTY
Delta U+W
SciTegic.value.DoubleValue
1.051

@<SCITEGIC>MOL_PROPERTY
U+W
SciTegic.value.DoubleValue
-7.331

@<SCITEGIC>MOL_PROPERTY
Grad RMS
SciTegic.value.DoubleValue
0.000000

@<SCITEGIC>MOL_PROPERTY
U
SciTegic.value.DoubleValue
48.590

@<SCITEGIC>MOL_PROPERTY
W
SciTegic.value.DoubleValue
-55.922

@<SCITEGIC>MOL_PROPERTY
W(PB)
SciTegic.value.DoubleValue
-58.012

@<SCITEGIC>MOL_PROPERTY
W(SA)
SciTegic.value.DoubleValue
2.090

@<SCITEGIC>MOL_PROPERTY
Valence
SciTegic.value.DoubleValue
2.601

@<SCITEGIC>MOL_PROPERTY
Coulomb
SciTegic.value.DoubleValue
45.520

@<SCITEGIC>MOL_PROPERTY
VdW
SciTegic.value.DoubleValue
0.469

@<SCITEGIC>MOL_PROPERTY
VdW6
SciTegic.value.DoubleValue
-6.867

@<SCITEGIC>MOL_PROPERTY
VdW12
SciTegic.value.DoubleValue
7.336

@<SCITEGIC>MOL_PROPERTY
Bond
SciTegic.value.DoubleValue
0.205

@<SCITEGIC>MOL_PROPERTY
Angle
SciTegic.value.DoubleValue
0.962

@<SCITEGIC>MOL_PROPERTY
Pdih
SciTegic.value.DoubleValue
1.434

@<SCITEGIC>MOL_PROPERTY
Idih
SciTegic.value.DoubleValue
0.000

@<SCITEGIC>MOL_PROPERTY
Tether
SciTegic.value.DoubleValue
0.000

@<TRIPOS>MOLECULE
guest-2_confgen4.mol2 : confsearch ligand conformer 588
          23          22           1
SMALL
USER_CHARGES
 
@<TRIPOS>ATOM
       1    N1      19.932859   21.195990   20.419645 N.4        1 MOL1        -0.5940
       2    H1      20.201448   21.128859   19.432067 H          1 MOL1         0.3649
       3    H2      20.256682   22.109045   20.754685 H          1 MOL1         0.3649
       4    H3      18.908374   21.209680   20.449720 H          1 MOL1         0.3649
       5    C1      20.507717   20.057694   21.237851 C.3        1 MOL1         0.0207
       6    H4      21.596118   20.085674   21.138101 H          1 MOL1         0.0950
       7    H5      20.146673   19.119526   20.808408 H          1 MOL1         0.0950
       8    C2      20.122157   20.129395   22.727153 C.3        1 MOL1        -0.1415
       9    H6      20.456346   21.090919   23.138878 H          1 MOL1         0.0976
      10    H7      19.029419   20.114462   22.827811 H          1 MOL1         0.0976
      11    C3      20.746734   18.983978   23.562011 C.3        1 MOL1        -0.1375
      12    H8      20.453165   19.104679   24.613295 H          1 MOL1         0.0976
      13    H9      21.840333   19.089382   23.546439 H          1 MOL1         0.0976
      14    C4      20.380695   17.553470   23.081989 C.3        1 MOL1        -0.1375
      15    H10     20.820219   17.377529   22.090946 H          1 MOL1         0.0976
      16    H11     20.860985   16.825858   23.750624 H          1 MOL1         0.0976
      17    C5      18.862614   17.247486   23.018561 C.3        1 MOL1        -0.1350
      18    H12     18.727667   16.218805   22.656215 H          1 MOL1         0.0976
      19    H13     18.375541   17.893730   22.276101 H          1 MOL1         0.0976
      20    C6      18.150854   17.391479   24.382811 C.3        1 MOL1        -0.2365
      21    H14     18.629021   16.763085   25.145317 H          1 MOL1         0.0987
      22    H15     17.100597   17.082487   24.303259 H          1 MOL1         0.0987
      23    H16     18.163947   18.430130   24.735785 H          1 MOL1         0.0987
@<TRIPOS>BOND
    1     1     2    1
    2     1     3    1
    3     1     4    1
    4     1     5    1
    5     5     6    1
    6     5     7    1
    7     5     8    1
    8     8     9    1
    9     8    10    1
   10     8    11    1
   11    11    12    1
   12    11    13    1
   13    11    14    1
   14    14    15    1
   15    14    16    1
   16    14    17    1
   17    17    18    1
   18    17    19    1
   19    17    20    1
   20    20    21    1
   21    20    22    1
   22    20    23    1
@<TRIPOS>SUBSTRUCTURE
       1 MOL1            1 RESIDUE      1      MOL     
@<SCITEGIC>MOL_PROPERTY
VConf Rank
SciTegic.value.IntegerValue
588

@<SCITEGIC>MOL_PROPERTY
Conf_Id
SciTegic.value.IntegerValue
26

@<SCITEGIC>MOL_PROPERTY
Delta U+W
SciTegic.value.DoubleValue
1.076

@<SCITEGIC>MOL_PROPERTY
U+W
SciTegic.value.DoubleValue
-7.306

@<SCITEGIC>MOL_PROPERTY
Grad RMS
SciTegic.value.DoubleValue
0.000000

@<SCITEGIC>MOL_PROPERTY
U
SciTegic.value.DoubleValue
48.641

@<SCITEGIC>MOL_PROPERTY
W
SciTegic.value.DoubleValue
-55.947

@<SCITEGIC>MOL_PROPERTY
W(PB)
SciTegic.value.DoubleValue
-58.031

@<SCITEGIC>MOL_PROPERTY
W(SA)
SciTegic.value.DoubleValue
2.084

@<SCITEGIC>MOL_PROPERTY
Valence
SciTegic.value.DoubleValue
2.922

@<SCITEGIC>MOL_PROPERTY
Coulomb
SciTegic.value.DoubleValue
45.269

@<SCITEGIC>MOL_PROPERTY
VdW
SciTegic.value.DoubleValue
0.449

@<SCITEGIC>MOL_PROPERTY
VdW6
SciTegic.value.DoubleValue
-7.045

@<SCITEGIC>MOL_PROPERTY
VdW12
SciTegic.value.DoubleValue
7.494

@<SCITEGIC>MOL_PROPERTY
Bond
SciTegic.value.DoubleValue
0.220

@<SCITEGIC>MOL_PROPERTY
Angle
SciTegic.value.DoubleValue
1.205

@<SCITEGIC>MOL_PROPERTY
Pdih
SciTegic.value.DoubleValue
1.497

@<SCITEGIC>MOL_PROPERTY
Idih
SciTegic.value.DoubleValue
0.000

@<SCITEGIC>MOL_PROPERTY
Tether
SciTegic.value.DoubleValue
0.000

@<TRIPOS>MOLECULE
guest-2_confgen4.mol2 : confsearch ligand conformer 589
          23          22           1
SMALL
USER_CHARGES
 
@<TRIPOS>ATOM
       1    N1      17.988192   20.463003   24.693777 N.4        1 MOL1        -0.5940
       2    H1      17.827407   19.953053   25.568352 H          1 MOL1         0.3649
       3    H2      17.169345   21.062075   24.543577 H          1 MOL1         0.3649
       4    H3      18.787943   21.084850   24.849878 H          1 MOL1         0.3649
       5    C1      18.220505   19.524520   23.527194 C.3        1 MOL1         0.0207
       6    H4      18.353557   20.132334   22.628422 H          1 MOL1         0.0950
       7    H5      17.322321   18.914194   23.400247 H          1 MOL1         0.0950
       8    C2      19.444560   18.610377   23.721749 C.3        1 MOL1        -0.1415
       9    H6      20.344835   19.222079   23.862311 H          1 MOL1         0.0976
      10    H7      19.317632   18.031975   24.646449 H          1 MOL1         0.0976
      11    C3      19.650431   17.628105   22.541995 C.3        1 MOL1        -0.1375
      12    H8      18.790844   16.945316   22.494872 H          1 MOL1         0.0976
      13    H9      20.521308   16.992809   22.751572 H          1 MOL1         0.0976
      14    C4      19.822563   18.303324   21.154476 C.3        1 MOL1        -0.1375
      15    H10     19.976731   17.519577   20.400063 H          1 MOL1         0.0976
      16    H11     18.885743   18.802771   20.873009 H          1 MOL1         0.0976
      17    C5      20.983977   19.325094   21.057907 C.3        1 MOL1        -0.1350
      18    H12     20.799502   20.174456   21.729230 H          1 MOL1         0.0976
      19    H13     20.998980   19.743036   20.041644 H          1 MOL1         0.0976
      20    C6      22.368505   18.709852   21.362996 C.3        1 MOL1        -0.2365
      21    H14     22.439333   18.375570   22.405492 H          1 MOL1         0.0987
      22    H15     23.162806   19.449280   21.198155 H          1 MOL1         0.0987
      23    H16     22.569955   17.849616   20.711572 H          1 MOL1         0.0987
@<TRIPOS>BOND
    1     1     2    1
    2     1     3    1
    3     1     4    1
    4     1     5    1
    5     5     6    1
    6     5     7    1
    7     5     8    1
    8     8     9    1
    9     8    10    1
   10     8    11    1
   11    11    12    1
   12    11    13    1
   13    11    14    1
   14    14    15    1
   15    14    16    1
   16    14    17    1
   17    17    18    1
   18    17    19    1
   19    17    20    1
   20    20    21    1
   21    20    22    1
   22    20    23    1
@<TRIPOS>SUBSTRUCTURE
       1 MOL1            1 RESIDUE      1      MOL     
@<SCITEGIC>MOL_PROPERTY
VConf Rank
SciTegic.value.IntegerValue
589

@<SCITEGIC>MOL_PROPERTY
Conf_Id
SciTegic.value.IntegerValue
90

@<SCITEGIC>MOL_PROPERTY
Delta U+W
SciTegic.value.DoubleValue
1.131

@<SCITEGIC>MOL_PROPERTY
U+W
SciTegic.value.DoubleValue
-7.251

@<SCITEGIC>MOL_PROPERTY
Grad RMS
SciTegic.value.DoubleValue
0.000000

@<SCITEGIC>MOL_PROPERTY
U
SciTegic.value.DoubleValue
48.641

@<SCITEGIC>MOL_PROPERTY
W
SciTegic.value.DoubleValue
-55.892

@<SCITEGIC>MOL_PROPERTY
W(PB)
SciTegic.value.DoubleValue
-57.962

@<SCITEGIC>MOL_PROPERTY
W(SA)
SciTegic.value.DoubleValue
2.070

@<SCITEGIC>MOL_PROPERTY
Valence
SciTegic.value.DoubleValue
2.922

@<SCITEGIC>MOL_PROPERTY
Coulomb
SciTegic.value.DoubleValue
45.269

@<SCITEGIC>MOL_PROPERTY
VdW
SciTegic.value.DoubleValue
0.450

@<SCITEGIC>MOL_PROPERTY
VdW6
SciTegic.value.DoubleValue
-7.045

@<SCITEGIC>MOL_PROPERTY
VdW12
SciTegic.value.DoubleValue
7.495

@<SCITEGIC>MOL_PROPERTY
Bond
SciTegic.value.DoubleValue
0.220

@<SCITEGIC>MOL_PROPERTY
Angle
SciTegic.value.DoubleValue
1.205

@<SCITEGIC>MOL_PROPERTY
Pdih
SciTegic.value.DoubleValue
1.497

@<SCITEGIC>MOL_PROPERTY
Idih
SciTegic.value.DoubleValue
0.000

@<SCITEGIC>MOL_PROPERTY
Tether
SciTegic.value.DoubleValue
0.000

@<TRIPOS>MOLECULE
guest-2_confgen4.mol2 : confsearch ligand conformer 590
          23          22           1
SMALL
USER_CHARGES
 
@<TRIPOS>ATOM
       1    N1      21.459570   17.470490   24.035461 N.4        1 MOL1        -0.5940
       2    H1      21.530242   16.485097   24.310886 H          1 MOL1         0.3649
       3    H2      20.528163   17.794805   24.312810 H          1 MOL1         0.3649
       4    H3      22.141721   17.988161   24.598720 H          1 MOL1         0.3649
       5    C1      21.697527   17.658680   22.550081 C.3        1 MOL1         0.0207
       6    H4      20.960142   17.059182   22.010097 H          1 MOL1         0.0950
       7    H5      22.690387   17.263181   22.319151 H          1 MOL1         0.0950
       8    C2      21.612509   19.128417   22.090152 C.3        1 MOL1        -0.1415
       9    H6      22.388399   19.711505   22.603759 H          1 MOL1         0.0976
      10    H7      21.852302   19.176721   21.019634 H          1 MOL1         0.0976
      11    C3      20.231030   19.785918   22.334674 C.3        1 MOL1        -0.1375
      12    H8      20.273950   20.828562   21.990929 H          1 MOL1         0.0976
      13    H9      20.031099   19.827349   23.412827 H          1 MOL1         0.0976
      14    C4      19.074618   19.057490   21.604209 C.3        1 MOL1        -0.1375
      15    H10     19.332895   18.950958   20.541566 H          1 MOL1         0.0976
      16    H11     18.959214   18.039019   21.998329 H          1 MOL1         0.0976
      17    C5      17.719747   19.798272   21.708896 C.3        1 MOL1        -0.1350
      18    H12     16.983598   19.277667   21.080493 H          1 MOL1         0.0976
      19    H13     17.816295   20.811163   21.293553 H          1 MOL1         0.0976
      20    C6      17.174301   19.878040   23.152940 C.3        1 MOL1        -0.2365
      21    H14     17.093334   18.878986   23.600458 H          1 MOL1         0.0987
      22    H15     16.174416   20.330920   23.161038 H          1 MOL1         0.0987
      23    H16     17.818786   20.491822   23.794283 H          1 MOL1         0.0987
@<TRIPOS>BOND
    1     1     2    1
    2     1     3    1
    3     1     4    1
    4     1     5    1
    5     5     6    1
    6     5     7    1
    7     5     8    1
    8     8     9    1
    9     8    10    1
   10     8    11    1
   11    11    12    1
   12    11    13    1
   13    11    14    1
   14    14    15    1
   15    14    16    1
   16    14    17    1
   17    17    18    1
   18    17    19    1
   19    17    20    1
   20    20    21    1
   21    20    22    1
   22    20    23    1
@<TRIPOS>SUBSTRUCTURE
       1 MOL1            1 RESIDUE      1      MOL     
@<SCITEGIC>MOL_PROPERTY
VConf Rank
SciTegic.value.IntegerValue
590

@<SCITEGIC>MOL_PROPERTY
Conf_Id
SciTegic.value.IntegerValue
85

@<SCITEGIC>MOL_PROPERTY
Delta U+W
SciTegic.value.DoubleValue
1.193

@<SCITEGIC>MOL_PROPERTY
U+W
SciTegic.value.DoubleValue
-7.189

@<SCITEGIC>MOL_PROPERTY
Grad RMS
SciTegic.value.DoubleValue
0.000000

@<SCITEGIC>MOL_PROPERTY
U
SciTegic.value.DoubleValue
48.775

@<SCITEGIC>MOL_PROPERTY
W
SciTegic.value.DoubleValue
-55.965

@<SCITEGIC>MOL_PROPERTY
W(PB)
SciTegic.value.DoubleValue
-58.038

@<SCITEGIC>MOL_PROPERTY
W(SA)
SciTegic.value.DoubleValue
2.073

@<SCITEGIC>MOL_PROPERTY
Valence
SciTegic.value.DoubleValue
2.602

@<SCITEGIC>MOL_PROPERTY
Coulomb
SciTegic.value.DoubleValue
45.581

@<SCITEGIC>MOL_PROPERTY
VdW
SciTegic.value.DoubleValue
0.592

@<SCITEGIC>MOL_PROPERTY
VdW6
SciTegic.value.DoubleValue
-6.616

@<SCITEGIC>MOL_PROPERTY
VdW12
SciTegic.value.DoubleValue
7.208

@<SCITEGIC>MOL_PROPERTY
Bond
SciTegic.value.DoubleValue
0.196

@<SCITEGIC>MOL_PROPERTY
Angle
SciTegic.value.DoubleValue
0.832

@<SCITEGIC>MOL_PROPERTY
Pdih
SciTegic.value.DoubleValue
1.574

@<SCITEGIC>MOL_PROPERTY
Idih
SciTegic.value.DoubleValue
0.000

@<SCITEGIC>MOL_PROPERTY
Tether
SciTegic.value.DoubleValue
0.000

@<TRIPOS>MOLECULE
guest-2_confgen4.mol2 : confsearch ligand conformer 591
          23          22           1
SMALL
USER_CHARGES
 
@<TRIPOS>ATOM
       1    N1      19.437167   18.782748   24.598687 N.4        1 MOL1        -0.5940
       2    H1      19.258334   19.493303   23.881888 H          1 MOL1         0.3649
       3    H2      19.880935   19.253779   25.394617 H          1 MOL1         0.3649
       4    H3      18.527218   18.440295   24.923852 H          1 MOL1         0.3649
       5    C1      20.299043   17.658207   24.058096 C.3        1 MOL1         0.0207
       6    H4      20.442861   16.945359   24.874598 H          1 MOL1         0.0950
       7    H5      21.276793   18.065344   23.787220 H          1 MOL1         0.0950
       8    C2      19.684689   16.922335   22.849883 C.3        1 MOL1        -0.1415
       9    H6      20.149067   15.928884   22.792903 H          1 MOL1         0.0976
      10    H7      18.616328   16.742403   23.029050 H          1 MOL1         0.0976
      11    C3      19.886682   17.619032   21.477322 C.3        1 MOL1        -0.1375
      12    H8      19.452525   16.963714   20.709486 H          1 MOL1         0.0976
      13    H9      20.958147   17.678036   21.240782 H          1 MOL1         0.0976
      14    C4      19.231756   19.017484   21.340706 C.3        1 MOL1        -0.1375
      15    H10     18.857893   19.128739   20.313288 H          1 MOL1         0.0976
      16    H11     18.346043   19.086080   21.986100 H          1 MOL1         0.0976
      17    C5      20.215460   20.180790   21.616648 C.3        1 MOL1        -0.1350
      18    H12     21.000709   20.181055   20.847546 H          1 MOL1         0.0976
      19    H13     20.731313   20.043645   22.574439 H          1 MOL1         0.0976
      20    C6      19.499033   21.547726   21.609825 C.3        1 MOL1        -0.2365
      21    H14     19.017533   21.734954   20.641077 H          1 MOL1         0.0987
      22    H15     20.213889   22.360721   21.792031 H          1 MOL1         0.0987
      23    H16     18.727386   21.597203   22.388850 H          1 MOL1         0.0987
@<TRIPOS>BOND
    1     1     2    1
    2     1     3    1
    3     1     4    1
    4     1     5    1
    5     5     6    1
    6     5     7    1
    7     5     8    1
    8     8     9    1
    9     8    10    1
   10     8    11    1
   11    11    12    1
   12    11    13    1
   13    11    14    1
   14    14    15    1
   15    14    16    1
   16    14    17    1
   17    17    18    1
   18    17    19    1
   19    17    20    1
   20    20    21    1
   21    20    22    1
   22    20    23    1
@<TRIPOS>SUBSTRUCTURE
       1 MOL1            1 RESIDUE      1      MOL     
@<SCITEGIC>MOL_PROPERTY
VConf Rank
SciTegic.value.IntegerValue
591

@<SCITEGIC>MOL_PROPERTY
Conf_Id
SciTegic.value.IntegerValue
82

@<SCITEGIC>MOL_PROPERTY
Delta U+W
SciTegic.value.DoubleValue
5.994

@<SCITEGIC>MOL_PROPERTY
U+W
SciTegic.value.DoubleValue
-2.388

@<SCITEGIC>MOL_PROPERTY
Grad RMS
SciTegic.value.DoubleValue
0.000000

@<SCITEGIC>MOL_PROPERTY
U
SciTegic.value.DoubleValue
52.836

@<SCITEGIC>MOL_PROPERTY
W
SciTegic.value.DoubleValue
-55.224

@<SCITEGIC>MOL_PROPERTY
W(PB)
SciTegic.value.DoubleValue
-57.261

@<SCITEGIC>MOL_PROPERTY
W(SA)
SciTegic.value.DoubleValue
2.037

@<SCITEGIC>MOL_PROPERTY
Valence
SciTegic.value.DoubleValue
5.785

@<SCITEGIC>MOL_PROPERTY
Coulomb
SciTegic.value.DoubleValue
46.744

@<SCITEGIC>MOL_PROPERTY
VdW
SciTegic.value.DoubleValue
0.307

@<SCITEGIC>MOL_PROPERTY
VdW6
SciTegic.value.DoubleValue
-7.672

@<SCITEGIC>MOL_PROPERTY
VdW12
SciTegic.value.DoubleValue
7.979

@<SCITEGIC>MOL_PROPERTY
Bond
SciTegic.value.DoubleValue
0.217

@<SCITEGIC>MOL_PROPERTY
Angle
SciTegic.value.DoubleValue
1.470

@<SCITEGIC>MOL_PROPERTY
Pdih
SciTegic.value.DoubleValue
4.098

@<SCITEGIC>MOL_PROPERTY
Idih
SciTegic.value.DoubleValue
0.000

@<SCITEGIC>MOL_PROPERTY
Tether
SciTegic.value.DoubleValue
0.000

@<TRIPOS>MOLECULE
guest-2_confgen4.mol2 : confsearch ligand conformer 592
          23          22           1
SMALL
USER_CHARGES
 
@<TRIPOS>ATOM
       1    N1      21.728171   19.514035   21.833368 N.4        1 MOL1        -0.5940
       2    H1      22.454167   19.745000   22.519372 H          1 MOL1         0.3649
       3    H2      22.206238   19.315739   20.947686 H          1 MOL1         0.3649
       4    H3      21.280676   18.645115   22.142241 H          1 MOL1         0.3649
       5    C1      20.716624   20.634505   21.688546 C.3        1 MOL1         0.0207
       6    H4      20.006217   20.365702   20.902292 H          1 MOL1         0.0950
       7    H5      21.266562   21.520685   21.360272 H          1 MOL1         0.0950
       8    C2      19.957721   20.966416   22.989553 C.3        1 MOL1        -0.1415
       9    H6      20.658773   20.980965   23.834650 H          1 MOL1         0.0976
      10    H7      19.576146   21.992263   22.900808 H          1 MOL1         0.0976
      11    C3      18.754179   20.039372   23.309227 C.3        1 MOL1        -0.1375
      12    H8      17.992399   20.129017   22.522383 H          1 MOL1         0.0976
      13    H9      18.278531   20.422178   24.222858 H          1 MOL1         0.0976
      14    C4      19.109029   18.548297   23.541692 C.3        1 MOL1        -0.1375
      15    H10     20.128641   18.458697   23.939296 H          1 MOL1         0.0976
      16    H11     18.450053   18.151114   24.326379 H          1 MOL1         0.0976
      17    C5      18.923374   17.673393   22.277897 C.3        1 MOL1        -0.1350
      18    H12     19.445987   18.106600   21.416798 H          1 MOL1         0.0976
      19    H13     17.858645   17.651642   22.005843 H          1 MOL1         0.0976
      20    C6      19.417724   16.229282   22.505907 C.3        1 MOL1        -0.2365
      21    H14     20.488033   16.207974   22.748294 H          1 MOL1         0.0987
      22    H15     19.264382   15.620542   21.605295 H          1 MOL1         0.0987
      23    H16     18.872170   15.752056   23.330526 H          1 MOL1         0.0987
@<TRIPOS>BOND
    1     1     2    1
    2     1     3    1
    3     1     4    1
    4     1     5    1
    5     5     6    1
    6     5     7    1
    7     5     8    1
    8     8     9    1
    9     8    10    1
   10     8    11    1
   11    11    12    1
   12    11    13    1
   13    11    14    1
   14    14    15    1
   15    14    16    1
   16    14    17    1
   17    17    18    1
   18    17    19    1
   19    17    20    1
   20    20    21    1
   21    20    22    1
   22    20    23    1
@<TRIPOS>SUBSTRUCTURE
       1 MOL1            1 RESIDUE      1      MOL     
@<SCITEGIC>MOL_PROPERTY
VConf Rank
SciTegic.value.IntegerValue
592

@<SCITEGIC>MOL_PROPERTY
Conf_Id
SciTegic.value.IntegerValue
5

@<SCITEGIC>MOL_PROPERTY
Delta U+W
SciTegic.value.DoubleValue
6.087

@<SCITEGIC>MOL_PROPERTY
U+W
SciTegic.value.DoubleValue
-2.295

@<SCITEGIC>MOL_PROPERTY
Grad RMS
SciTegic.value.DoubleValue
0.000000

@<SCITEGIC>MOL_PROPERTY
U
SciTegic.value.DoubleValue
52.836

@<SCITEGIC>MOL_PROPERTY
W
SciTegic.value.DoubleValue
-55.131

@<SCITEGIC>MOL_PROPERTY
W(PB)
SciTegic.value.DoubleValue
-57.202

@<SCITEGIC>MOL_PROPERTY
W(SA)
SciTegic.value.DoubleValue
2.071

@<SCITEGIC>MOL_PROPERTY
Valence
SciTegic.value.DoubleValue
5.785

@<SCITEGIC>MOL_PROPERTY
Coulomb
SciTegic.value.DoubleValue
46.744

@<SCITEGIC>MOL_PROPERTY
VdW
SciTegic.value.DoubleValue
0.307

@<SCITEGIC>MOL_PROPERTY
VdW6
SciTegic.value.DoubleValue
-7.672

@<SCITEGIC>MOL_PROPERTY
VdW12
SciTegic.value.DoubleValue
7.980

@<SCITEGIC>MOL_PROPERTY
Bond
SciTegic.value.DoubleValue
0.217

@<SCITEGIC>MOL_PROPERTY
Angle
SciTegic.value.DoubleValue
1.470

@<SCITEGIC>MOL_PROPERTY
Pdih
SciTegic.value.DoubleValue
4.098

@<SCITEGIC>MOL_PROPERTY
Idih
SciTegic.value.DoubleValue
0.000

@<SCITEGIC>MOL_PROPERTY
Tether
SciTegic.value.DoubleValue
0.000

@<TRIPOS>MOLECULE
guest-2_confgen4.mol2 : confsearch ligand conformer 593
          23          22           1
SMALL
USER_CHARGES
 
@<TRIPOS>ATOM
       1    N1      20.847406   20.254082   19.130504 N.4        1 MOL1        -0.5940
       2    H1      20.455620   21.197128   19.220241 H          1 MOL1         0.3649
       3    H2      20.765841   19.990414   18.142618 H          1 MOL1         0.3649
       4    H3      21.848844   20.322502   19.338647 H          1 MOL1         0.3649
       5    C1      20.147649   19.262192   20.037363 C.3        1 MOL1         0.0207
       6    H4      20.593465   18.278133   19.868920 H          1 MOL1         0.0950
       7    H5      19.095941   19.218211   19.741607 H          1 MOL1         0.0950
       8    C2      20.251581   19.629665   21.528248 C.3        1 MOL1        -0.1415
       9    H6      21.309599   19.688600   21.816736 H          1 MOL1         0.0976
      10    H7      19.817452   20.625414   21.689843 H          1 MOL1         0.0976
      11    C3      19.526572   18.595342   22.417474 C.3        1 MOL1        -0.1375
      12    H8      19.960217   17.599673   22.248962 H          1 MOL1         0.0976
      13    H9      18.469663   18.535535   22.122231 H          1 MOL1         0.0976
      14    C4      19.624667   18.954713   23.917552 C.3        1 MOL1        -0.1375
      15    H10     20.681401   19.014410   24.212953 H          1 MOL1         0.0976
      16    H11     19.191093   19.950243   24.086218 H          1 MOL1         0.0976
      17    C5      18.899396   17.920127   24.806581 C.3        1 MOL1        -0.1350
      18    H12     19.331244   16.922728   24.643253 H          1 MOL1         0.0976
      19    H13     17.841073   17.858490   24.516537 H          1 MOL1         0.0976
      20    C6      18.999509   18.282284   26.303687 C.3        1 MOL1        -0.2365
      21    H14     18.478988   17.536609   26.918562 H          1 MOL1         0.0987
      22    H15     18.544647   19.261088   26.504371 H          1 MOL1         0.0987
      23    H16     20.046464   18.318043   26.632072 H          1 MOL1         0.0987
@<TRIPOS>BOND
    1     1     2    1
    2     1     3    1
    3     1     4    1
    4     1     5    1
    5     5     6    1
    6     5     7    1
    7     5     8    1
    8     8     9    1
    9     8    10    1
   10     8    11    1
   11    11    12    1
   12    11    13    1
   13    11    14    1
   14    14    15    1
   15    14    16    1
   16    14    17    1
   17    17    18    1
   18    17    19    1
   19    17    20    1
   20    20    21    1
   21    20    22    1
   22    20    23    1
@<TRIPOS>SUBSTRUCTURE
       1 MOL1            1 RESIDUE      1      MOL     
@<SCITEGIC>MOL_PROPERTY
VConf Rank
SciTegic.value.IntegerValue
593

@<SCITEGIC>MOL_PROPERTY
Conf_Id
SciTegic.value.IntegerValue
40

@<SCITEGIC>MOL_PROPERTY
Delta U+W
SciTegic.value.DoubleValue
0.000

@<SCITEGIC>MOL_PROPERTY
U+W
SciTegic.value.DoubleValue
-8.382

@<SCITEGIC>MOL_PROPERTY
Grad RMS
SciTegic.value.DoubleValue
0.000000

@<SCITEGIC>MOL_PROPERTY
U
SciTegic.value.DoubleValue
46.604

@<SCITEGIC>MOL_PROPERTY
W
SciTegic.value.DoubleValue
-54.986

@<SCITEGIC>MOL_PROPERTY
W(PB)
SciTegic.value.DoubleValue
-57.162

@<SCITEGIC>MOL_PROPERTY
W(SA)
SciTegic.value.DoubleValue
2.176

@<SCITEGIC>MOL_PROPERTY
Valence
SciTegic.value.DoubleValue
1.727

@<SCITEGIC>MOL_PROPERTY
Coulomb
SciTegic.value.DoubleValue
44.434

@<SCITEGIC>MOL_PROPERTY
VdW
SciTegic.value.DoubleValue
0.443

@<SCITEGIC>MOL_PROPERTY
VdW6
SciTegic.value.DoubleValue
-4.623

@<SCITEGIC>MOL_PROPERTY
VdW12
SciTegic.value.DoubleValue
5.066

@<SCITEGIC>MOL_PROPERTY
Bond
SciTegic.value.DoubleValue
0.112

@<SCITEGIC>MOL_PROPERTY
Angle
SciTegic.value.DoubleValue
0.386

@<SCITEGIC>MOL_PROPERTY
Pdih
SciTegic.value.DoubleValue
1.228

@<SCITEGIC>MOL_PROPERTY
Idih
SciTegic.value.DoubleValue
0.000

@<SCITEGIC>MOL_PROPERTY
Tether
SciTegic.value.DoubleValue
0.000

@<TRIPOS>MOLECULE
guest-2_confgen4.mol2 : confsearch ligand conformer 594
          23          22           1
SMALL
USER_CHARGES
 
@<TRIPOS>ATOM
       1    N1      21.397132   20.814016   25.236597 N.4        1 MOL1        -0.5940
       2    H1      22.222225   21.302927   24.874620 H          1 MOL1         0.3649
       3    H2      21.734447   19.996724   25.755331 H          1 MOL1         0.3649
       4    H3      20.956200   21.439403   25.919604 H          1 MOL1         0.3649
       5    C1      20.439262   20.424942   24.128946 C.3        1 MOL1         0.0207
       6    H4      20.099158   21.341529   23.639450 H          1 MOL1         0.0950
       7    H5      19.574994   19.939318   24.589086 H          1 MOL1         0.0950
       8    C2      21.072990   19.485086   23.085781 C.3        1 MOL1        -0.1415
       9    H6      21.966639   19.966761   22.667059 H          1 MOL1         0.0976
      10    H7      21.413705   18.563727   23.576693 H          1 MOL1         0.0976
      11    C3      20.106710   19.131938   21.930268 C.3        1 MOL1        -0.1375
      12    H8      20.665165   18.558716   21.178932 H          1 MOL1         0.0976
      13    H9      19.775159   20.055030   21.434944 H          1 MOL1         0.0976
      14    C4      18.874023   18.315853   22.396169 C.3        1 MOL1        -0.1375
      15    H10     19.205751   17.383115   22.872800 H          1 MOL1         0.0976
      16    H11     18.329806   18.879267   23.165518 H          1 MOL1         0.0976
      17    C5      17.884952   17.986671   21.251659 C.3        1 MOL1        -0.1350
      18    H12     17.541522   18.916914   20.777843 H          1 MOL1         0.0976
      19    H13     16.991541   17.514505   21.683805 H          1 MOL1         0.0976
      20    C6      18.474831   17.043137   20.178729 C.3        1 MOL1        -0.2365
      21    H14     19.294993   17.519993   19.628094 H          1 MOL1         0.0987
      22    H15     17.705183   16.765438   19.446970 H          1 MOL1         0.0987
      23    H16     18.855610   16.118662   20.631901 H          1 MOL1         0.0987
@<TRIPOS>BOND
    1     1     2    1
    2     1     3    1
    3     1     4    1
    4     1     5    1
    5     5     6    1
    6     5     7    1
    7     5     8    1
    8     8     9    1
    9     8    10    1
   10     8    11    1
   11    11    12    1
   12    11    13    1
   13    11    14    1
   14    14    15    1
   15    14    16    1
   16    14    17    1
   17    17    18    1
   18    17    19    1
   19    17    20    1
   20    20    21    1
   21    20    22    1
   22    20    23    1
@<TRIPOS>SUBSTRUCTURE
       1 MOL1            1 RESIDUE      1      MOL     
@<SCITEGIC>MOL_PROPERTY
VConf Rank
SciTegic.value.IntegerValue
594

@<SCITEGIC>MOL_PROPERTY
Conf_Id
SciTegic.value.IntegerValue
65

@<SCITEGIC>MOL_PROPERTY
Delta U+W
SciTegic.value.DoubleValue
1.004

@<SCITEGIC>MOL_PROPERTY
U+W
SciTegic.value.DoubleValue
-7.378

@<SCITEGIC>MOL_PROPERTY
Grad RMS
SciTegic.value.DoubleValue
0.000000

@<SCITEGIC>MOL_PROPERTY
U
SciTegic.value.DoubleValue
48.047

@<SCITEGIC>MOL_PROPERTY
W
SciTegic.value.DoubleValue
-55.425

@<SCITEGIC>MOL_PROPERTY
W(PB)
SciTegic.value.DoubleValue
-57.542

@<SCITEGIC>MOL_PROPERTY
W(SA)
SciTegic.value.DoubleValue
2.116

@<SCITEGIC>MOL_PROPERTY
Valence
SciTegic.value.DoubleValue
2.583

@<SCITEGIC>MOL_PROPERTY
Coulomb
SciTegic.value.DoubleValue
44.791

@<SCITEGIC>MOL_PROPERTY
VdW
SciTegic.value.DoubleValue
0.673

@<SCITEGIC>MOL_PROPERTY
VdW6
SciTegic.value.DoubleValue
-5.788

@<SCITEGIC>MOL_PROPERTY
VdW12
SciTegic.value.DoubleValue
6.462

@<SCITEGIC>MOL_PROPERTY
Bond
SciTegic.value.DoubleValue
0.177

@<SCITEGIC>MOL_PROPERTY
Angle
SciTegic.value.DoubleValue
0.787

@<SCITEGIC>MOL_PROPERTY
Pdih
SciTegic.value.DoubleValue
1.619

@<SCITEGIC>MOL_PROPERTY
Idih
SciTegic.value.DoubleValue
0.000

@<SCITEGIC>MOL_PROPERTY
Tether
SciTegic.value.DoubleValue
0.000

@<TRIPOS>MOLECULE
guest-2_confgen4.mol2 : confsearch ligand conformer 595
          23          22           1
SMALL
USER_CHARGES
 
@<TRIPOS>ATOM
       1    N1      16.636793   19.840941   21.091902 N.4        1 MOL1        -0.5940
       2    H1      16.703585   20.737584   20.599551 H          1 MOL1         0.3649
       3    H2      15.712672   19.813180   21.536041 H          1 MOL1         0.3649
       4    H3      16.647055   19.104182   20.379221 H          1 MOL1         0.3649
       5    C1      17.752466   19.666109   22.102091 C.3        1 MOL1         0.0207
       6    H4      17.599930   18.708794   22.606869 H          1 MOL1         0.0950
       7    H5      17.664273   20.464483   22.843866 H          1 MOL1         0.0950
       8    C2      19.154540   19.703534   21.464971 C.3        1 MOL1        -0.1415
       9    H6      19.244102   18.901067   20.720652 H          1 MOL1         0.0976
      10    H7      19.275103   20.650406   20.921976 H          1 MOL1         0.0976
      11    C3      20.291091   19.575674   22.506853 C.3        1 MOL1        -0.1375
      12    H8      20.204682   20.385522   23.244450 H          1 MOL1         0.0976
      13    H9      21.248257   19.725402   21.990734 H          1 MOL1         0.0976
      14    C4      20.300174   18.205737   23.231950 C.3        1 MOL1        -0.1375
      15    H10     19.333483   18.045840   23.727376 H          1 MOL1         0.0976
      16    H11     20.407506   17.397419   22.495524 H          1 MOL1         0.0976
      17    C5      21.413951   18.081557   24.299938 C.3        1 MOL1        -0.1350
      18    H12     21.276877   17.135800   24.842733 H          1 MOL1         0.0976
      19    H13     21.305235   18.881682   25.045445 H          1 MOL1         0.0976
      20    C6      22.841840   18.111691   23.708656 C.3        1 MOL1        -0.2365
      21    H14     23.074283   19.086800   23.263248 H          1 MOL1         0.0987
      22    H15     22.965927   17.341589   22.936285 H          1 MOL1         0.0987
      23    H16     23.586065   17.922661   24.493093 H          1 MOL1         0.0987
@<TRIPOS>BOND
    1     1     2    1
    2     1     3    1
    3     1     4    1
    4     1     5    1
    5     5     6    1
    6     5     7    1
    7     5     8    1
    8     8     9    1
    9     8    10    1
   10     8    11    1
   11    11    12    1
   12    11    13    1
   13    11    14    1
   14    14    15    1
   15    14    16    1
   16    14    17    1
   17    17    18    1
   18    17    19    1
   19    17    20    1
   20    20    21    1
   21    20    22    1
   22    20    23    1
@<TRIPOS>SUBSTRUCTURE
       1 MOL1            1 RESIDUE      1      MOL     
@<SCITEGIC>MOL_PROPERTY
VConf Rank
SciTegic.value.IntegerValue
595

@<SCITEGIC>MOL_PROPERTY
Conf_Id
SciTegic.value.IntegerValue
92

@<SCITEGIC>MOL_PROPERTY
Delta U+W
SciTegic.value.DoubleValue
0.973

@<SCITEGIC>MOL_PROPERTY
U+W
SciTegic.value.DoubleValue
-7.409

@<SCITEGIC>MOL_PROPERTY
Grad RMS
SciTegic.value.DoubleValue
0.000000

@<SCITEGIC>MOL_PROPERTY
U
SciTegic.value.DoubleValue
48.047

@<SCITEGIC>MOL_PROPERTY
W
SciTegic.value.DoubleValue
-55.456

@<SCITEGIC>MOL_PROPERTY
W(PB)
SciTegic.value.DoubleValue
-57.595

@<SCITEGIC>MOL_PROPERTY
W(SA)
SciTegic.value.DoubleValue
2.138

@<SCITEGIC>MOL_PROPERTY
Valence
SciTegic.value.DoubleValue
2.583

@<SCITEGIC>MOL_PROPERTY
Coulomb
SciTegic.value.DoubleValue
44.791

@<SCITEGIC>MOL_PROPERTY
VdW
SciTegic.value.DoubleValue
0.674

@<SCITEGIC>MOL_PROPERTY
VdW6
SciTegic.value.DoubleValue
-5.789

@<SCITEGIC>MOL_PROPERTY
VdW12
SciTegic.value.DoubleValue
6.462

@<SCITEGIC>MOL_PROPERTY
Bond
SciTegic.value.DoubleValue
0.177

@<SCITEGIC>MOL_PROPERTY
Angle
SciTegic.value.DoubleValue
0.787

@<SCITEGIC>MOL_PROPERTY
Pdih
SciTegic.value.DoubleValue
1.619

@<SCITEGIC>MOL_PROPERTY
Idih
SciTegic.value.DoubleValue
0.000

@<SCITEGIC>MOL_PROPERTY
Tether
SciTegic.value.DoubleValue
0.000

@<TRIPOS>MOLECULE
guest-2_confgen4.mol2 : confsearch ligand conformer 596
          23          22           1
SMALL
USER_CHARGES
 
@<TRIPOS>ATOM
       1    N1      17.880093   21.836061   23.494462 N.4        1 MOL1        -0.5940
       2    H1      18.244406   22.519102   24.167340 H          1 MOL1         0.3649
       3    H2      16.894644   21.681764   23.730968 H          1 MOL1         0.3649
       4    H3      17.902273   22.284655   22.572989 H          1 MOL1         0.3649
       5    C1      18.675101   20.546364   23.514902 C.3        1 MOL1         0.0207
       6    H4      18.632465   20.139552   24.528857 H          1 MOL1         0.0950
       7    H5      19.715513   20.790365   23.285336 H          1 MOL1         0.0950
       8    C2      18.151708   19.498915   22.514019 C.3        1 MOL1        -0.1415
       9    H6      17.093832   19.295955   22.727682 H          1 MOL1         0.0976
      10    H7      18.193786   19.907901   21.495709 H          1 MOL1         0.0976
      11    C3      18.939745   18.169054   22.573186 C.3        1 MOL1        -0.1375
      12    H8      18.456154   17.443167   21.904846 H          1 MOL1         0.0976
      13    H9      18.874389   17.749279   23.586679 H          1 MOL1         0.0976
      14    C4      20.425095   18.323774   22.166666 C.3        1 MOL1        -0.1375
      15    H10     20.487090   18.774304   21.166368 H          1 MOL1         0.0976
      16    H11     20.933927   19.009905   22.856863 H          1 MOL1         0.0976
      17    C5      21.163916   16.966971   22.165630 C.3        1 MOL1        -0.1350
      18    H12     20.667871   16.274314   21.471278 H          1 MOL1         0.0976
      19    H13     21.104422   16.511394   23.164073 H          1 MOL1         0.0976
      20    C6      22.645451   17.122626   21.761417 C.3        1 MOL1        -0.2365
      21    H14     22.737037   17.545340   20.752382 H          1 MOL1         0.0987
      22    H15     23.152828   16.149183   21.766054 H          1 MOL1         0.0987
      23    H16     23.177652   17.783085   22.458393 H          1 MOL1         0.0987
@<TRIPOS>BOND
    1     1     2    1
    2     1     3    1
    3     1     4    1
    4     1     5    1
    5     5     6    1
    6     5     7    1
    7     5     8    1
    8     8     9    1
    9     8    10    1
   10     8    11    1
   11    11    12    1
   12    11    13    1
   13    11    14    1
   14    14    15    1
   15    14    16    1
   16    14    17    1
   17    17    18    1
   18    17    19    1
   19    17    20    1
   20    20    21    1
   21    20    22    1
   22    20    23    1
@<TRIPOS>SUBSTRUCTURE
       1 MOL1            1 RESIDUE      1      MOL     
@<SCITEGIC>MOL_PROPERTY
VConf Rank
SciTegic.value.IntegerValue
596

@<SCITEGIC>MOL_PROPERTY
Conf_Id
SciTegic.value.IntegerValue
42

@<SCITEGIC>MOL_PROPERTY
Delta U+W
SciTegic.value.DoubleValue
0.365

@<SCITEGIC>MOL_PROPERTY
U+W
SciTegic.value.DoubleValue
-8.017

@<SCITEGIC>MOL_PROPERTY
Grad RMS
SciTegic.value.DoubleValue
0.000000

@<SCITEGIC>MOL_PROPERTY
U
SciTegic.value.DoubleValue
47.375

@<SCITEGIC>MOL_PROPERTY
W
SciTegic.value.DoubleValue
-55.392

@<SCITEGIC>MOL_PROPERTY
W(PB)
SciTegic.value.DoubleValue
-57.543

@<SCITEGIC>MOL_PROPERTY
W(SA)
SciTegic.value.DoubleValue
2.152

@<SCITEGIC>MOL_PROPERTY
Valence
SciTegic.value.DoubleValue
2.032

@<SCITEGIC>MOL_PROPERTY
Coulomb
SciTegic.value.DoubleValue
44.843

@<SCITEGIC>MOL_PROPERTY
VdW
SciTegic.value.DoubleValue
0.499

@<SCITEGIC>MOL_PROPERTY
VdW6
SciTegic.value.DoubleValue
-5.218

@<SCITEGIC>MOL_PROPERTY
VdW12
SciTegic.value.DoubleValue
5.717

@<SCITEGIC>MOL_PROPERTY
Bond
SciTegic.value.DoubleValue
0.135

@<SCITEGIC>MOL_PROPERTY
Angle
SciTegic.value.DoubleValue
0.514

@<SCITEGIC>MOL_PROPERTY
Pdih
SciTegic.value.DoubleValue
1.383

@<SCITEGIC>MOL_PROPERTY
Idih
SciTegic.value.DoubleValue
0.000

@<SCITEGIC>MOL_PROPERTY
Tether
SciTegic.value.DoubleValue
0.000

@<TRIPOS>MOLECULE
guest-2_confgen4.mol2 : confsearch ligand conformer 597
          23          22           1
SMALL
USER_CHARGES
 
@<TRIPOS>ATOM
       1    N1      18.620663   16.679214   24.483690 N.4        1 MOL1        -0.5940
       2    H1      18.490754   17.307641   25.282963 H          1 MOL1         0.3649
       3    H2      18.586637   15.721160   24.848276 H          1 MOL1         0.3649
       4    H3      17.807278   16.795274   23.871859 H          1 MOL1         0.3649
       5    C1      19.920126   16.957302   23.753180 C.3        1 MOL1         0.0207
       6    H4      20.008461   16.241485   22.931460 H          1 MOL1         0.0950
       7    H5      20.738679   16.773110   24.454334 H          1 MOL1         0.0950
       8    C2      20.032505   18.393312   23.205020 C.3        1 MOL1        -0.1415
       9    H6      19.915911   19.110870   24.027921 H          1 MOL1         0.0976
      10    H7      21.047191   18.522211   22.808896 H          1 MOL1         0.0976
      11    C3      19.002495   18.689902   22.087917 C.3        1 MOL1        -0.1375
      12    H8      17.992456   18.460757   22.452122 H          1 MOL1         0.0976
      13    H9      19.181639   18.015057   21.239448 H          1 MOL1         0.0976
      14    C4      19.006756   20.157803   21.587613 C.3        1 MOL1        -0.1375
      15    H10     18.210917   20.252401   20.835829 H          1 MOL1         0.0976
      16    H11     18.722935   20.835866   22.404253 H          1 MOL1         0.0976
      17    C5      20.337269   20.623505   20.941626 C.3        1 MOL1        -0.1350
      18    H12     20.103634   21.303979   20.110758 H          1 MOL1         0.0976
      19    H13     20.864055   19.769793   20.492994 H          1 MOL1         0.0976
      20    C6      21.266841   21.373858   21.924036 C.3        1 MOL1        -0.2365
      21    H14     20.774883   22.271827   22.319872 H          1 MOL1         0.0987
      22    H15     22.184681   21.694927   21.414723 H          1 MOL1         0.0987
      23    H16     21.560491   20.748567   22.774272 H          1 MOL1         0.0987
@<TRIPOS>BOND
    1     1     2    1
    2     1     3    1
    3     1     4    1
    4     1     5    1
    5     5     6    1
    6     5     7    1
    7     5     8    1
    8     8     9    1
    9     8    10    1
   10     8    11    1
   11    11    12    1
   12    11    13    1
   13    11    14    1
   14    14    15    1
   15    14    16    1
   16    14    17    1
   17    17    18    1
   18    17    19    1
   19    17    20    1
   20    20    21    1
   21    20    22    1
   22    20    23    1
@<TRIPOS>SUBSTRUCTURE
       1 MOL1            1 RESIDUE      1      MOL     
@<SCITEGIC>MOL_PROPERTY
VConf Rank
SciTegic.value.IntegerValue
597

@<SCITEGIC>MOL_PROPERTY
Conf_Id
SciTegic.value.IntegerValue
3

@<SCITEGIC>MOL_PROPERTY
Delta U+W
SciTegic.value.DoubleValue
3.283

@<SCITEGIC>MOL_PROPERTY
U+W
SciTegic.value.DoubleValue
-5.099

@<SCITEGIC>MOL_PROPERTY
Grad RMS
SciTegic.value.DoubleValue
0.000000

@<SCITEGIC>MOL_PROPERTY
U
SciTegic.value.DoubleValue
50.701

@<SCITEGIC>MOL_PROPERTY
W
SciTegic.value.DoubleValue
-55.800

@<SCITEGIC>MOL_PROPERTY
W(PB)
SciTegic.value.DoubleValue
-57.867

@<SCITEGIC>MOL_PROPERTY
W(SA)
SciTegic.value.DoubleValue
2.067

@<SCITEGIC>MOL_PROPERTY
Valence
SciTegic.value.DoubleValue
4.880

@<SCITEGIC>MOL_PROPERTY
Coulomb
SciTegic.value.DoubleValue
45.095

@<SCITEGIC>MOL_PROPERTY
VdW
SciTegic.value.DoubleValue
0.726

@<SCITEGIC>MOL_PROPERTY
VdW6
SciTegic.value.DoubleValue
-6.620

@<SCITEGIC>MOL_PROPERTY
VdW12
SciTegic.value.DoubleValue
7.346

@<SCITEGIC>MOL_PROPERTY
Bond
SciTegic.value.DoubleValue
0.222

@<SCITEGIC>MOL_PROPERTY
Angle
SciTegic.value.DoubleValue
1.260

@<SCITEGIC>MOL_PROPERTY
Pdih
SciTegic.value.DoubleValue
3.398

@<SCITEGIC>MOL_PROPERTY
Idih
SciTegic.value.DoubleValue
0.000

@<SCITEGIC>MOL_PROPERTY
Tether
SciTegic.value.DoubleValue
0.000

@<TRIPOS>MOLECULE
guest-2_confgen4.mol2 : confsearch ligand conformer 598
          23          22           1
SMALL
USER_CHARGES
 
@<TRIPOS>ATOM
       1    N1      17.701041   18.659550   20.608181 N.4        1 MOL1        -0.5940
       2    H1      16.914856   18.100621   20.954686 H          1 MOL1         0.3649
       3    H2      17.467689   18.942941   19.650543 H          1 MOL1         0.3649
       4    H3      17.739039   19.512972   21.173712 H          1 MOL1         0.3649
       5    C1      19.006758   17.891412   20.666156 C.3        1 MOL1         0.0207
       6    H4      19.793967   18.529161   20.256195 H          1 MOL1         0.0950
       7    H5      18.907478   17.017269   20.016891 H          1 MOL1         0.0950
       8    C2      19.393022   17.431343   22.086864 C.3        1 MOL1        -0.1415
       9    H6      18.618702   16.750940   22.465395 H          1 MOL1         0.0976
      10    H7      20.316319   16.839925   22.026797 H          1 MOL1         0.0976
      11    C3      19.593602   18.589472   23.096889 C.3        1 MOL1        -0.1375
      12    H8      19.822777   18.150146   24.076351 H          1 MOL1         0.0976
      13    H9      18.653675   19.143051   23.222728 H          1 MOL1         0.0976
      14    C4      20.726644   19.565297   22.688954 C.3        1 MOL1        -0.1375
      15    H10     21.672124   19.014358   22.590461 H          1 MOL1         0.0976
      16    H11     20.510321   19.986838   21.698569 H          1 MOL1         0.0976
      17    C5      20.914685   20.739666   23.679886 C.3        1 MOL1        -0.1350
      18    H12     19.974743   21.301225   23.774160 H          1 MOL1         0.0976
      19    H13     21.649712   21.440234   23.259406 H          1 MOL1         0.0976
      20    C6      21.397619   20.294877   25.079272 C.3        1 MOL1        -0.2365
      21    H14     22.319147   19.702510   25.009301 H          1 MOL1         0.0987
      22    H15     20.639815   19.693177   25.595932 H          1 MOL1         0.0987
      23    H16     21.608223   21.169381   25.708416 H          1 MOL1         0.0987
@<TRIPOS>BOND
    1     1     2    1
    2     1     3    1
    3     1     4    1
    4     1     5    1
    5     5     6    1
    6     5     7    1
    7     5     8    1
    8     8     9    1
    9     8    10    1
   10     8    11    1
   11    11    12    1
   12    11    13    1
   13    11    14    1
   14    14    15    1
   15    14    16    1
   16    14    17    1
   17    17    18    1
   18    17    19    1
   19    17    20    1
   20    20    21    1
   21    20    22    1
   22    20    23    1
@<TRIPOS>SUBSTRUCTURE
       1 MOL1            1 RESIDUE      1      MOL     
@<SCITEGIC>MOL_PROPERTY
VConf Rank
SciTegic.value.IntegerValue
598

@<SCITEGIC>MOL_PROPERTY
Conf_Id
SciTegic.value.IntegerValue
83

@<SCITEGIC>MOL_PROPERTY
Delta U+W
SciTegic.value.DoubleValue
1.229

@<SCITEGIC>MOL_PROPERTY
U+W
SciTegic.value.DoubleValue
-7.154

@<SCITEGIC>MOL_PROPERTY
Grad RMS
SciTegic.value.DoubleValue
0.000000

@<SCITEGIC>MOL_PROPERTY
U
SciTegic.value.DoubleValue
48.727

@<SCITEGIC>MOL_PROPERTY
W
SciTegic.value.DoubleValue
-55.880

@<SCITEGIC>MOL_PROPERTY
W(PB)
SciTegic.value.DoubleValue
-57.960

@<SCITEGIC>MOL_PROPERTY
W(SA)
SciTegic.value.DoubleValue
2.080

@<SCITEGIC>MOL_PROPERTY
Valence
SciTegic.value.DoubleValue
2.671

@<SCITEGIC>MOL_PROPERTY
Coulomb
SciTegic.value.DoubleValue
45.371

@<SCITEGIC>MOL_PROPERTY
VdW
SciTegic.value.DoubleValue
0.684

@<SCITEGIC>MOL_PROPERTY
VdW6
SciTegic.value.DoubleValue
-6.511

@<SCITEGIC>MOL_PROPERTY
VdW12
SciTegic.value.DoubleValue
7.195

@<SCITEGIC>MOL_PROPERTY
Bond
SciTegic.value.DoubleValue
0.203

@<SCITEGIC>MOL_PROPERTY
Angle
SciTegic.value.DoubleValue
0.915

@<SCITEGIC>MOL_PROPERTY
Pdih
SciTegic.value.DoubleValue
1.554

@<SCITEGIC>MOL_PROPERTY
Idih
SciTegic.value.DoubleValue
0.000

@<SCITEGIC>MOL_PROPERTY
Tether
SciTegic.value.DoubleValue
0.000

@<TRIPOS>MOLECULE
guest-2_confgen4.mol2 : confsearch ligand conformer 599
          23          22           1
SMALL
USER_CHARGES
 
@<TRIPOS>ATOM
       1    N1      16.886599   19.684543   22.732413 N.4        1 MOL1        -0.5940
       2    H1      16.572626   20.319795   21.991853 H          1 MOL1         0.3649
       3    H2      17.579149   20.190563   23.292699 H          1 MOL1         0.3649
       4    H3      16.078376   19.509265   23.338951 H          1 MOL1         0.3649
       5    C1      17.456201   18.398415   22.166973 C.3        1 MOL1         0.0207
       6    H4      16.658130   17.896355   21.613308 H          1 MOL1         0.0950
       7    H5      17.741736   17.756864   23.004453 H          1 MOL1         0.0950
       8    C2      18.667071   18.613068   21.235848 C.3        1 MOL1        -0.1415
       9    H6      18.977641   17.640325   20.831896 H          1 MOL1         0.0976
      10    H7      18.352639   19.215526   20.373305 H          1 MOL1         0.0976
      11    C3      19.880692   19.293070   21.918760 C.3        1 MOL1        -0.1375
      12    H8      19.602571   20.298940   22.260261 H          1 MOL1         0.0976
      13    H9      20.662420   19.433085   21.161018 H          1 MOL1         0.0976
      14    C4      20.450285   18.474876   23.105585 C.3        1 MOL1        -0.1375
      15    H10     19.662393   18.313455   23.852928 H          1 MOL1         0.0976
      16    H11     20.753796   17.478320   22.756404 H          1 MOL1         0.0976
      17    C5      21.646114   19.161281   23.809350 C.3        1 MOL1        -0.1350
      18    H12     21.910861   18.577609   24.702154 H          1 MOL1         0.0976
      19    H13     21.345214   20.154666   24.170421 H          1 MOL1         0.0976
      20    C6      22.898282   19.291008   22.912362 C.3        1 MOL1        -0.2365
      21    H14     23.199952   18.314609   22.511551 H          1 MOL1         0.0987
      22    H15     23.742510   19.692539   23.487676 H          1 MOL1         0.0987
      23    H16     22.722680   19.970136   22.069040 H          1 MOL1         0.0987
@<TRIPOS>BOND
    1     1     2    1
    2     1     3    1
    3     1     4    1
    4     1     5    1
    5     5     6    1
    6     5     7    1
    7     5     8    1
    8     8     9    1
    9     8    10    1
   10     8    11    1
   11    11    12    1
   12    11    13    1
   13    11    14    1
   14    14    15    1
   15    14    16    1
   16    14    17    1
   17    17    18    1
   18    17    19    1
   19    17    20    1
   20    20    21    1
   21    20    22    1
   22    20    23    1
@<TRIPOS>SUBSTRUCTURE
       1 MOL1            1 RESIDUE      1      MOL     
@<SCITEGIC>MOL_PROPERTY
VConf Rank
SciTegic.value.IntegerValue
599

@<SCITEGIC>MOL_PROPERTY
Conf_Id
SciTegic.value.IntegerValue
50

@<SCITEGIC>MOL_PROPERTY
Delta U+W
SciTegic.value.DoubleValue
1.252

@<SCITEGIC>MOL_PROPERTY
U+W
SciTegic.value.DoubleValue
-7.130

@<SCITEGIC>MOL_PROPERTY
Grad RMS
SciTegic.value.DoubleValue
0.000000

@<SCITEGIC>MOL_PROPERTY
U
SciTegic.value.DoubleValue
48.727

@<SCITEGIC>MOL_PROPERTY
W
SciTegic.value.DoubleValue
-55.857

@<SCITEGIC>MOL_PROPERTY
W(PB)
SciTegic.value.DoubleValue
-57.937

@<SCITEGIC>MOL_PROPERTY
W(SA)
SciTegic.value.DoubleValue
2.080

@<SCITEGIC>MOL_PROPERTY
Valence
SciTegic.value.DoubleValue
2.671

@<SCITEGIC>MOL_PROPERTY
Coulomb
SciTegic.value.DoubleValue
45.371

@<SCITEGIC>MOL_PROPERTY
VdW
SciTegic.value.DoubleValue
0.684

@<SCITEGIC>MOL_PROPERTY
VdW6
SciTegic.value.DoubleValue
-6.511

@<SCITEGIC>MOL_PROPERTY
VdW12
SciTegic.value.DoubleValue
7.196

@<SCITEGIC>MOL_PROPERTY
Bond
SciTegic.value.DoubleValue
0.203

@<SCITEGIC>MOL_PROPERTY
Angle
SciTegic.value.DoubleValue
0.915

@<SCITEGIC>MOL_PROPERTY
Pdih
SciTegic.value.DoubleValue
1.554

@<SCITEGIC>MOL_PROPERTY
Idih
SciTegic.value.DoubleValue
0.000

@<SCITEGIC>MOL_PROPERTY
Tether
SciTegic.value.DoubleValue
0.000

@<TRIPOS>MOLECULE
guest-2_confgen4.mol2 : confsearch ligand conformer 600
          23          22           1
SMALL
USER_CHARGES
 
@<TRIPOS>ATOM
       1    N1      21.580870   20.799620   20.667473 N.4        1 MOL1        -0.5940
       2    H1      20.970424   21.501429   21.096836 H          1 MOL1         0.3649
       3    H2      21.750725   21.100863   19.701901 H          1 MOL1         0.3649
       4    H3      22.481001   20.841039   21.156016 H          1 MOL1         0.3649
       5    C1      20.971277   19.412427   20.725204 C.3        1 MOL1         0.0207
       6    H4      21.655188   18.728577   20.215118 H          1 MOL1         0.0950
       7    H5      20.030718   19.431596   20.168073 H          1 MOL1         0.0950
       8    C2      20.715056   18.904200   22.157271 C.3        1 MOL1        -0.1415
       9    H6      20.381107   17.862354   22.096468 H          1 MOL1         0.0976
      10    H7      21.661385   18.891695   22.714112 H          1 MOL1         0.0976
      11    C3      19.668847   19.759770   22.916298 C.3        1 MOL1        -0.1375
      12    H8      18.749970   19.856771   22.321647 H          1 MOL1         0.0976
      13    H9      20.066736   20.776965   23.030255 H          1 MOL1         0.0976
      14    C4      19.332880   19.211308   24.327830 C.3        1 MOL1        -0.1375
      15    H10     20.197184   18.676645   24.745331 H          1 MOL1         0.0976
      16    H11     19.163856   20.066976   24.996228 H          1 MOL1         0.0976
      17    C5      18.069777   18.314776   24.391140 C.3        1 MOL1        -0.1350
      18    H12     17.192162   18.891548   24.067258 H          1 MOL1         0.0976
      19    H13     17.885777   18.045565   25.440656 H          1 MOL1         0.0976
      20    C6      18.166444   17.018339   23.557512 C.3        1 MOL1        -0.2365
      21    H14     19.066814   16.446587   23.816875 H          1 MOL1         0.0987
      22    H15     18.187144   17.236130   22.482611 H          1 MOL1         0.0987
      23    H16     17.295895   16.376468   23.744684 H          1 MOL1         0.0987
@<TRIPOS>BOND
    1     1     2    1
    2     1     3    1
    3     1     4    1
    4     1     5    1
    5     5     6    1
    6     5     7    1
    7     5     8    1
    8     8     9    1
    9     8    10    1
   10     8    11    1
   11    11    12    1
   12    11    13    1
   13    11    14    1
   14    14    15    1
   15    14    16    1
   16    14    17    1
   17    17    18    1
   18    17    19    1
   19    17    20    1
   20    20    21    1
   21    20    22    1
   22    20    23    1
@<TRIPOS>SUBSTRUCTURE
       1 MOL1            1 RESIDUE      1      MOL     
@<SCITEGIC>MOL_PROPERTY
VConf Rank
SciTegic.value.IntegerValue
600

@<SCITEGIC>MOL_PROPERTY
Conf_Id
SciTegic.value.IntegerValue
55

@<SCITEGIC>MOL_PROPERTY
Delta U+W
SciTegic.value.DoubleValue
3.232

@<SCITEGIC>MOL_PROPERTY
U+W
SciTegic.value.DoubleValue
-5.150

@<SCITEGIC>MOL_PROPERTY
Grad RMS
SciTegic.value.DoubleValue
0.000000

@<SCITEGIC>MOL_PROPERTY
U
SciTegic.value.DoubleValue
50.625

@<SCITEGIC>MOL_PROPERTY
W
SciTegic.value.DoubleValue
-55.776

@<SCITEGIC>MOL_PROPERTY
W(PB)
SciTegic.value.DoubleValue
-57.839

@<SCITEGIC>MOL_PROPERTY
W(SA)
SciTegic.value.DoubleValue
2.064

@<SCITEGIC>MOL_PROPERTY
Valence
SciTegic.value.DoubleValue
4.837

@<SCITEGIC>MOL_PROPERTY
Coulomb
SciTegic.value.DoubleValue
45.097

@<SCITEGIC>MOL_PROPERTY
VdW
SciTegic.value.DoubleValue
0.692

@<SCITEGIC>MOL_PROPERTY
VdW6
SciTegic.value.DoubleValue
-6.655

@<SCITEGIC>MOL_PROPERTY
VdW12
SciTegic.value.DoubleValue
7.347

@<SCITEGIC>MOL_PROPERTY
Bond
SciTegic.value.DoubleValue
0.223

@<SCITEGIC>MOL_PROPERTY
Angle
SciTegic.value.DoubleValue
1.167

@<SCITEGIC>MOL_PROPERTY
Pdih
SciTegic.value.DoubleValue
3.447

@<SCITEGIC>MOL_PROPERTY
Idih
SciTegic.value.DoubleValue
0.000

@<SCITEGIC>MOL_PROPERTY
Tether
SciTegic.value.DoubleValue
0.000

@<TRIPOS>MOLECULE
guest-2_confgen4.mol2 : confsearch ligand conformer 601
          23          22           1
SMALL
USER_CHARGES
 
@<TRIPOS>ATOM
       1    N1      17.711446   17.249588   21.141058 N.4        1 MOL1        -0.5940
       2    H1      16.704384   17.385478   21.275925 H          1 MOL1         0.3649
       3    H2      17.862257   16.242303   21.020094 H          1 MOL1         0.3649
       4    H3      17.959530   17.696989   20.252777 H          1 MOL1         0.3649
       5    C1      18.516499   17.804676   22.298389 C.3        1 MOL1         0.0207
       6    H4      19.569419   17.592772   22.103975 H          1 MOL1         0.0950
       7    H5      18.221669   17.264763   23.202253 H          1 MOL1         0.0950
       8    C2      18.304614   19.316781   22.509169 C.3        1 MOL1        -0.1415
       9    H6      18.552771   19.868911   21.592964 H          1 MOL1         0.0976
      10    H7      17.235783   19.488044   22.694339 H          1 MOL1         0.0976
      11    C3      19.108971   19.882578   23.706812 C.3        1 MOL1        -0.1375
      12    H8      19.126338   19.151861   24.527393 H          1 MOL1         0.0976
      13    H9      18.569194   20.755901   24.098535 H          1 MOL1         0.0976
      14    C4      20.552202   20.338885   23.368667 C.3        1 MOL1        -0.1375
      15    H10     20.515930   21.144009   22.621839 H          1 MOL1         0.0976
      16    H11     20.990754   20.782674   24.273192 H          1 MOL1         0.0976
      17    C5      21.482180   19.212048   22.862821 C.3        1 MOL1        -0.1350
      18    H12     21.144943   18.862629   21.878397 H          1 MOL1         0.0976
      19    H13     21.436147   18.353612   23.547398 H          1 MOL1         0.0976
      20    C6      22.944190   19.692132   22.741469 C.3        1 MOL1        -0.2365
      21    H14     23.336430   20.015276   23.714577 H          1 MOL1         0.0987
      22    H15     23.025941   20.535015   22.042816 H          1 MOL1         0.0987
      23    H16     23.588048   18.883863   22.371093 H          1 MOL1         0.0987
@<TRIPOS>BOND
    1     1     2    1
    2     1     3    1
    3     1     4    1
    4     1     5    1
    5     5     6    1
    6     5     7    1
    7     5     8    1
    8     8     9    1
    9     8    10    1
   10     8    11    1
   11    11    12    1
   12    11    13    1
   13    11    14    1
   14    14    15    1
   15    14    16    1
   16    14    17    1
   17    17    18    1
   18    17    19    1
   19    17    20    1
   20    20    21    1
   21    20    22    1
   22    20    23    1
@<TRIPOS>SUBSTRUCTURE
       1 MOL1            1 RESIDUE      1      MOL     
@<SCITEGIC>MOL_PROPERTY
VConf Rank
SciTegic.value.IntegerValue
601

@<SCITEGIC>MOL_PROPERTY
Conf_Id
SciTegic.value.IntegerValue
93

@<SCITEGIC>MOL_PROPERTY
Delta U+W
SciTegic.value.DoubleValue
2.589

@<SCITEGIC>MOL_PROPERTY
U+W
SciTegic.value.DoubleValue
-5.793

@<SCITEGIC>MOL_PROPERTY
Grad RMS
SciTegic.value.DoubleValue
0.000000

@<SCITEGIC>MOL_PROPERTY
U
SciTegic.value.DoubleValue
50.122

@<SCITEGIC>MOL_PROPERTY
W
SciTegic.value.DoubleValue
-55.915

@<SCITEGIC>MOL_PROPERTY
W(PB)
SciTegic.value.DoubleValue
-58.031

@<SCITEGIC>MOL_PROPERTY
W(SA)
SciTegic.value.DoubleValue
2.115

@<SCITEGIC>MOL_PROPERTY
Valence
SciTegic.value.DoubleValue
4.132

@<SCITEGIC>MOL_PROPERTY
Coulomb
SciTegic.value.DoubleValue
45.536

@<SCITEGIC>MOL_PROPERTY
VdW
SciTegic.value.DoubleValue
0.454

@<SCITEGIC>MOL_PROPERTY
VdW6
SciTegic.value.DoubleValue
-6.262

@<SCITEGIC>MOL_PROPERTY
VdW12
SciTegic.value.DoubleValue
6.715

@<SCITEGIC>MOL_PROPERTY
Bond
SciTegic.value.DoubleValue
0.182

@<SCITEGIC>MOL_PROPERTY
Angle
SciTegic.value.DoubleValue
1.157

@<SCITEGIC>MOL_PROPERTY
Pdih
SciTegic.value.DoubleValue
2.794

@<SCITEGIC>MOL_PROPERTY
Idih
SciTegic.value.DoubleValue
0.000

@<SCITEGIC>MOL_PROPERTY
Tether
SciTegic.value.DoubleValue
0.000

@<TRIPOS>MOLECULE
guest-2_confgen4.mol2 : confsearch ligand conformer 602
          23          22           1
SMALL
USER_CHARGES
 
@<TRIPOS>ATOM
       1    N1      19.416024   16.064112   21.441917 N.4        1 MOL1        -0.5940
       2    H1      20.227016   15.770675   21.995940 H          1 MOL1         0.3649
       3    H2      19.638088   15.866544   20.460258 H          1 MOL1         0.3649
       4    H3      18.636757   15.450129   21.699981 H          1 MOL1         0.3649
       5    C1      19.080345   17.525354   21.660403 C.3        1 MOL1         0.0207
       6    H4      18.229419   17.773906   21.020444 H          1 MOL1         0.0950
       7    H5      19.936906   18.116835   21.332083 H          1 MOL1         0.0950
       8    C2      18.734889   17.851364   23.126747 C.3        1 MOL1        -0.1415
       9    H6      17.875778   17.233096   23.419478 H          1 MOL1         0.0976
      10    H7      19.563295   17.563654   23.787678 H          1 MOL1         0.0976
      11    C3      18.368521   19.340650   23.348707 C.3        1 MOL1        -0.1375
      12    H8      17.689026   19.400361   24.210229 H          1 MOL1         0.0976
      13    H9      17.794579   19.718900   22.491315 H          1 MOL1         0.0976
      14    C4      19.572451   20.274608   23.638100 C.3        1 MOL1        -0.1375
      15    H10     19.181989   21.280314   23.846748 H          1 MOL1         0.0976
      16    H11     20.076686   19.947333   24.557844 H          1 MOL1         0.0976
      17    C5      20.606074   20.367023   22.491982 C.3        1 MOL1        -0.1350
      18    H12     20.094480   20.581965   21.543432 H          1 MOL1         0.0976
      19    H13     21.120776   19.404671   22.374187 H          1 MOL1         0.0976
      20    C6      21.661082   21.460538   22.763761 C.3        1 MOL1        -0.2365
      21    H14     22.392536   21.505057   21.946434 H          1 MOL1         0.0987
      22    H15     22.207527   21.258935   23.694354 H          1 MOL1         0.0987
      23    H16     21.192455   22.449579   22.849778 H          1 MOL1         0.0987
@<TRIPOS>BOND
    1     1     2    1
    2     1     3    1
    3     1     4    1
    4     1     5    1
    5     5     6    1
    6     5     7    1
    7     5     8    1
    8     8     9    1
    9     8    10    1
   10     8    11    1
   11    11    12    1
   12    11    13    1
   13    11    14    1
   14    14    15    1
   15    14    16    1
   16    14    17    1
   17    17    18    1
   18    17    19    1
   19    17    20    1
   20    20    21    1
   21    20    22    1
   22    20    23    1
@<TRIPOS>SUBSTRUCTURE
       1 MOL1            1 RESIDUE      1      MOL     
@<SCITEGIC>MOL_PROPERTY
VConf Rank
SciTegic.value.IntegerValue
602

@<SCITEGIC>MOL_PROPERTY
Conf_Id
SciTegic.value.IntegerValue
70

@<SCITEGIC>MOL_PROPERTY
Delta U+W
SciTegic.value.DoubleValue
2.599

@<SCITEGIC>MOL_PROPERTY
U+W
SciTegic.value.DoubleValue
-5.783

@<SCITEGIC>MOL_PROPERTY
Grad RMS
SciTegic.value.DoubleValue
0.000000

@<SCITEGIC>MOL_PROPERTY
U
SciTegic.value.DoubleValue
50.122

@<SCITEGIC>MOL_PROPERTY
W
SciTegic.value.DoubleValue
-55.906

@<SCITEGIC>MOL_PROPERTY
W(PB)
SciTegic.value.DoubleValue
-58.010

@<SCITEGIC>MOL_PROPERTY
W(SA)
SciTegic.value.DoubleValue
2.105

@<SCITEGIC>MOL_PROPERTY
Valence
SciTegic.value.DoubleValue
4.132

@<SCITEGIC>MOL_PROPERTY
Coulomb
SciTegic.value.DoubleValue
45.536

@<SCITEGIC>MOL_PROPERTY
VdW
SciTegic.value.DoubleValue
0.454

@<SCITEGIC>MOL_PROPERTY
VdW6
SciTegic.value.DoubleValue
-6.262

@<SCITEGIC>MOL_PROPERTY
VdW12
SciTegic.value.DoubleValue
6.715

@<SCITEGIC>MOL_PROPERTY
Bond
SciTegic.value.DoubleValue
0.182

@<SCITEGIC>MOL_PROPERTY
Angle
SciTegic.value.DoubleValue
1.157

@<SCITEGIC>MOL_PROPERTY
Pdih
SciTegic.value.DoubleValue
2.794

@<SCITEGIC>MOL_PROPERTY
Idih
SciTegic.value.DoubleValue
0.000

@<SCITEGIC>MOL_PROPERTY
Tether
SciTegic.value.DoubleValue
0.000

@<TRIPOS>MOLECULE
guest-2_confgen4.mol2 : confsearch ligand conformer 603
          23          22           1
SMALL
USER_CHARGES
 
@<TRIPOS>ATOM
       1    N1      21.310332   17.037437   24.016716 N.4        1 MOL1        -0.5940
       2    H1      21.380082   16.049390   23.753265 H          1 MOL1         0.3649
       3    H2      21.692585   17.122154   24.964592 H          1 MOL1         0.3649
       4    H3      21.931565   17.561680   23.393255 H          1 MOL1         0.3649
       5    C1      19.882818   17.541554   23.937299 C.3        1 MOL1         0.0207
       6    H4      19.872707   18.585537   24.261249 H          1 MOL1         0.0950
       7    H5      19.284604   16.960702   24.644580 H          1 MOL1         0.0950
       8    C2      19.264803   17.427850   22.529141 C.3        1 MOL1        -0.1415
       9    H6      19.248460   16.371873   22.228542 H          1 MOL1         0.0976
      10    H7      18.214044   17.740924   22.577168 H          1 MOL1         0.0976
      11    C3      20.007161   18.254551   21.446332 C.3        1 MOL1        -0.1375
      12    H8      19.475415   18.145040   20.491106 H          1 MOL1         0.0976
      13    H9      21.003763   17.823368   21.281716 H          1 MOL1         0.0976
      14    C4      20.161958   19.763467   21.768838 C.3        1 MOL1        -0.1375
      15    H10     20.772874   19.895295   22.671775 H          1 MOL1         0.0976
      16    H11     20.724326   20.236124   20.951724 H          1 MOL1         0.0976
      17    C5      18.812687   20.500137   21.941112 C.3        1 MOL1        -0.1350
      18    H12     18.263820   20.089738   22.799166 H          1 MOL1         0.0976
      19    H13     18.185182   20.337326   21.053732 H          1 MOL1         0.0976
      20    C6      19.014667   22.015431   22.154347 C.3        1 MOL1        -0.2365
      21    H14     18.048458   22.521750   22.277212 H          1 MOL1         0.0987
      22    H15     19.526346   22.470520   21.296284 H          1 MOL1         0.0987
      23    H16     19.614158   22.210907   23.053015 H          1 MOL1         0.0987
@<TRIPOS>BOND
    1     1     2    1
    2     1     3    1
    3     1     4    1
    4     1     5    1
    5     5     6    1
    6     5     7    1
    7     5     8    1
    8     8     9    1
    9     8    10    1
   10     8    11    1
   11    11    12    1
   12    11    13    1
   13    11    14    1
   14    14    15    1
   15    14    16    1
   16    14    17    1
   17    17    18    1
   18    17    19    1
   19    17    20    1
   20    20    21    1
   21    20    22    1
   22    20    23    1
@<TRIPOS>SUBSTRUCTURE
       1 MOL1            1 RESIDUE      1      MOL     
@<SCITEGIC>MOL_PROPERTY
VConf Rank
SciTegic.value.IntegerValue
603

@<SCITEGIC>MOL_PROPERTY
Conf_Id
SciTegic.value.IntegerValue
72

@<SCITEGIC>MOL_PROPERTY
Delta U+W
SciTegic.value.DoubleValue
1.051

@<SCITEGIC>MOL_PROPERTY
U+W
SciTegic.value.DoubleValue
-7.331

@<SCITEGIC>MOL_PROPERTY
Grad RMS
SciTegic.value.DoubleValue
0.000000

@<SCITEGIC>MOL_PROPERTY
U
SciTegic.value.DoubleValue
48.590

@<SCITEGIC>MOL_PROPERTY
W
SciTegic.value.DoubleValue
-55.922

@<SCITEGIC>MOL_PROPERTY
W(PB)
SciTegic.value.DoubleValue
-58.012

@<SCITEGIC>MOL_PROPERTY
W(SA)
SciTegic.value.DoubleValue
2.090

@<SCITEGIC>MOL_PROPERTY
Valence
SciTegic.value.DoubleValue
2.601

@<SCITEGIC>MOL_PROPERTY
Coulomb
SciTegic.value.DoubleValue
45.520

@<SCITEGIC>MOL_PROPERTY
VdW
SciTegic.value.DoubleValue
0.469

@<SCITEGIC>MOL_PROPERTY
VdW6
SciTegic.value.DoubleValue
-6.867

@<SCITEGIC>MOL_PROPERTY
VdW12
SciTegic.value.DoubleValue
7.336

@<SCITEGIC>MOL_PROPERTY
Bond
SciTegic.value.DoubleValue
0.205

@<SCITEGIC>MOL_PROPERTY
Angle
SciTegic.value.DoubleValue
0.962

@<SCITEGIC>MOL_PROPERTY
Pdih
SciTegic.value.DoubleValue
1.434

@<SCITEGIC>MOL_PROPERTY
Idih
SciTegic.value.DoubleValue
0.000

@<SCITEGIC>MOL_PROPERTY
Tether
SciTegic.value.DoubleValue
0.000

@<TRIPOS>MOLECULE
guest-2_confgen4.mol2 : confsearch ligand conformer 604
          23          22           1
SMALL
USER_CHARGES
 
@<TRIPOS>ATOM
       1    N1      19.491748   18.065500   19.622546 N.4        1 MOL1        -0.5940
       2    H1      19.492025   17.124228   19.215161 H          1 MOL1         0.3649
       3    H2      19.944183   18.684389   18.942059 H          1 MOL1         0.3649
       4    H3      18.512347   18.359529   19.693129 H          1 MOL1         0.3649
       5    C1      20.190238   18.097195   20.966699 C.3        1 MOL1         0.0207
       6    H4      21.215752   17.746401   20.823127 H          1 MOL1         0.0950
       7    H5      19.676076   17.395903   21.629090 H          1 MOL1         0.0950
       8    C2      20.206870   19.498221   21.605969 C.3        1 MOL1        -0.1415
       9    H6      20.691938   20.201923   20.916591 H          1 MOL1         0.0976
      10    H7      19.178175   19.856844   21.738658 H          1 MOL1         0.0976
      11    C3      20.957184   19.528144   22.960663 C.3        1 MOL1        -0.1375
      12    H8      20.952406   20.554534   23.351110 H          1 MOL1         0.0976
      13    H9      22.013984   19.283070   22.786237 H          1 MOL1         0.0976
      14    C4      20.396191   18.560631   24.037681 C.3        1 MOL1        -0.1375
      15    H10     20.554014   17.523076   23.713838 H          1 MOL1         0.0976
      16    H11     20.989056   18.676172   24.955467 H          1 MOL1         0.0976
      17    C5      18.897858   18.755560   24.382965 C.3        1 MOL1        -0.1350
      18    H12     18.613719   18.012367   25.141001 H          1 MOL1         0.0976
      19    H13     18.274617   18.541734   23.504348 H          1 MOL1         0.0976
      20    C6      18.571908   20.166391   24.923177 C.3        1 MOL1        -0.2365
      21    H14     19.192782   20.407721   25.795653 H          1 MOL1         0.0987
      22    H15     17.520387   20.226493   25.232263 H          1 MOL1         0.0987
      23    H16     18.736706   20.937318   24.160241 H          1 MOL1         0.0987
@<TRIPOS>BOND
    1     1     2    1
    2     1     3    1
    3     1     4    1
    4     1     5    1
    5     5     6    1
    6     5     7    1
    7     5     8    1
    8     8     9    1
    9     8    10    1
   10     8    11    1
   11    11    12    1
   12    11    13    1
   13    11    14    1
   14    14    15    1
   15    14    16    1
   16    14    17    1
   17    17    18    1
   18    17    19    1
   19    17    20    1
   20    20    21    1
   21    20    22    1
   22    20    23    1
@<TRIPOS>SUBSTRUCTURE
       1 MOL1            1 RESIDUE      1      MOL     
@<SCITEGIC>MOL_PROPERTY
VConf Rank
SciTegic.value.IntegerValue
604

@<SCITEGIC>MOL_PROPERTY
Conf_Id
SciTegic.value.IntegerValue
26

@<SCITEGIC>MOL_PROPERTY
Delta U+W
SciTegic.value.DoubleValue
1.076

@<SCITEGIC>MOL_PROPERTY
U+W
SciTegic.value.DoubleValue
-7.306

@<SCITEGIC>MOL_PROPERTY
Grad RMS
SciTegic.value.DoubleValue
0.000000

@<SCITEGIC>MOL_PROPERTY
U
SciTegic.value.DoubleValue
48.641

@<SCITEGIC>MOL_PROPERTY
W
SciTegic.value.DoubleValue
-55.947

@<SCITEGIC>MOL_PROPERTY
W(PB)
SciTegic.value.DoubleValue
-58.031

@<SCITEGIC>MOL_PROPERTY
W(SA)
SciTegic.value.DoubleValue
2.084

@<SCITEGIC>MOL_PROPERTY
Valence
SciTegic.value.DoubleValue
2.922

@<SCITEGIC>MOL_PROPERTY
Coulomb
SciTegic.value.DoubleValue
45.269

@<SCITEGIC>MOL_PROPERTY
VdW
SciTegic.value.DoubleValue
0.449

@<SCITEGIC>MOL_PROPERTY
VdW6
SciTegic.value.DoubleValue
-7.045

@<SCITEGIC>MOL_PROPERTY
VdW12
SciTegic.value.DoubleValue
7.494

@<SCITEGIC>MOL_PROPERTY
Bond
SciTegic.value.DoubleValue
0.220

@<SCITEGIC>MOL_PROPERTY
Angle
SciTegic.value.DoubleValue
1.205

@<SCITEGIC>MOL_PROPERTY
Pdih
SciTegic.value.DoubleValue
1.497

@<SCITEGIC>MOL_PROPERTY
Idih
SciTegic.value.DoubleValue
0.000

@<SCITEGIC>MOL_PROPERTY
Tether
SciTegic.value.DoubleValue
0.000

@<TRIPOS>MOLECULE
guest-2_confgen4.mol2 : confsearch ligand conformer 605
          23          22           1
SMALL
USER_CHARGES
 
@<TRIPOS>ATOM
       1    N1      22.801376   19.733585   22.023292 N.4        1 MOL1        -0.5940
       2    H1      23.200809   20.450816   22.637144 H          1 MOL1         0.3649
       3    H2      23.300080   19.795554   21.129193 H          1 MOL1         0.3649
       4    H3      23.034285   18.822927   22.432092 H          1 MOL1         0.3649
       5    C1      21.306762   19.909163   21.847402 C.3        1 MOL1         0.0207
       6    H4      20.955836   19.133686   21.161532 H          1 MOL1         0.0950
       7    H5      21.133170   20.883677   21.383141 H          1 MOL1         0.0950
       8    C2      20.527988   19.821012   23.173132 C.3        1 MOL1        -0.1415
       9    H6      20.711861   18.848116   23.646519 H          1 MOL1         0.0976
      10    H7      20.913650   20.579255   23.867439 H          1 MOL1         0.0976
      11    C3      19.005995   20.040795   22.987945 C.3        1 MOL1        -0.1375
      12    H8      18.836862   21.064688   22.626905 H          1 MOL1         0.0976
      13    H9      18.513746   19.988007   23.968178 H          1 MOL1         0.0976
      14    C4      18.319225   19.051030   22.008420 C.3        1 MOL1        -0.1375
      15    H10     17.246978   19.286995   21.966297 H          1 MOL1         0.0976
      16    H11     18.698423   19.221591   20.991848 H          1 MOL1         0.0976
      17    C5      18.487217   17.551131   22.360991 C.3        1 MOL1        -0.1350
      18    H12     19.545933   17.264329   22.306366 H          1 MOL1         0.0976
      19    H13     17.973739   16.952051   21.596049 H          1 MOL1         0.0976
      20    C6      17.916939   17.180134   23.748673 C.3        1 MOL1        -0.2365
      21    H14     18.472457   17.672266   24.556611 H          1 MOL1         0.0987
      22    H15     17.982368   16.097042   23.914419 H          1 MOL1         0.0987
      23    H16     16.861277   17.469417   23.831349 H          1 MOL1         0.0987
@<TRIPOS>BOND
    1     1     2    1
    2     1     3    1
    3     1     4    1
    4     1     5    1
    5     5     6    1
    6     5     7    1
    7     5     8    1
    8     8     9    1
    9     8    10    1
   10     8    11    1
   11    11    12    1
   12    11    13    1
   13    11    14    1
   14    14    15    1
   15    14    16    1
   16    14    17    1
   17    17    18    1
   18    17    19    1
   19    17    20    1
   20    20    21    1
   21    20    22    1
   22    20    23    1
@<TRIPOS>SUBSTRUCTURE
       1 MOL1            1 RESIDUE      1      MOL     
@<SCITEGIC>MOL_PROPERTY
VConf Rank
SciTegic.value.IntegerValue
605

@<SCITEGIC>MOL_PROPERTY
Conf_Id
SciTegic.value.IntegerValue
90

@<SCITEGIC>MOL_PROPERTY
Delta U+W
SciTegic.value.DoubleValue
1.131

@<SCITEGIC>MOL_PROPERTY
U+W
SciTegic.value.DoubleValue
-7.251

@<SCITEGIC>MOL_PROPERTY
Grad RMS
SciTegic.value.DoubleValue
0.000000

@<SCITEGIC>MOL_PROPERTY
U
SciTegic.value.DoubleValue
48.641

@<SCITEGIC>MOL_PROPERTY
W
SciTegic.value.DoubleValue
-55.892

@<SCITEGIC>MOL_PROPERTY
W(PB)
SciTegic.value.DoubleValue
-57.962

@<SCITEGIC>MOL_PROPERTY
W(SA)
SciTegic.value.DoubleValue
2.070

@<SCITEGIC>MOL_PROPERTY
Valence
SciTegic.value.DoubleValue
2.922

@<SCITEGIC>MOL_PROPERTY
Coulomb
SciTegic.value.DoubleValue
45.269

@<SCITEGIC>MOL_PROPERTY
VdW
SciTegic.value.DoubleValue
0.450

@<SCITEGIC>MOL_PROPERTY
VdW6
SciTegic.value.DoubleValue
-7.045

@<SCITEGIC>MOL_PROPERTY
VdW12
SciTegic.value.DoubleValue
7.495

@<SCITEGIC>MOL_PROPERTY
Bond
SciTegic.value.DoubleValue
0.220

@<SCITEGIC>MOL_PROPERTY
Angle
SciTegic.value.DoubleValue
1.205

@<SCITEGIC>MOL_PROPERTY
Pdih
SciTegic.value.DoubleValue
1.497

@<SCITEGIC>MOL_PROPERTY
Idih
SciTegic.value.DoubleValue
0.000

@<SCITEGIC>MOL_PROPERTY
Tether
SciTegic.value.DoubleValue
0.000

@<TRIPOS>MOLECULE
guest-2_confgen4.mol2 : confsearch ligand conformer 606
          23          22           1
SMALL
USER_CHARGES
 
@<TRIPOS>ATOM
       1    N1      19.056311   20.585615   24.521175 N.4        1 MOL1        -0.5940
       2    H1      18.307150   21.271014   24.665529 H          1 MOL1         0.3649
       3    H2      19.536461   20.842362   23.653327 H          1 MOL1         0.3649
       4    H3      19.726272   20.709036   25.287002 H          1 MOL1         0.3649
       5    C1      18.520282   19.168601   24.465153 C.3        1 MOL1         0.0207
       6    H4      17.792583   19.113455   23.651440 H          1 MOL1         0.0950
       7    H5      17.994306   18.974181   25.403806 H          1 MOL1         0.0950
       8    C2      19.613564   18.100094   24.260415 C.3        1 MOL1        -0.1415
       9    H6      20.311874   18.133113   25.107210 H          1 MOL1         0.0976
      10    H7      19.145237   17.107272   24.289009 H          1 MOL1         0.0976
      11    C3      20.404751   18.254104   22.937205 C.3        1 MOL1        -0.1375
      12    H8      21.165031   17.462367   22.889893 H          1 MOL1         0.0976
      13    H9      20.953159   19.204501   22.947173 H          1 MOL1         0.0976
      14    C4      19.504492   18.169638   21.678685 C.3        1 MOL1        -0.1375
      15    H10     18.901586   17.252524   21.730403 H          1 MOL1         0.0976
      16    H11     18.793928   19.006785   21.664013 H          1 MOL1         0.0976
      17    C5      20.302900   18.158910   20.352856 C.3        1 MOL1        -0.1350
      18    H12     19.604056   17.990172   19.521604 H          1 MOL1         0.0976
      19    H13     21.000053   17.309383   20.345078 H          1 MOL1         0.0976
      20    C6      21.078359   19.470549   20.093238 C.3        1 MOL1        -0.2365
      21    H14     20.407202   20.338679   20.122172 H          1 MOL1         0.0987
      22    H15     21.552693   19.446495   19.103610 H          1 MOL1         0.0987
      23    H16     21.871999   19.623551   20.834949 H          1 MOL1         0.0987
@<TRIPOS>BOND
    1     1     2    1
    2     1     3    1
    3     1     4    1
    4     1     5    1
    5     5     6    1
    6     5     7    1
    7     5     8    1
    8     8     9    1
    9     8    10    1
   10     8    11    1
   11    11    12    1
   12    11    13    1
   13    11    14    1
   14    14    15    1
   15    14    16    1
   16    14    17    1
   17    17    18    1
   18    17    19    1
   19    17    20    1
   20    20    21    1
   21    20    22    1
   22    20    23    1
@<TRIPOS>SUBSTRUCTURE
       1 MOL1            1 RESIDUE      1      MOL     
@<SCITEGIC>MOL_PROPERTY
VConf Rank
SciTegic.value.IntegerValue
606

@<SCITEGIC>MOL_PROPERTY
Conf_Id
SciTegic.value.IntegerValue
85

@<SCITEGIC>MOL_PROPERTY
Delta U+W
SciTegic.value.DoubleValue
1.193

@<SCITEGIC>MOL_PROPERTY
U+W
SciTegic.value.DoubleValue
-7.189

@<SCITEGIC>MOL_PROPERTY
Grad RMS
SciTegic.value.DoubleValue
0.000000

@<SCITEGIC>MOL_PROPERTY
U
SciTegic.value.DoubleValue
48.775

@<SCITEGIC>MOL_PROPERTY
W
SciTegic.value.DoubleValue
-55.965

@<SCITEGIC>MOL_PROPERTY
W(PB)
SciTegic.value.DoubleValue
-58.038

@<SCITEGIC>MOL_PROPERTY
W(SA)
SciTegic.value.DoubleValue
2.073

@<SCITEGIC>MOL_PROPERTY
Valence
SciTegic.value.DoubleValue
2.602

@<SCITEGIC>MOL_PROPERTY
Coulomb
SciTegic.value.DoubleValue
45.581

@<SCITEGIC>MOL_PROPERTY
VdW
SciTegic.value.DoubleValue
0.592

@<SCITEGIC>MOL_PROPERTY
VdW6
SciTegic.value.DoubleValue
-6.616

@<SCITEGIC>MOL_PROPERTY
VdW12
SciTegic.value.DoubleValue
7.208

@<SCITEGIC>MOL_PROPERTY
Bond
SciTegic.value.DoubleValue
0.196

@<SCITEGIC>MOL_PROPERTY
Angle
SciTegic.value.DoubleValue
0.832

@<SCITEGIC>MOL_PROPERTY
Pdih
SciTegic.value.DoubleValue
1.574

@<SCITEGIC>MOL_PROPERTY
Idih
SciTegic.value.DoubleValue
0.000

@<SCITEGIC>MOL_PROPERTY
Tether
SciTegic.value.DoubleValue
0.000

@<TRIPOS>MOLECULE
guest-2_confgen4.mol2 : confsearch ligand conformer 607
          23          22           1
SMALL
USER_CHARGES
 
@<TRIPOS>ATOM
       1    N1      19.797890   20.818596   23.398064 N.4        1 MOL1        -0.5940
       2    H1      19.607754   20.439276   22.464985 H          1 MOL1         0.3649
       3    H2      20.450507   21.601852   23.284459 H          1 MOL1         0.3649
       4    H3      18.919942   21.210638   23.753768 H          1 MOL1         0.3649
       5    C1      20.352443   19.753578   24.324276 C.3        1 MOL1         0.0207
       6    H4      20.526566   20.231393   25.292204 H          1 MOL1         0.0950
       7    H5      21.316559   19.417181   23.933833 H          1 MOL1         0.0950
       8    C2      19.415884   18.544127   24.521266 C.3        1 MOL1        -0.1415
       9    H6      19.695034   18.056111   25.464534 H          1 MOL1         0.0976
      10    H7      18.383808   18.892712   24.659764 H          1 MOL1         0.0976
      11    C3      19.472326   17.472968   23.398972 C.3        1 MOL1        -0.1375
      12    H8      18.804387   16.652072   23.694763 H          1 MOL1         0.0976
      13    H9      20.477320   17.031037   23.352550 H          1 MOL1         0.0976
      14    C4      19.038356   17.961779   21.993272 C.3        1 MOL1        -0.1375
      15    H10     18.505166   17.143908   21.488758 H          1 MOL1         0.0976
      16    H11     18.309188   18.777755   22.083946 H          1 MOL1         0.0976
      17    C5      20.230945   18.375395   21.096749 C.3        1 MOL1        -0.1350
      18    H12     20.851121   17.492029   20.888953 H          1 MOL1         0.0976
      19    H13     20.884837   19.088481   21.612706 H          1 MOL1         0.0976
      20    C6      19.756084   18.986598   19.761546 C.3        1 MOL1        -0.2365
      21    H14     19.141589   18.272249   19.198103 H          1 MOL1         0.0987
      22    H15     20.614136   19.259661   19.133563 H          1 MOL1         0.0987
      23    H16     19.158963   19.892442   19.927856 H          1 MOL1         0.0987
@<TRIPOS>BOND
    1     1     2    1
    2     1     3    1
    3     1     4    1
    4     1     5    1
    5     5     6    1
    6     5     7    1
    7     5     8    1
    8     8     9    1
    9     8    10    1
   10     8    11    1
   11    11    12    1
   12    11    13    1
   13    11    14    1
   14    14    15    1
   15    14    16    1
   16    14    17    1
   17    17    18    1
   18    17    19    1
   19    17    20    1
   20    20    21    1
   21    20    22    1
   22    20    23    1
@<TRIPOS>SUBSTRUCTURE
       1 MOL1            1 RESIDUE      1      MOL     
@<SCITEGIC>MOL_PROPERTY
VConf Rank
SciTegic.value.IntegerValue
607

@<SCITEGIC>MOL_PROPERTY
Conf_Id
SciTegic.value.IntegerValue
82

@<SCITEGIC>MOL_PROPERTY
Delta U+W
SciTegic.value.DoubleValue
5.994

@<SCITEGIC>MOL_PROPERTY
U+W
SciTegic.value.DoubleValue
-2.388

@<SCITEGIC>MOL_PROPERTY
Grad RMS
SciTegic.value.DoubleValue
0.000000

@<SCITEGIC>MOL_PROPERTY
U
SciTegic.value.DoubleValue
52.836

@<SCITEGIC>MOL_PROPERTY
W
SciTegic.value.DoubleValue
-55.224

@<SCITEGIC>MOL_PROPERTY
W(PB)
SciTegic.value.DoubleValue
-57.261

@<SCITEGIC>MOL_PROPERTY
W(SA)
SciTegic.value.DoubleValue
2.037

@<SCITEGIC>MOL_PROPERTY
Valence
SciTegic.value.DoubleValue
5.785

@<SCITEGIC>MOL_PROPERTY
Coulomb
SciTegic.value.DoubleValue
46.744

@<SCITEGIC>MOL_PROPERTY
VdW
SciTegic.value.DoubleValue
0.307

@<SCITEGIC>MOL_PROPERTY
VdW6
SciTegic.value.DoubleValue
-7.672

@<SCITEGIC>MOL_PROPERTY
VdW12
SciTegic.value.DoubleValue
7.979

@<SCITEGIC>MOL_PROPERTY
Bond
SciTegic.value.DoubleValue
0.217

@<SCITEGIC>MOL_PROPERTY
Angle
SciTegic.value.DoubleValue
1.470

@<SCITEGIC>MOL_PROPERTY
Pdih
SciTegic.value.DoubleValue
4.098

@<SCITEGIC>MOL_PROPERTY
Idih
SciTegic.value.DoubleValue
0.000

@<SCITEGIC>MOL_PROPERTY
Tether
SciTegic.value.DoubleValue
0.000

@<TRIPOS>MOLECULE
guest-2_confgen4.mol2 : confsearch ligand conformer 608
          23          22           1
SMALL
USER_CHARGES
 
@<TRIPOS>ATOM
       1    N1      19.619062   18.966572   24.615890 N.4        1 MOL1        -0.5940
       2    H1      18.948680   19.629505   25.018535 H          1 MOL1         0.3649
       3    H2      19.787754   18.244552   25.324785 H          1 MOL1         0.3649
       4    H3      19.160356   18.513543   23.819004 H          1 MOL1         0.3649
       5    C1      20.903817   19.653834   24.195495 C.3        1 MOL1         0.0207
       6    H4      21.604832   18.896170   23.835425 H          1 MOL1         0.0950
       7    H5      21.329796   20.110909   25.092788 H          1 MOL1         0.0950
       8    C2      20.710064   20.742037   23.119860 C.3        1 MOL1        -0.1415
       9    H6      19.829168   21.351086   23.362664 H          1 MOL1         0.0976
      10    H7      21.568972   21.423876   23.176527 H          1 MOL1         0.0976
      11    C3      20.614199   20.221244   21.660511 C.3        1 MOL1        -0.1375
      12    H8      21.553047   19.725770   21.376713 H          1 MOL1         0.0976
      13    H9      20.535300   21.098458   21.003415 H          1 MOL1         0.0976
      14    C4      19.409295   19.291318   21.366050 C.3        1 MOL1        -0.1375
      15    H10     18.570208   19.535910   22.030755 H          1 MOL1         0.0976
      16    H11     19.049775   19.497864   20.348297 H          1 MOL1         0.0976
      17    C5      19.766252   17.786969   21.447400 C.3        1 MOL1        -0.1350
      18    H12     20.266248   17.549838   22.394003 H          1 MOL1         0.0976
      19    H13     20.487613   17.542677   20.654877 H          1 MOL1         0.0976
      20    C6      18.517137   16.894659   21.288276 C.3        1 MOL1        -0.2365
      21    H14     17.785654   17.087423   22.083601 H          1 MOL1         0.0987
      22    H15     18.791379   15.832615   21.333389 H          1 MOL1         0.0987
      23    H16     18.025832   17.073759   20.322921 H          1 MOL1         0.0987
@<TRIPOS>BOND
    1     1     2    1
    2     1     3    1
    3     1     4    1
    4     1     5    1
    5     5     6    1
    6     5     7    1
    7     5     8    1
    8     8     9    1
    9     8    10    1
   10     8    11    1
   11    11    12    1
   12    11    13    1
   13    11    14    1
   14    14    15    1
   15    14    16    1
   16    14    17    1
   17    17    18    1
   18    17    19    1
   19    17    20    1
   20    20    21    1
   21    20    22    1
   22    20    23    1
@<TRIPOS>SUBSTRUCTURE
       1 MOL1            1 RESIDUE      1      MOL     
@<SCITEGIC>MOL_PROPERTY
VConf Rank
SciTegic.value.IntegerValue
608

@<SCITEGIC>MOL_PROPERTY
Conf_Id
SciTegic.value.IntegerValue
5

@<SCITEGIC>MOL_PROPERTY
Delta U+W
SciTegic.value.DoubleValue
6.087

@<SCITEGIC>MOL_PROPERTY
U+W
SciTegic.value.DoubleValue
-2.295

@<SCITEGIC>MOL_PROPERTY
Grad RMS
SciTegic.value.DoubleValue
0.000000

@<SCITEGIC>MOL_PROPERTY
U
SciTegic.value.DoubleValue
52.836

@<SCITEGIC>MOL_PROPERTY
W
SciTegic.value.DoubleValue
-55.131

@<SCITEGIC>MOL_PROPERTY
W(PB)
SciTegic.value.DoubleValue
-57.202

@<SCITEGIC>MOL_PROPERTY
W(SA)
SciTegic.value.DoubleValue
2.071

@<SCITEGIC>MOL_PROPERTY
Valence
SciTegic.value.DoubleValue
5.785

@<SCITEGIC>MOL_PROPERTY
Coulomb
SciTegic.value.DoubleValue
46.744

@<SCITEGIC>MOL_PROPERTY
VdW
SciTegic.value.DoubleValue
0.307

@<SCITEGIC>MOL_PROPERTY
VdW6
SciTegic.value.DoubleValue
-7.672

@<SCITEGIC>MOL_PROPERTY
VdW12
SciTegic.value.DoubleValue
7.980

@<SCITEGIC>MOL_PROPERTY
Bond
SciTegic.value.DoubleValue
0.217

@<SCITEGIC>MOL_PROPERTY
Angle
SciTegic.value.DoubleValue
1.470

@<SCITEGIC>MOL_PROPERTY
Pdih
SciTegic.value.DoubleValue
4.098

@<SCITEGIC>MOL_PROPERTY
Idih
SciTegic.value.DoubleValue
0.000

@<SCITEGIC>MOL_PROPERTY
Tether
SciTegic.value.DoubleValue
0.000

@<TRIPOS>MOLECULE
guest-2_confgen4.mol2 : confsearch ligand conformer 609
          23          22           1
SMALL
USER_CHARGES
 
@<TRIPOS>ATOM
       1    N1      18.397436   21.163926   19.732956 N.4        1 MOL1        -0.5940
       2    H1      17.622531   21.577868   20.261217 H          1 MOL1         0.3649
       3    H2      18.078620   21.067500   18.762826 H          1 MOL1         0.3649
       4    H3      19.159806   21.849243   19.729046 H          1 MOL1         0.3649
       5    C1      18.833975   19.835499   20.316576 C.3        1 MOL1         0.0207
       6    H4      19.637975   19.439584   19.690212 H          1 MOL1         0.0950
       7    H5      17.985612   19.147882   20.262174 H          1 MOL1         0.0950
       8    C2      19.318635   19.946025   21.773102 C.3        1 MOL1        -0.1415
       9    H6      20.160044   20.649871   21.825369 H          1 MOL1         0.0976
      10    H7      18.513536   20.359303   22.395289 H          1 MOL1         0.0976
      11    C3      19.753802   18.572480   22.330045 C.3        1 MOL1        -0.1375
      12    H8      20.555643   18.159992   21.701788 H          1 MOL1         0.0976
      13    H9      18.910876   17.869765   22.271141 H          1 MOL1         0.0976
      14    C4      20.242681   18.671804   23.792965 C.3        1 MOL1        -0.1375
      15    H10     21.085610   19.374298   23.852008 H          1 MOL1         0.0976
      16    H11     19.441034   19.084215   24.421292 H          1 MOL1         0.0976
      17    C5      20.677729   17.297922   24.349688 C.3        1 MOL1        -0.1350
      18    H12     21.481412   16.882185   23.725806 H          1 MOL1         0.0976
      19    H13     19.836981   16.592137   24.295051 H          1 MOL1         0.0976
      20    C6      21.165242   17.401077   25.810577 C.3        1 MOL1        -0.2365
      21    H14     21.469652   16.416273   26.188124 H          1 MOL1         0.0987
      22    H15     20.371118   17.782219   26.465808 H          1 MOL1         0.0987
      23    H16     22.028380   18.074556   25.892121 H          1 MOL1         0.0987
@<TRIPOS>BOND
    1     1     2    1
    2     1     3    1
    3     1     4    1
    4     1     5    1
    5     5     6    1
    6     5     7    1
    7     5     8    1
    8     8     9    1
    9     8    10    1
   10     8    11    1
   11    11    12    1
   12    11    13    1
   13    11    14    1
   14    14    15    1
   15    14    16    1
   16    14    17    1
   17    17    18    1
   18    17    19    1
   19    17    20    1
   20    20    21    1
   21    20    22    1
   22    20    23    1
@<TRIPOS>SUBSTRUCTURE
       1 MOL1            1 RESIDUE      1      MOL     
@<SCITEGIC>MOL_PROPERTY
VConf Rank
SciTegic.value.IntegerValue
609

@<SCITEGIC>MOL_PROPERTY
Conf_Id
SciTegic.value.IntegerValue
40

@<SCITEGIC>MOL_PROPERTY
Delta U+W
SciTegic.value.DoubleValue
0.000

@<SCITEGIC>MOL_PROPERTY
U+W
SciTegic.value.DoubleValue
-8.382

@<SCITEGIC>MOL_PROPERTY
Grad RMS
SciTegic.value.DoubleValue
0.000000

@<SCITEGIC>MOL_PROPERTY
U
SciTegic.value.DoubleValue
46.604

@<SCITEGIC>MOL_PROPERTY
W
SciTegic.value.DoubleValue
-54.986

@<SCITEGIC>MOL_PROPERTY
W(PB)
SciTegic.value.DoubleValue
-57.162

@<SCITEGIC>MOL_PROPERTY
W(SA)
SciTegic.value.DoubleValue
2.176

@<SCITEGIC>MOL_PROPERTY
Valence
SciTegic.value.DoubleValue
1.727

@<SCITEGIC>MOL_PROPERTY
Coulomb
SciTegic.value.DoubleValue
44.434

@<SCITEGIC>MOL_PROPERTY
VdW
SciTegic.value.DoubleValue
0.443

@<SCITEGIC>MOL_PROPERTY
VdW6
SciTegic.value.DoubleValue
-4.623

@<SCITEGIC>MOL_PROPERTY
VdW12
SciTegic.value.DoubleValue
5.066

@<SCITEGIC>MOL_PROPERTY
Bond
SciTegic.value.DoubleValue
0.112

@<SCITEGIC>MOL_PROPERTY
Angle
SciTegic.value.DoubleValue
0.386

@<SCITEGIC>MOL_PROPERTY
Pdih
SciTegic.value.DoubleValue
1.228

@<SCITEGIC>MOL_PROPERTY
Idih
SciTegic.value.DoubleValue
0.000

@<SCITEGIC>MOL_PROPERTY
Tether
SciTegic.value.DoubleValue
0.000

@<TRIPOS>MOLECULE
guest-2_confgen4.mol2 : confsearch ligand conformer 610
          23          22           1
SMALL
USER_CHARGES
 
@<TRIPOS>ATOM
       1    N1      21.814305   18.575465   25.505409 N.4        1 MOL1        -0.5940
       2    H1      22.306450   17.677425   25.458955 H          1 MOL1         0.3649
       3    H2      21.052428   18.467032   26.182622 H          1 MOL1         0.3649
       4    H3      22.471750   19.255152   25.902676 H          1 MOL1         0.3649
       5    C1      21.305337   19.012238   24.146747 C.3        1 MOL1         0.0207
       6    H4      22.168250   19.135440   23.486737 H          1 MOL1         0.0950
       7    H5      20.822351   19.985239   24.267219 H          1 MOL1         0.0950
       8    C2      20.314907   18.010681   23.522998 C.3        1 MOL1        -0.1415
       9    H6      20.798242   17.027145   23.452357 H          1 MOL1         0.0976
      10    H7      19.447370   17.887453   24.184949 H          1 MOL1         0.0976
      11    C3      19.837786   18.436379   22.114183 C.3        1 MOL1        -0.1375
      12    H8      19.231764   17.622012   21.696445 H          1 MOL1         0.0976
      13    H9      20.707076   18.549455   21.451672 H          1 MOL1         0.0976
      14    C4      19.011521   19.747788   22.122365 C.3        1 MOL1        -0.1375
      15    H10     18.131215   19.627066   22.768669 H          1 MOL1         0.0976
      16    H11     19.609692   20.556184   22.563040 H          1 MOL1         0.0976
      17    C5      18.558217   20.198915   20.712569 C.3        1 MOL1        -0.1350
      18    H12     19.435791   20.331479   20.064427 H          1 MOL1         0.0976
      19    H13     18.085380   21.187622   20.794774 H          1 MOL1         0.0976
      20    C6      17.560152   19.225754   20.044576 C.3        1 MOL1        -0.2365
      21    H14     18.025831   18.257235   19.824646 H          1 MOL1         0.0987
      22    H15     17.197952   19.639762   19.094652 H          1 MOL1         0.0987
      23    H16     16.688230   19.050750   20.688111 H          1 MOL1         0.0987
@<TRIPOS>BOND
    1     1     2    1
    2     1     3    1
    3     1     4    1
    4     1     5    1
    5     5     6    1
    6     5     7    1
    7     5     8    1
    8     8     9    1
    9     8    10    1
   10     8    11    1
   11    11    12    1
   12    11    13    1
   13    11    14    1
   14    14    15    1
   15    14    16    1
   16    14    17    1
   17    17    18    1
   18    17    19    1
   19    17    20    1
   20    20    21    1
   21    20    22    1
   22    20    23    1
@<TRIPOS>SUBSTRUCTURE
       1 MOL1            1 RESIDUE      1      MOL     
@<SCITEGIC>MOL_PROPERTY
VConf Rank
SciTegic.value.IntegerValue
610

@<SCITEGIC>MOL_PROPERTY
Conf_Id
SciTegic.value.IntegerValue
65

@<SCITEGIC>MOL_PROPERTY
Delta U+W
SciTegic.value.DoubleValue
1.004

@<SCITEGIC>MOL_PROPERTY
U+W
SciTegic.value.DoubleValue
-7.378

@<SCITEGIC>MOL_PROPERTY
Grad RMS
SciTegic.value.DoubleValue
0.000000

@<SCITEGIC>MOL_PROPERTY
U
SciTegic.value.DoubleValue
48.047

@<SCITEGIC>MOL_PROPERTY
W
SciTegic.value.DoubleValue
-55.425

@<SCITEGIC>MOL_PROPERTY
W(PB)
SciTegic.value.DoubleValue
-57.542

@<SCITEGIC>MOL_PROPERTY
W(SA)
SciTegic.value.DoubleValue
2.116

@<SCITEGIC>MOL_PROPERTY
Valence
SciTegic.value.DoubleValue
2.583

@<SCITEGIC>MOL_PROPERTY
Coulomb
SciTegic.value.DoubleValue
44.791

@<SCITEGIC>MOL_PROPERTY
VdW
SciTegic.value.DoubleValue
0.673

@<SCITEGIC>MOL_PROPERTY
VdW6
SciTegic.value.DoubleValue
-5.788

@<SCITEGIC>MOL_PROPERTY
VdW12
SciTegic.value.DoubleValue
6.462

@<SCITEGIC>MOL_PROPERTY
Bond
SciTegic.value.DoubleValue
0.177

@<SCITEGIC>MOL_PROPERTY
Angle
SciTegic.value.DoubleValue
0.787

@<SCITEGIC>MOL_PROPERTY
Pdih
SciTegic.value.DoubleValue
1.619

@<SCITEGIC>MOL_PROPERTY
Idih
SciTegic.value.DoubleValue
0.000

@<SCITEGIC>MOL_PROPERTY
Tether
SciTegic.value.DoubleValue
0.000

@<TRIPOS>MOLECULE
guest-2_confgen4.mol2 : confsearch ligand conformer 611
          23          22           1
SMALL
USER_CHARGES
 
@<TRIPOS>ATOM
       1    N1      16.984437   16.781709   22.470071 N.4        1 MOL1        -0.5940
       2    H1      17.150777   16.050180   21.771476 H          1 MOL1         0.3649
       3    H2      15.993295   17.037146   22.403599 H          1 MOL1         0.3649
       4    H3      17.120867   16.354768   23.391993 H          1 MOL1         0.3649
       5    C1      17.889588   17.978818   22.261727 C.3        1 MOL1         0.0207
       6    H4      17.636118   18.725752   23.018273 H          1 MOL1         0.0950
       7    H5      17.671752   18.399166   21.276199 H          1 MOL1         0.0950
       8    C2      19.386427   17.626945   22.355482 C.3        1 MOL1        -0.1415
       9    H6      19.606045   17.205780   23.345620 H          1 MOL1         0.0976
      10    H7      19.615544   16.841999   21.622467 H          1 MOL1         0.0976
      11    C3      20.306603   18.842368   22.091591 C.3        1 MOL1        -0.1375
      12    H8      20.091412   19.255498   21.096409 H          1 MOL1         0.0976
      13    H9      21.344844   18.487087   22.063395 H          1 MOL1         0.0976
      14    C4      20.166704   19.954829   23.161839 C.3        1 MOL1        -0.1375
      15    H10     19.122883   20.292369   23.206661 H          1 MOL1         0.0976
      16    H11     20.402244   19.546078   24.154142 H          1 MOL1         0.0976
      17    C5      21.059658   21.189268   22.887406 C.3        1 MOL1        -0.1350
      18    H12     20.814371   21.970694   23.620263 H          1 MOL1         0.0976
      19    H13     20.820981   21.608829   21.900086 H          1 MOL1         0.0976
      20    C6      22.573206   20.887034   22.972357 C.3        1 MOL1        -0.2365
      21    H14     22.894225   20.204110   22.176230 H          1 MOL1         0.0987
      22    H15     22.832297   20.435690   23.938882 H          1 MOL1         0.0987
      23    H16     23.155609   21.811536   22.867256 H          1 MOL1         0.0987
@<TRIPOS>BOND
    1     1     2    1
    2     1     3    1
    3     1     4    1
    4     1     5    1
    5     5     6    1
    6     5     7    1
    7     5     8    1
    8     8     9    1
    9     8    10    1
   10     8    11    1
   11    11    12    1
   12    11    13    1
   13    11    14    1
   14    14    15    1
   15    14    16    1
   16    14    17    1
   17    17    18    1
   18    17    19    1
   19    17    20    1
   20    20    21    1
   21    20    22    1
   22    20    23    1
@<TRIPOS>SUBSTRUCTURE
       1 MOL1            1 RESIDUE      1      MOL     
@<SCITEGIC>MOL_PROPERTY
VConf Rank
SciTegic.value.IntegerValue
611

@<SCITEGIC>MOL_PROPERTY
Conf_Id
SciTegic.value.IntegerValue
92

@<SCITEGIC>MOL_PROPERTY
Delta U+W
SciTegic.value.DoubleValue
0.973

@<SCITEGIC>MOL_PROPERTY
U+W
SciTegic.value.DoubleValue
-7.409

@<SCITEGIC>MOL_PROPERTY
Grad RMS
SciTegic.value.DoubleValue
0.000000

@<SCITEGIC>MOL_PROPERTY
U
SciTegic.value.DoubleValue
48.047

@<SCITEGIC>MOL_PROPERTY
W
SciTegic.value.DoubleValue
-55.456

@<SCITEGIC>MOL_PROPERTY
W(PB)
SciTegic.value.DoubleValue
-57.595

@<SCITEGIC>MOL_PROPERTY
W(SA)
SciTegic.value.DoubleValue
2.138

@<SCITEGIC>MOL_PROPERTY
Valence
SciTegic.value.DoubleValue
2.583

@<SCITEGIC>MOL_PROPERTY
Coulomb
SciTegic.value.DoubleValue
44.791

@<SCITEGIC>MOL_PROPERTY
VdW
SciTegic.value.DoubleValue
0.674

@<SCITEGIC>MOL_PROPERTY
VdW6
SciTegic.value.DoubleValue
-5.789

@<SCITEGIC>MOL_PROPERTY
VdW12
SciTegic.value.DoubleValue
6.462

@<SCITEGIC>MOL_PROPERTY
Bond
SciTegic.value.DoubleValue
0.177

@<SCITEGIC>MOL_PROPERTY
Angle
SciTegic.value.DoubleValue
0.787

@<SCITEGIC>MOL_PROPERTY
Pdih
SciTegic.value.DoubleValue
1.619

@<SCITEGIC>MOL_PROPERTY
Idih
SciTegic.value.DoubleValue
0.000

@<SCITEGIC>MOL_PROPERTY
Tether
SciTegic.value.DoubleValue
0.000

@<TRIPOS>MOLECULE
guest-2_confgen4.mol2 : confsearch ligand conformer 612
          23          22           1
SMALL
USER_CHARGES
 
@<TRIPOS>ATOM
       1    N1      18.542755   21.669479   24.539763 N.4        1 MOL1        -0.5940
       2    H1      18.317633   22.573478   24.110648 H          1 MOL1         0.3649
       3    H2      19.052669   21.870039   25.406144 H          1 MOL1         0.3649
       4    H3      17.652748   21.236740   24.807092 H          1 MOL1         0.3649
       5    C1      19.342840   20.785867   23.604418 C.3        1 MOL1         0.0207
       6    H4      20.260075   21.318467   23.339020 H          1 MOL1         0.0950
       7    H5      18.753883   20.640387   22.695210 H          1 MOL1         0.0950
       8    C2      19.697144   19.419370   24.220869 C.3        1 MOL1        -0.1415
       9    H6      20.249705   19.580291   25.156138 H          1 MOL1         0.0976
      10    H7      18.775832   18.884837   24.488175 H          1 MOL1         0.0976
      11    C3      20.552576   18.541316   23.277317 C.3        1 MOL1        -0.1375
      12    H8      20.843913   17.627889   23.814183 H          1 MOL1         0.0976
      13    H9      21.485341   19.068092   23.032151 H          1 MOL1         0.0976
      14    C4      19.814595   18.151710   21.973840 C.3        1 MOL1        -0.1375
      15    H10     18.866756   17.654744   22.222925 H          1 MOL1         0.0976
      16    H11     19.560154   19.054187   21.402130 H          1 MOL1         0.0976
      17    C5      20.668148   17.216085   21.089065 C.3        1 MOL1        -0.1350
      18    H12     20.921897   16.304832   21.648698 H          1 MOL1         0.0976
      19    H13     21.618142   17.708171   20.837389 H          1 MOL1         0.0976
      20    C6      19.931776   16.829287   19.788793 C.3        1 MOL1        -0.2365
      21    H14     18.992630   16.304737   20.008058 H          1 MOL1         0.0987
      22    H15     20.553131   16.164811   19.174436 H          1 MOL1         0.0987
      23    H16     19.695055   17.718213   19.189632 H          1 MOL1         0.0987
@<TRIPOS>BOND
    1     1     2    1
    2     1     3    1
    3     1     4    1
    4     1     5    1
    5     5     6    1
    6     5     7    1
    7     5     8    1
    8     8     9    1
    9     8    10    1
   10     8    11    1
   11    11    12    1
   12    11    13    1
   13    11    14    1
   14    14    15    1
   15    14    16    1
   16    14    17    1
   17    17    18    1
   18    17    19    1
   19    17    20    1
   20    20    21    1
   21    20    22    1
   22    20    23    1
@<TRIPOS>SUBSTRUCTURE
       1 MOL1            1 RESIDUE      1      MOL     
@<SCITEGIC>MOL_PROPERTY
VConf Rank
SciTegic.value.IntegerValue
612

@<SCITEGIC>MOL_PROPERTY
Conf_Id
SciTegic.value.IntegerValue
42

@<SCITEGIC>MOL_PROPERTY
Delta U+W
SciTegic.value.DoubleValue
0.365

@<SCITEGIC>MOL_PROPERTY
U+W
SciTegic.value.DoubleValue
-8.017

@<SCITEGIC>MOL_PROPERTY
Grad RMS
SciTegic.value.DoubleValue
0.000000

@<SCITEGIC>MOL_PROPERTY
U
SciTegic.value.DoubleValue
47.375

@<SCITEGIC>MOL_PROPERTY
W
SciTegic.value.DoubleValue
-55.392

@<SCITEGIC>MOL_PROPERTY
W(PB)
SciTegic.value.DoubleValue
-57.543

@<SCITEGIC>MOL_PROPERTY
W(SA)
SciTegic.value.DoubleValue
2.152

@<SCITEGIC>MOL_PROPERTY
Valence
SciTegic.value.DoubleValue
2.032

@<SCITEGIC>MOL_PROPERTY
Coulomb
SciTegic.value.DoubleValue
44.843

@<SCITEGIC>MOL_PROPERTY
VdW
SciTegic.value.DoubleValue
0.499

@<SCITEGIC>MOL_PROPERTY
VdW6
SciTegic.value.DoubleValue
-5.218

@<SCITEGIC>MOL_PROPERTY
VdW12
SciTegic.value.DoubleValue
5.717

@<SCITEGIC>MOL_PROPERTY
Bond
SciTegic.value.DoubleValue
0.135

@<SCITEGIC>MOL_PROPERTY
Angle
SciTegic.value.DoubleValue
0.514

@<SCITEGIC>MOL_PROPERTY
Pdih
SciTegic.value.DoubleValue
1.383

@<SCITEGIC>MOL_PROPERTY
Idih
SciTegic.value.DoubleValue
0.000

@<SCITEGIC>MOL_PROPERTY
Tether
SciTegic.value.DoubleValue
0.000

@<TRIPOS>MOLECULE
guest-2_confgen4.mol2 : confsearch ligand conformer 613
          23          22           1
SMALL
USER_CHARGES
 
@<TRIPOS>ATOM
       1    N1      16.722878   18.981718   23.563632 N.4        1 MOL1        -0.5940
       2    H1      16.624705   17.968853   23.440746 H          1 MOL1         0.3649
       3    H2      15.774921   19.368712   23.623311 H          1 MOL1         0.3649
       4    H3      17.166096   19.134733   24.474426 H          1 MOL1         0.3649
       5    C1      17.517876   19.611995   22.436550 C.3        1 MOL1         0.0207
       6    H4      17.564824   20.689743   22.614533 H          1 MOL1         0.0950
       7    H5      16.964511   19.444194   21.508541 H          1 MOL1         0.0950
       8    C2      18.944347   19.047765   22.288038 C.3        1 MOL1        -0.1415
       9    H6      18.895812   17.961270   22.136962 H          1 MOL1         0.0976
      10    H7      19.381964   19.478384   21.379096 H          1 MOL1         0.0976
      11    C3      19.848106   19.378440   23.500754 C.3        1 MOL1        -0.1375
      12    H8      19.359731   19.039036   24.423591 H          1 MOL1         0.0976
      13    H9      19.949679   20.468733   23.592140 H          1 MOL1         0.0976
      14    C4      21.257266   18.733495   23.442697 C.3        1 MOL1        -0.1375
      15    H10     21.781698   19.002633   24.370071 H          1 MOL1         0.0976
      16    H11     21.172183   17.638184   23.459402 H          1 MOL1         0.0976
      17    C5      22.133215   19.185299   22.245605 C.3        1 MOL1        -0.1350
      18    H12     23.178316   19.246904   22.580180 H          1 MOL1         0.0976
      19    H13     21.856925   20.201461   21.931478 H          1 MOL1         0.0976
      20    C6      22.075355   18.215339   21.042239 C.3        1 MOL1        -0.2365
      21    H14     22.422390   17.214260   21.329410 H          1 MOL1         0.0987
      22    H15     22.722961   18.571461   20.230637 H          1 MOL1         0.0987
      23    H16     21.061498   18.117210   20.639022 H          1 MOL1         0.0987
@<TRIPOS>BOND
    1     1     2    1
    2     1     3    1
    3     1     4    1
    4     1     5    1
    5     5     6    1
    6     5     7    1
    7     5     8    1
    8     8     9    1
    9     8    10    1
   10     8    11    1
   11    11    12    1
   12    11    13    1
   13    11    14    1
   14    14    15    1
   15    14    16    1
   16    14    17    1
   17    17    18    1
   18    17    19    1
   19    17    20    1
   20    20    21    1
   21    20    22    1
   22    20    23    1
@<TRIPOS>SUBSTRUCTURE
       1 MOL1            1 RESIDUE      1      MOL     
@<SCITEGIC>MOL_PROPERTY
VConf Rank
SciTegic.value.IntegerValue
613

@<SCITEGIC>MOL_PROPERTY
Conf_Id
SciTegic.value.IntegerValue
3

@<SCITEGIC>MOL_PROPERTY
Delta U+W
SciTegic.value.DoubleValue
3.283

@<SCITEGIC>MOL_PROPERTY
U+W
SciTegic.value.DoubleValue
-5.099

@<SCITEGIC>MOL_PROPERTY
Grad RMS
SciTegic.value.DoubleValue
0.000000

@<SCITEGIC>MOL_PROPERTY
U
SciTegic.value.DoubleValue
50.701

@<SCITEGIC>MOL_PROPERTY
W
SciTegic.value.DoubleValue
-55.800

@<SCITEGIC>MOL_PROPERTY
W(PB)
SciTegic.value.DoubleValue
-57.867

@<SCITEGIC>MOL_PROPERTY
W(SA)
SciTegic.value.DoubleValue
2.067

@<SCITEGIC>MOL_PROPERTY
Valence
SciTegic.value.DoubleValue
4.880

@<SCITEGIC>MOL_PROPERTY
Coulomb
SciTegic.value.DoubleValue
45.095

@<SCITEGIC>MOL_PROPERTY
VdW
SciTegic.value.DoubleValue
0.726

@<SCITEGIC>MOL_PROPERTY
VdW6
SciTegic.value.DoubleValue
-6.620

@<SCITEGIC>MOL_PROPERTY
VdW12
SciTegic.value.DoubleValue
7.346

@<SCITEGIC>MOL_PROPERTY
Bond
SciTegic.value.DoubleValue
0.222

@<SCITEGIC>MOL_PROPERTY
Angle
SciTegic.value.DoubleValue
1.260

@<SCITEGIC>MOL_PROPERTY
Pdih
SciTegic.value.DoubleValue
3.398

@<SCITEGIC>MOL_PROPERTY
Idih
SciTegic.value.DoubleValue
0.000

@<SCITEGIC>MOL_PROPERTY
Tether
SciTegic.value.DoubleValue
0.000

@<TRIPOS>MOLECULE
guest-2_confgen4.mol2 : confsearch ligand conformer 614
          23          22           1
SMALL
USER_CHARGES
 
@<TRIPOS>ATOM
       1    N1      19.555828   17.900028   19.928371 N.4        1 MOL1        -0.5940
       2    H1      19.004321   18.470763   19.279792 H          1 MOL1         0.3649
       3    H2      19.893582   17.088489   19.400013 H          1 MOL1         0.3649
       4    H3      20.378425   18.450536   20.192707 H          1 MOL1         0.3649
       5    C1      18.746641   17.485529   21.141508 C.3        1 MOL1         0.0207
       6    H4      19.379970   16.857663   21.773306 H          1 MOL1         0.0950
       7    H5      17.909390   16.876185   20.790455 H          1 MOL1         0.0950
       8    C2      18.204779   18.674504   21.961263 C.3        1 MOL1        -0.1415
       9    H6      17.530048   19.266886   21.329103 H          1 MOL1         0.0976
      10    H7      17.589460   18.284571   22.782965 H          1 MOL1         0.0976
      11    C3      19.304467   19.599428   22.541649 C.3        1 MOL1        -0.1375
      12    H8      18.810082   20.427165   23.066348 H          1 MOL1         0.0976
      13    H9      19.879232   20.055446   21.724679 H          1 MOL1         0.0976
      14    C4      20.264742   18.869170   23.514800 C.3        1 MOL1        -0.1375
      15    H10     19.691080   18.437094   24.346300 H          1 MOL1         0.0976
      16    H11     20.741529   18.026165   22.997720 H          1 MOL1         0.0976
      17    C5      21.381974   19.780965   24.077712 C.3        1 MOL1        -0.1350
      18    H12     21.966281   20.207593   23.250488 H          1 MOL1         0.0976
      19    H13     22.080117   19.163133   24.659728 H          1 MOL1         0.0976
      20    C6      20.853508   20.917815   24.981947 C.3        1 MOL1        -0.2365
      21    H14     20.237789   20.519129   25.798615 H          1 MOL1         0.0987
      22    H15     20.249954   21.637441   24.415283 H          1 MOL1         0.0987
      23    H16     21.688760   21.470668   25.430994 H          1 MOL1         0.0987
@<TRIPOS>BOND
    1     1     2    1
    2     1     3    1
    3     1     4    1
    4     1     5    1
    5     5     6    1
    6     5     7    1
    7     5     8    1
    8     8     9    1
    9     8    10    1
   10     8    11    1
   11    11    12    1
   12    11    13    1
   13    11    14    1
   14    14    15    1
   15    14    16    1
   16    14    17    1
   17    17    18    1
   18    17    19    1
   19    17    20    1
   20    20    21    1
   21    20    22    1
   22    20    23    1
@<TRIPOS>SUBSTRUCTURE
       1 MOL1            1 RESIDUE      1      MOL     
@<SCITEGIC>MOL_PROPERTY
VConf Rank
SciTegic.value.IntegerValue
614

@<SCITEGIC>MOL_PROPERTY
Conf_Id
SciTegic.value.IntegerValue
83

@<SCITEGIC>MOL_PROPERTY
Delta U+W
SciTegic.value.DoubleValue
1.229

@<SCITEGIC>MOL_PROPERTY
U+W
SciTegic.value.DoubleValue
-7.154

@<SCITEGIC>MOL_PROPERTY
Grad RMS
SciTegic.value.DoubleValue
0.000000

@<SCITEGIC>MOL_PROPERTY
U
SciTegic.value.DoubleValue
48.727

@<SCITEGIC>MOL_PROPERTY
W
SciTegic.value.DoubleValue
-55.880

@<SCITEGIC>MOL_PROPERTY
W(PB)
SciTegic.value.DoubleValue
-57.960

@<SCITEGIC>MOL_PROPERTY
W(SA)
SciTegic.value.DoubleValue
2.080

@<SCITEGIC>MOL_PROPERTY
Valence
SciTegic.value.DoubleValue
2.671

@<SCITEGIC>MOL_PROPERTY
Coulomb
SciTegic.value.DoubleValue
45.371

@<SCITEGIC>MOL_PROPERTY
VdW
SciTegic.value.DoubleValue
0.684

@<SCITEGIC>MOL_PROPERTY
VdW6
SciTegic.value.DoubleValue
-6.511

@<SCITEGIC>MOL_PROPERTY
VdW12
SciTegic.value.DoubleValue
7.195

@<SCITEGIC>MOL_PROPERTY
Bond
SciTegic.value.DoubleValue
0.203

@<SCITEGIC>MOL_PROPERTY
Angle
SciTegic.value.DoubleValue
0.915

@<SCITEGIC>MOL_PROPERTY
Pdih
SciTegic.value.DoubleValue
1.554

@<SCITEGIC>MOL_PROPERTY
Idih
SciTegic.value.DoubleValue
0.000

@<SCITEGIC>MOL_PROPERTY
Tether
SciTegic.value.DoubleValue
0.000

@<TRIPOS>MOLECULE
guest-2_confgen4.mol2 : confsearch ligand conformer 615
          23          22           1
SMALL
USER_CHARGES
 
@<TRIPOS>ATOM
       1    N1      20.517611   20.285856   25.074425 N.4        1 MOL1        -0.5940
       2    H1      20.084085   19.864984   25.902359 H          1 MOL1         0.3649
       3    H2      19.762940   20.677254   24.502690 H          1 MOL1         0.3649
       4    H3      21.086659   21.073582   25.402309 H          1 MOL1         0.3649
       5    C1      21.343211   19.279053   24.297878 C.3        1 MOL1         0.0207
       6    H4      22.145756   18.930583   24.953634 H          1 MOL1         0.0950
       7    H5      21.799953   19.796480   23.450442 H          1 MOL1         0.0950
       8    C2      20.531670   18.067380   23.795358 C.3        1 MOL1        -0.1415
       9    H6      21.215253   17.368501   23.295217 H          1 MOL1         0.0976
      10    H7      20.122065   17.527930   24.659663 H          1 MOL1         0.0976
      11    C3      19.377740   18.433075   22.827701 C.3        1 MOL1        -0.1375
      12    H8      18.646953   19.071644   23.341440 H          1 MOL1         0.0976
      13    H9      18.846182   17.508453   22.568095 H          1 MOL1         0.0976
      14    C4      19.865657   19.131131   21.532678 C.3        1 MOL1        -0.1375
      15    H10     20.418488   20.043431   21.792372 H          1 MOL1         0.0976
      16    H11     20.575704   18.479061   21.005602 H          1 MOL1         0.0976
      17    C5      18.715590   19.523375   20.573545 C.3        1 MOL1        -0.1350
      18    H12     19.134051   20.111682   19.744902 H          1 MOL1         0.0976
      19    H13     18.007537   20.184655   21.092288 H          1 MOL1         0.0976
      20    C6      17.959692   18.309091   19.987478 C.3        1 MOL1        -0.2365
      21    H14     18.650907   17.615263   19.491660 H          1 MOL1         0.0987
      22    H15     17.223570   18.638306   19.242712 H          1 MOL1         0.0987
      23    H16     17.416664   17.757547   20.764757 H          1 MOL1         0.0987
@<TRIPOS>BOND
    1     1     2    1
    2     1     3    1
    3     1     4    1
    4     1     5    1
    5     5     6    1
    6     5     7    1
    7     5     8    1
    8     8     9    1
    9     8    10    1
   10     8    11    1
   11    11    12    1
   12    11    13    1
   13    11    14    1
   14    14    15    1
   15    14    16    1
   16    14    17    1
   17    17    18    1
   18    17    19    1
   19    17    20    1
   20    20    21    1
   21    20    22    1
   22    20    23    1
@<TRIPOS>SUBSTRUCTURE
       1 MOL1            1 RESIDUE      1      MOL     
@<SCITEGIC>MOL_PROPERTY
VConf Rank
SciTegic.value.IntegerValue
615

@<SCITEGIC>MOL_PROPERTY
Conf_Id
SciTegic.value.IntegerValue
50

@<SCITEGIC>MOL_PROPERTY
Delta U+W
SciTegic.value.DoubleValue
1.252

@<SCITEGIC>MOL_PROPERTY
U+W
SciTegic.value.DoubleValue
-7.130

@<SCITEGIC>MOL_PROPERTY
Grad RMS
SciTegic.value.DoubleValue
0.000000

@<SCITEGIC>MOL_PROPERTY
U
SciTegic.value.DoubleValue
48.727

@<SCITEGIC>MOL_PROPERTY
W
SciTegic.value.DoubleValue
-55.857

@<SCITEGIC>MOL_PROPERTY
W(PB)
SciTegic.value.DoubleValue
-57.937

@<SCITEGIC>MOL_PROPERTY
W(SA)
SciTegic.value.DoubleValue
2.080

@<SCITEGIC>MOL_PROPERTY
Valence
SciTegic.value.DoubleValue
2.671

@<SCITEGIC>MOL_PROPERTY
Coulomb
SciTegic.value.DoubleValue
45.371

@<SCITEGIC>MOL_PROPERTY
VdW
SciTegic.value.DoubleValue
0.684

@<SCITEGIC>MOL_PROPERTY
VdW6
SciTegic.value.DoubleValue
-6.511

@<SCITEGIC>MOL_PROPERTY
VdW12
SciTegic.value.DoubleValue
7.196

@<SCITEGIC>MOL_PROPERTY
Bond
SciTegic.value.DoubleValue
0.203

@<SCITEGIC>MOL_PROPERTY
Angle
SciTegic.value.DoubleValue
0.915

@<SCITEGIC>MOL_PROPERTY
Pdih
SciTegic.value.DoubleValue
1.554

@<SCITEGIC>MOL_PROPERTY
Idih
SciTegic.value.DoubleValue
0.000

@<SCITEGIC>MOL_PROPERTY
Tether
SciTegic.value.DoubleValue
0.000

@<TRIPOS>MOLECULE
guest-2_confgen4.mol2 : confsearch ligand conformer 616
          23          22           1
SMALL
USER_CHARGES
 
@<TRIPOS>ATOM
       1    N1      20.372727   19.981132   25.617618 N.4        1 MOL1        -0.5940
       2    H1      21.272041   19.583404   25.330250 H          1 MOL1         0.3649
       3    H2      20.260595   19.777361   26.616534 H          1 MOL1         0.3649
       4    H3      20.448683   20.999303   25.527156 H          1 MOL1         0.3649
       5    C1      19.224172   19.426315   24.797716 C.3        1 MOL1         0.0207
       6    H4      18.299389   19.861843   25.185873 H          1 MOL1         0.0950
       7    H5      19.184473   18.345380   24.957140 H          1 MOL1         0.0950
       8    C2      19.335014   19.724020   23.289788 C.3        1 MOL1        -0.1415
       9    H6      18.413694   19.382849   22.804570 H          1 MOL1         0.0976
      10    H7      19.379770   20.810248   23.135282 H          1 MOL1         0.0976
      11    C3      20.567623   19.048129   22.636703 C.3        1 MOL1        -0.1375
      12    H8      20.581583   17.973812   22.866928 H          1 MOL1         0.0976
      13    H9      21.476004   19.468338   23.088651 H          1 MOL1         0.0976
      14    C4      20.646806   19.263884   21.102661 C.3        1 MOL1        -0.1375
      15    H10     20.175527   20.217173   20.826383 H          1 MOL1         0.0976
      16    H11     21.705210   19.366404   20.825599 H          1 MOL1         0.0976
      17    C5      20.053396   18.110020   20.254327 C.3        1 MOL1        -0.1350
      18    H12     20.600215   17.180023   20.463777 H          1 MOL1         0.0976
      19    H13     20.228383   18.332580   19.192414 H          1 MOL1         0.0976
      20    C6      18.542129   17.874461   20.467903 C.3        1 MOL1        -0.2365
      21    H14     17.972183   18.801278   20.322957 H          1 MOL1         0.0987
      22    H15     18.336833   17.490632   21.474781 H          1 MOL1         0.0987
      23    H16     18.164788   17.133060   19.751784 H          1 MOL1         0.0987
@<TRIPOS>BOND
    1     1     2    1
    2     1     3    1
    3     1     4    1
    4     1     5    1
    5     5     6    1
    6     5     7    1
    7     5     8    1
    8     8     9    1
    9     8    10    1
   10     8    11    1
   11    11    12    1
   12    11    13    1
   13    11    14    1
   14    14    15    1
   15    14    16    1
   16    14    17    1
   17    17    18    1
   18    17    19    1
   19    17    20    1
   20    20    21    1
   21    20    22    1
   22    20    23    1
@<TRIPOS>SUBSTRUCTURE
       1 MOL1            1 RESIDUE      1      MOL     
@<SCITEGIC>MOL_PROPERTY
VConf Rank
SciTegic.value.IntegerValue
616

@<SCITEGIC>MOL_PROPERTY
Conf_Id
SciTegic.value.IntegerValue
55

@<SCITEGIC>MOL_PROPERTY
Delta U+W
SciTegic.value.DoubleValue
3.232

@<SCITEGIC>MOL_PROPERTY
U+W
SciTegic.value.DoubleValue
-5.150

@<SCITEGIC>MOL_PROPERTY
Grad RMS
SciTegic.value.DoubleValue
0.000000

@<SCITEGIC>MOL_PROPERTY
U
SciTegic.value.DoubleValue
50.625

@<SCITEGIC>MOL_PROPERTY
W
SciTegic.value.DoubleValue
-55.776

@<SCITEGIC>MOL_PROPERTY
W(PB)
SciTegic.value.DoubleValue
-57.839

@<SCITEGIC>MOL_PROPERTY
W(SA)
SciTegic.value.DoubleValue
2.064

@<SCITEGIC>MOL_PROPERTY
Valence
SciTegic.value.DoubleValue
4.837

@<SCITEGIC>MOL_PROPERTY
Coulomb
SciTegic.value.DoubleValue
45.097

@<SCITEGIC>MOL_PROPERTY
VdW
SciTegic.value.DoubleValue
0.692

@<SCITEGIC>MOL_PROPERTY
VdW6
SciTegic.value.DoubleValue
-6.655

@<SCITEGIC>MOL_PROPERTY
VdW12
SciTegic.value.DoubleValue
7.347

@<SCITEGIC>MOL_PROPERTY
Bond
SciTegic.value.DoubleValue
0.223

@<SCITEGIC>MOL_PROPERTY
Angle
SciTegic.value.DoubleValue
1.167

@<SCITEGIC>MOL_PROPERTY
Pdih
SciTegic.value.DoubleValue
3.447

@<SCITEGIC>MOL_PROPERTY
Idih
SciTegic.value.DoubleValue
0.000

@<SCITEGIC>MOL_PROPERTY
Tether
SciTegic.value.DoubleValue
0.000

@<TRIPOS>MOLECULE
guest-2_confgen4.mol2 : confsearch ligand conformer 617
          23          22           1
SMALL
USER_CHARGES
 
@<TRIPOS>ATOM
       1    N1      17.748486   21.046968   23.758260 N.4        1 MOL1        -0.5940
       2    H1      16.891149   20.736596   24.226737 H          1 MOL1         0.3649
       3    H2      17.515123   21.906362   23.249357 H          1 MOL1         0.3649
       4    H3      18.415576   21.306736   24.491928 H          1 MOL1         0.3649
       5    C1      18.306817   19.981093   22.837486 C.3        1 MOL1         0.0207
       6    H4      19.191912   20.392766   22.349150 H          1 MOL1         0.0950
       7    H5      17.557706   19.775873   22.067993 H          1 MOL1         0.0950
       8    C2      18.660635   18.674031   23.573819 C.3        1 MOL1        -0.1415
       9    H6      19.378119   18.872292   24.381144 H          1 MOL1         0.0976
      10    H7      17.748478   18.297186   24.055458 H          1 MOL1         0.0976
      11    C3      19.210161   17.574120   22.630591 C.3        1 MOL1        -0.1375
      12    H8      18.680467   17.604428   21.668245 H          1 MOL1         0.0976
      13    H9      18.970532   16.596096   23.070529 H          1 MOL1         0.0976
      14    C4      20.742818   17.618089   22.397135 C.3        1 MOL1        -0.1375
      15    H10     21.262999   17.481830   23.355330 H          1 MOL1         0.0976
      16    H11     21.018503   16.754606   21.775978 H          1 MOL1         0.0976
      17    C5      21.253802   18.908319   21.715444 C.3        1 MOL1        -0.1350
      18    H12     21.127897   19.763612   22.391858 H          1 MOL1         0.0976
      19    H13     20.660568   19.115013   20.813762 H          1 MOL1         0.0976
      20    C6      22.745096   18.797592   21.332742 C.3        1 MOL1        -0.2365
      21    H14     22.911544   17.976077   20.623782 H          1 MOL1         0.0987
      22    H15     23.367338   18.615999   22.218795 H          1 MOL1         0.0987
      23    H16     23.093910   19.725105   20.860430 H          1 MOL1         0.0987
@<TRIPOS>BOND
    1     1     2    1
    2     1     3    1
    3     1     4    1
    4     1     5    1
    5     5     6    1
    6     5     7    1
    7     5     8    1
    8     8     9    1
    9     8    10    1
   10     8    11    1
   11    11    12    1
   12    11    13    1
   13    11    14    1
   14    14    15    1
   15    14    16    1
   16    14    17    1
   17    17    18    1
   18    17    19    1
   19    17    20    1
   20    20    21    1
   21    20    22    1
   22    20    23    1
@<TRIPOS>SUBSTRUCTURE
       1 MOL1            1 RESIDUE      1      MOL     
@<SCITEGIC>MOL_PROPERTY
VConf Rank
SciTegic.value.IntegerValue
617

@<SCITEGIC>MOL_PROPERTY
Conf_Id
SciTegic.value.IntegerValue
93

@<SCITEGIC>MOL_PROPERTY
Delta U+W
SciTegic.value.DoubleValue
2.589

@<SCITEGIC>MOL_PROPERTY
U+W
SciTegic.value.DoubleValue
-5.793

@<SCITEGIC>MOL_PROPERTY
Grad RMS
SciTegic.value.DoubleValue
0.000000

@<SCITEGIC>MOL_PROPERTY
U
SciTegic.value.DoubleValue
50.122

@<SCITEGIC>MOL_PROPERTY
W
SciTegic.value.DoubleValue
-55.915

@<SCITEGIC>MOL_PROPERTY
W(PB)
SciTegic.value.DoubleValue
-58.031

@<SCITEGIC>MOL_PROPERTY
W(SA)
SciTegic.value.DoubleValue
2.115

@<SCITEGIC>MOL_PROPERTY
Valence
SciTegic.value.DoubleValue
4.132

@<SCITEGIC>MOL_PROPERTY
Coulomb
SciTegic.value.DoubleValue
45.536

@<SCITEGIC>MOL_PROPERTY
VdW
SciTegic.value.DoubleValue
0.454

@<SCITEGIC>MOL_PROPERTY
VdW6
SciTegic.value.DoubleValue
-6.262

@<SCITEGIC>MOL_PROPERTY
VdW12
SciTegic.value.DoubleValue
6.715

@<SCITEGIC>MOL_PROPERTY
Bond
SciTegic.value.DoubleValue
0.182

@<SCITEGIC>MOL_PROPERTY
Angle
SciTegic.value.DoubleValue
1.157

@<SCITEGIC>MOL_PROPERTY
Pdih
SciTegic.value.DoubleValue
2.794

@<SCITEGIC>MOL_PROPERTY
Idih
SciTegic.value.DoubleValue
0.000

@<SCITEGIC>MOL_PROPERTY
Tether
SciTegic.value.DoubleValue
0.000

@<TRIPOS>MOLECULE
guest-2_confgen4.mol2 : confsearch ligand conformer 618
          23          22           1
SMALL
USER_CHARGES
 
@<TRIPOS>ATOM
       1    N1      22.014490   21.063077   22.253176 N.4        1 MOL1        -0.5940
       2    H1      21.449548   21.754402   22.756827 H          1 MOL1         0.3649
       3    H2      22.225120   21.463477   21.332679 H          1 MOL1         0.3649
       4    H3      22.905824   20.980769   22.752754 H          1 MOL1         0.3649
       5    C1      21.305868   19.728800   22.138253 C.3        1 MOL1         0.0207
       6    H4      21.950402   19.054089   21.568395 H          1 MOL1         0.0950
       7    H5      20.389131   19.886350   21.567192 H          1 MOL1         0.0950
       8    C2      20.982398   19.098628   23.507208 C.3        1 MOL1        -0.1415
       9    H6      21.926760   18.963266   24.051154 H          1 MOL1         0.0976
      10    H7      20.373342   19.785459   24.109850 H          1 MOL1         0.0976
      11    C3      20.278385   17.722891   23.392433 C.3        1 MOL1        -0.1375
      12    H8      20.523865   17.137827   24.289616 H          1 MOL1         0.0976
      13    H9      20.693229   17.157185   22.546569 H          1 MOL1         0.0976
      14    C4      18.732452   17.785866   23.284722 C.3        1 MOL1        -0.1375
      15    H10     18.348173   16.756420   23.281563 H          1 MOL1         0.0976
      16    H11     18.321845   18.260942   24.186385 H          1 MOL1         0.0976
      17    C5      18.203467   18.521232   22.031760 C.3        1 MOL1        -0.1350
      18    H12     18.696303   18.128246   21.131565 H          1 MOL1         0.0976
      19    H13     18.445166   19.590070   22.095650 H          1 MOL1         0.0976
      20    C6      16.674324   18.369266   21.885782 C.3        1 MOL1        -0.2365
      21    H14     16.314485   18.905910   20.998337 H          1 MOL1         0.0987
      22    H15     16.151995   18.777163   22.761020 H          1 MOL1         0.0987
      23    H16     16.390126   17.314266   21.778911 H          1 MOL1         0.0987
@<TRIPOS>BOND
    1     1     2    1
    2     1     3    1
    3     1     4    1
    4     1     5    1
    5     5     6    1
    6     5     7    1
    7     5     8    1
    8     8     9    1
    9     8    10    1
   10     8    11    1
   11    11    12    1
   12    11    13    1
   13    11    14    1
   14    14    15    1
   15    14    16    1
   16    14    17    1
   17    17    18    1
   18    17    19    1
   19    17    20    1
   20    20    21    1
   21    20    22    1
   22    20    23    1
@<TRIPOS>SUBSTRUCTURE
       1 MOL1            1 RESIDUE      1      MOL     
@<SCITEGIC>MOL_PROPERTY
VConf Rank
SciTegic.value.IntegerValue
618

@<SCITEGIC>MOL_PROPERTY
Conf_Id
SciTegic.value.IntegerValue
70

@<SCITEGIC>MOL_PROPERTY
Delta U+W
SciTegic.value.DoubleValue
2.599

@<SCITEGIC>MOL_PROPERTY
U+W
SciTegic.value.DoubleValue
-5.783

@<SCITEGIC>MOL_PROPERTY
Grad RMS
SciTegic.value.DoubleValue
0.000000

@<SCITEGIC>MOL_PROPERTY
U
SciTegic.value.DoubleValue
50.122

@<SCITEGIC>MOL_PROPERTY
W
SciTegic.value.DoubleValue
-55.906

@<SCITEGIC>MOL_PROPERTY
W(PB)
SciTegic.value.DoubleValue
-58.010

@<SCITEGIC>MOL_PROPERTY
W(SA)
SciTegic.value.DoubleValue
2.105

@<SCITEGIC>MOL_PROPERTY
Valence
SciTegic.value.DoubleValue
4.132

@<SCITEGIC>MOL_PROPERTY
Coulomb
SciTegic.value.DoubleValue
45.536

@<SCITEGIC>MOL_PROPERTY
VdW
SciTegic.value.DoubleValue
0.454

@<SCITEGIC>MOL_PROPERTY
VdW6
SciTegic.value.DoubleValue
-6.262

@<SCITEGIC>MOL_PROPERTY
VdW12
SciTegic.value.DoubleValue
6.715

@<SCITEGIC>MOL_PROPERTY
Bond
SciTegic.value.DoubleValue
0.182

@<SCITEGIC>MOL_PROPERTY
Angle
SciTegic.value.DoubleValue
1.157

@<SCITEGIC>MOL_PROPERTY
Pdih
SciTegic.value.DoubleValue
2.794

@<SCITEGIC>MOL_PROPERTY
Idih
SciTegic.value.DoubleValue
0.000

@<SCITEGIC>MOL_PROPERTY
Tether
SciTegic.value.DoubleValue
0.000

@<TRIPOS>MOLECULE
guest-2_confgen4.mol2 : confsearch ligand conformer 619
          23          22           1
SMALL
USER_CHARGES
 
@<TRIPOS>ATOM
       1    N1      19.890523   19.997692   19.931170 N.4        1 MOL1        -0.5940
       2    H1      20.231616   19.473558   19.119107 H          1 MOL1         0.3649
       3    H2      19.793562   20.975401   19.637150 H          1 MOL1         0.3649
       4    H3      18.949589   19.651531   20.141601 H          1 MOL1         0.3649
       5    C1      20.817852   19.856374   21.122104 C.3        1 MOL1         0.0207
       6    H4      20.417043   20.462730   21.938579 H          1 MOL1         0.0950
       7    H5      21.789831   20.268886   20.838228 H          1 MOL1         0.0950
       8    C2      20.997897   18.399966   21.595647 C.3        1 MOL1        -0.1415
       9    H6      21.432953   17.808309   20.779325 H          1 MOL1         0.0976
      10    H7      21.737652   18.379916   22.406065 H          1 MOL1         0.0976
      11    C3      19.684373   17.724638   22.070613 C.3        1 MOL1        -0.1375
      12    H8      19.915788   16.710641   22.424818 H          1 MOL1         0.0976
      13    H9      19.013955   17.592275   21.210815 H          1 MOL1         0.0976
      14    C4      18.923508   18.488341   23.185351 C.3        1 MOL1        -0.1375
      15    H10     18.600957   19.471069   22.816437 H          1 MOL1         0.0976
      16    H11     18.002732   17.935385   23.417186 H          1 MOL1         0.0976
      17    C5      19.744109   18.663839   24.484854 C.3        1 MOL1        -0.1350
      18    H12     20.635206   19.275496   24.290537 H          1 MOL1         0.0976
      19    H13     20.099600   17.684418   24.834244 H          1 MOL1         0.0976
      20    C6      18.910628   19.333030   25.598352 C.3        1 MOL1        -0.2365
      21    H14     19.508253   19.452106   26.511412 H          1 MOL1         0.0987
      22    H15     18.029179   18.728751   25.849525 H          1 MOL1         0.0987
      23    H16     18.566008   20.328403   25.289043 H          1 MOL1         0.0987
@<TRIPOS>BOND
    1     1     2    1
    2     1     3    1
    3     1     4    1
    4     1     5    1
    5     5     6    1
    6     5     7    1
    7     5     8    1
    8     8     9    1
    9     8    10    1
   10     8    11    1
   11    11    12    1
   12    11    13    1
   13    11    14    1
   14    14    15    1
   15    14    16    1
   16    14    17    1
   17    17    18    1
   18    17    19    1
   19    17    20    1
   20    20    21    1
   21    20    22    1
   22    20    23    1
@<TRIPOS>SUBSTRUCTURE
       1 MOL1            1 RESIDUE      1      MOL     
@<SCITEGIC>MOL_PROPERTY
VConf Rank
SciTegic.value.IntegerValue
619

@<SCITEGIC>MOL_PROPERTY
Conf_Id
SciTegic.value.IntegerValue
72

@<SCITEGIC>MOL_PROPERTY
Delta U+W
SciTegic.value.DoubleValue
1.051

@<SCITEGIC>MOL_PROPERTY
U+W
SciTegic.value.DoubleValue
-7.331

@<SCITEGIC>MOL_PROPERTY
Grad RMS
SciTegic.value.DoubleValue
0.000000

@<SCITEGIC>MOL_PROPERTY
U
SciTegic.value.DoubleValue
48.590

@<SCITEGIC>MOL_PROPERTY
W
SciTegic.value.DoubleValue
-55.922

@<SCITEGIC>MOL_PROPERTY
W(PB)
SciTegic.value.DoubleValue
-58.012

@<SCITEGIC>MOL_PROPERTY
W(SA)
SciTegic.value.DoubleValue
2.090

@<SCITEGIC>MOL_PROPERTY
Valence
SciTegic.value.DoubleValue
2.601

@<SCITEGIC>MOL_PROPERTY
Coulomb
SciTegic.value.DoubleValue
45.520

@<SCITEGIC>MOL_PROPERTY
VdW
SciTegic.value.DoubleValue
0.469

@<SCITEGIC>MOL_PROPERTY
VdW6
SciTegic.value.DoubleValue
-6.867

@<SCITEGIC>MOL_PROPERTY
VdW12
SciTegic.value.DoubleValue
7.336

@<SCITEGIC>MOL_PROPERTY
Bond
SciTegic.value.DoubleValue
0.205

@<SCITEGIC>MOL_PROPERTY
Angle
SciTegic.value.DoubleValue
0.962

@<SCITEGIC>MOL_PROPERTY
Pdih
SciTegic.value.DoubleValue
1.434

@<SCITEGIC>MOL_PROPERTY
Idih
SciTegic.value.DoubleValue
0.000

@<SCITEGIC>MOL_PROPERTY
Tether
SciTegic.value.DoubleValue
0.000

@<TRIPOS>MOLECULE
guest-2_confgen4.mol2 : confsearch ligand conformer 620
          23          22           1
SMALL
USER_CHARGES
 
@<TRIPOS>ATOM
       1    N1      20.974100   17.251737   24.933843 N.4        1 MOL1        -0.5940
       2    H1      21.683408   17.498823   25.632260 H          1 MOL1         0.3649
       3    H2      21.101812   16.257628   24.718850 H          1 MOL1         0.3649
       4    H3      20.060981   17.346844   25.389727 H          1 MOL1         0.3649
       5    C1      21.080150   18.115994   23.693902 C.3        1 MOL1         0.0207
       6    H4      22.082985   17.988254   23.277544 H          1 MOL1         0.0950
       7    H5      20.964974   19.158910   24.000484 H          1 MOL1         0.0950
       8    C2      20.027435   17.769851   22.624419 C.3        1 MOL1        -0.1415
       9    H6      20.127670   16.711089   22.351099 H          1 MOL1         0.0976
      10    H7      19.020423   17.885225   23.045189 H          1 MOL1         0.0976
      11    C3      20.169076   18.631868   21.345386 C.3        1 MOL1        -0.1375
      12    H8      19.407537   18.321928   20.617412 H          1 MOL1         0.0976
      13    H9      21.136445   18.410351   20.873751 H          1 MOL1         0.0976
      14    C4      20.071399   20.163883   21.578084 C.3        1 MOL1        -0.1375
      15    H10     20.931797   20.498120   22.173317 H          1 MOL1         0.0976
      16    H11     20.168276   20.672407   20.608966 H          1 MOL1         0.0976
      17    C5      18.768587   20.644556   22.266454 C.3        1 MOL1        -0.1350
      18    H12     18.819113   21.735536   22.388519 H          1 MOL1         0.0976
      19    H13     18.700797   20.231590   23.281827 H          1 MOL1         0.0976
      20    C6      17.490078   20.291694   21.473094 C.3        1 MOL1        -0.2365
      21    H14     17.540521   20.684036   20.449149 H          1 MOL1         0.0987
      22    H15     16.605400   20.726304   21.956106 H          1 MOL1         0.0987
      23    H16     17.337200   19.206714   21.418288 H          1 MOL1         0.0987
@<TRIPOS>BOND
    1     1     2    1
    2     1     3    1
    3     1     4    1
    4     1     5    1
    5     5     6    1
    6     5     7    1
    7     5     8    1
    8     8     9    1
    9     8    10    1
   10     8    11    1
   11    11    12    1
   12    11    13    1
   13    11    14    1
   14    14    15    1
   15    14    16    1
   16    14    17    1
   17    17    18    1
   18    17    19    1
   19    17    20    1
   20    20    21    1
   21    20    22    1
   22    20    23    1
@<TRIPOS>SUBSTRUCTURE
       1 MOL1            1 RESIDUE      1      MOL     
@<SCITEGIC>MOL_PROPERTY
VConf Rank
SciTegic.value.IntegerValue
620

@<SCITEGIC>MOL_PROPERTY
Conf_Id
SciTegic.value.IntegerValue
26

@<SCITEGIC>MOL_PROPERTY
Delta U+W
SciTegic.value.DoubleValue
1.076

@<SCITEGIC>MOL_PROPERTY
U+W
SciTegic.value.DoubleValue
-7.306

@<SCITEGIC>MOL_PROPERTY
Grad RMS
SciTegic.value.DoubleValue
0.000000

@<SCITEGIC>MOL_PROPERTY
U
SciTegic.value.DoubleValue
48.641

@<SCITEGIC>MOL_PROPERTY
W
SciTegic.value.DoubleValue
-55.947

@<SCITEGIC>MOL_PROPERTY
W(PB)
SciTegic.value.DoubleValue
-58.031

@<SCITEGIC>MOL_PROPERTY
W(SA)
SciTegic.value.DoubleValue
2.084

@<SCITEGIC>MOL_PROPERTY
Valence
SciTegic.value.DoubleValue
2.922

@<SCITEGIC>MOL_PROPERTY
Coulomb
SciTegic.value.DoubleValue
45.269

@<SCITEGIC>MOL_PROPERTY
VdW
SciTegic.value.DoubleValue
0.449

@<SCITEGIC>MOL_PROPERTY
VdW6
SciTegic.value.DoubleValue
-7.045

@<SCITEGIC>MOL_PROPERTY
VdW12
SciTegic.value.DoubleValue
7.494

@<SCITEGIC>MOL_PROPERTY
Bond
SciTegic.value.DoubleValue
0.220

@<SCITEGIC>MOL_PROPERTY
Angle
SciTegic.value.DoubleValue
1.205

@<SCITEGIC>MOL_PROPERTY
Pdih
SciTegic.value.DoubleValue
1.497

@<SCITEGIC>MOL_PROPERTY
Idih
SciTegic.value.DoubleValue
0.000

@<SCITEGIC>MOL_PROPERTY
Tether
SciTegic.value.DoubleValue
0.000

@<TRIPOS>MOLECULE
guest-2_confgen4.mol2 : confsearch ligand conformer 621
          23          22           1
SMALL
USER_CHARGES
 
@<TRIPOS>ATOM
       1    N1      20.541946   16.622191   20.699005 N.4        1 MOL1        -0.5940
       2    H1      20.315581   15.688786   21.057190 H          1 MOL1         0.3649
       3    H2      21.336628   16.511289   20.060147 H          1 MOL1         0.3649
       4    H3      19.744745   16.929434   20.132670 H          1 MOL1         0.3649
       5    C1      20.850580   17.596812   21.817260 C.3        1 MOL1         0.0207
       6    H4      21.111037   18.556776   21.363868 H          1 MOL1         0.0950
       7    H5      21.723731   17.223873   22.359360 H          1 MOL1         0.0950
       8    C2      19.675880   17.786047   22.795058 C.3        1 MOL1        -0.1415
       9    H6      18.794933   18.148004   22.249758 H          1 MOL1         0.0976
      10    H7      19.398269   16.810679   23.216151 H          1 MOL1         0.0976
      11    C3      20.014665   18.753643   23.956111 C.3        1 MOL1        -0.1375
      12    H8      20.819500   18.313655   24.561060 H          1 MOL1         0.0976
      13    H9      19.147897   18.827599   24.626331 H          1 MOL1         0.0976
      14    C4      20.450453   20.176324   23.512463 C.3        1 MOL1        -0.1375
      15    H10     20.648983   20.777895   24.410163 H          1 MOL1         0.0976
      16    H11     21.409684   20.114984   22.981035 H          1 MOL1         0.0976
      17    C5      19.430962   20.930322   22.621200 C.3        1 MOL1        -0.1350
      18    H12     19.294784   20.401044   21.668604 H          1 MOL1         0.0976
      19    H13     19.851346   21.912068   22.362078 H          1 MOL1         0.0976
      20    C6      18.059573   21.140682   23.302051 C.3        1 MOL1        -0.2365
      21    H14     17.549292   20.186387   23.482314 H          1 MOL1         0.0987
      22    H15     17.404517   21.751170   22.667191 H          1 MOL1         0.0987
      23    H16     18.171991   21.657600   24.263872 H          1 MOL1         0.0987
@<TRIPOS>BOND
    1     1     2    1
    2     1     3    1
    3     1     4    1
    4     1     5    1
    5     5     6    1
    6     5     7    1
    7     5     8    1
    8     8     9    1
    9     8    10    1
   10     8    11    1
   11    11    12    1
   12    11    13    1
   13    11    14    1
   14    14    15    1
   15    14    16    1
   16    14    17    1
   17    17    18    1
   18    17    19    1
   19    17    20    1
   20    20    21    1
   21    20    22    1
   22    20    23    1
@<TRIPOS>SUBSTRUCTURE
       1 MOL1            1 RESIDUE      1      MOL     
@<SCITEGIC>MOL_PROPERTY
VConf Rank
SciTegic.value.IntegerValue
621

@<SCITEGIC>MOL_PROPERTY
Conf_Id
SciTegic.value.IntegerValue
90

@<SCITEGIC>MOL_PROPERTY
Delta U+W
SciTegic.value.DoubleValue
1.131

@<SCITEGIC>MOL_PROPERTY
U+W
SciTegic.value.DoubleValue
-7.251

@<SCITEGIC>MOL_PROPERTY
Grad RMS
SciTegic.value.DoubleValue
0.000000

@<SCITEGIC>MOL_PROPERTY
U
SciTegic.value.DoubleValue
48.641

@<SCITEGIC>MOL_PROPERTY
W
SciTegic.value.DoubleValue
-55.892

@<SCITEGIC>MOL_PROPERTY
W(PB)
SciTegic.value.DoubleValue
-57.962

@<SCITEGIC>MOL_PROPERTY
W(SA)
SciTegic.value.DoubleValue
2.070

@<SCITEGIC>MOL_PROPERTY
Valence
SciTegic.value.DoubleValue
2.922

@<SCITEGIC>MOL_PROPERTY
Coulomb
SciTegic.value.DoubleValue
45.269

@<SCITEGIC>MOL_PROPERTY
VdW
SciTegic.value.DoubleValue
0.450

@<SCITEGIC>MOL_PROPERTY
VdW6
SciTegic.value.DoubleValue
-7.045

@<SCITEGIC>MOL_PROPERTY
VdW12
SciTegic.value.DoubleValue
7.495

@<SCITEGIC>MOL_PROPERTY
Bond
SciTegic.value.DoubleValue
0.220

@<SCITEGIC>MOL_PROPERTY
Angle
SciTegic.value.DoubleValue
1.205

@<SCITEGIC>MOL_PROPERTY
Pdih
SciTegic.value.DoubleValue
1.497

@<SCITEGIC>MOL_PROPERTY
Idih
SciTegic.value.DoubleValue
0.000

@<SCITEGIC>MOL_PROPERTY
Tether
SciTegic.value.DoubleValue
0.000

@<TRIPOS>MOLECULE
guest-2_confgen4.mol2 : confsearch ligand conformer 622
          23          22           1
SMALL
USER_CHARGES
 
@<TRIPOS>ATOM
       1    N1      21.515444   17.128011   23.471870 N.4        1 MOL1        -0.5940
       2    H1      22.173847   17.045279   24.253863 H          1 MOL1         0.3649
       3    H2      21.746176   17.993161   22.973973 H          1 MOL1         0.3649
       4    H3      21.709279   16.349461   22.834014 H          1 MOL1         0.3649
       5    C1      20.075176   17.122683   23.945150 C.3        1 MOL1         0.0207
       6    H4      19.944329   17.954601   24.641935 H          1 MOL1         0.0950
       7    H5      19.908399   16.191746   24.493841 H          1 MOL1         0.0950
       8    C2      19.046548   17.233742   22.801262 C.3        1 MOL1        -0.1415
       9    H6      19.155800   16.368514   22.134003 H          1 MOL1         0.0976
      10    H7      18.036980   17.165218   23.227781 H          1 MOL1         0.0976
      11    C3      19.164077   18.537894   21.973036 C.3        1 MOL1        -0.1375
      12    H8      18.405296   18.517570   21.178714 H          1 MOL1         0.0976
      13    H9      20.136931   18.563078   21.466060 H          1 MOL1         0.0976
      14    C4      18.972475   19.817532   22.825849 C.3        1 MOL1        -0.1375
      15    H10     18.033729   19.734335   23.390740 H          1 MOL1         0.0976
      16    H11     19.775425   19.900655   23.570357 H          1 MOL1         0.0976
      17    C5      18.925844   21.114992   21.983342 C.3        1 MOL1        -0.1350
      18    H12     18.682012   21.957245   22.645905 H          1 MOL1         0.0976
      19    H13     18.108746   21.054013   21.250940 H          1 MOL1         0.0976
      20    C6      20.254618   21.421988   21.255847 C.3        1 MOL1        -0.2365
      21    H14     21.092557   21.462060   21.963794 H          1 MOL1         0.0987
      22    H15     20.198431   22.393380   20.747737 H          1 MOL1         0.0987
      23    H16     20.482130   20.665246   20.494932 H          1 MOL1         0.0987
@<TRIPOS>BOND
    1     1     2    1
    2     1     3    1
    3     1     4    1
    4     1     5    1
    5     5     6    1
    6     5     7    1
    7     5     8    1
    8     8     9    1
    9     8    10    1
   10     8    11    1
   11    11    12    1
   12    11    13    1
   13    11    14    1
   14    14    15    1
   15    14    16    1
   16    14    17    1
   17    17    18    1
   18    17    19    1
   19    17    20    1
   20    20    21    1
   21    20    22    1
   22    20    23    1
@<TRIPOS>SUBSTRUCTURE
       1 MOL1            1 RESIDUE      1      MOL     
@<SCITEGIC>MOL_PROPERTY
VConf Rank
SciTegic.value.IntegerValue
622

@<SCITEGIC>MOL_PROPERTY
Conf_Id
SciTegic.value.IntegerValue
85

@<SCITEGIC>MOL_PROPERTY
Delta U+W
SciTegic.value.DoubleValue
1.193

@<SCITEGIC>MOL_PROPERTY
U+W
SciTegic.value.DoubleValue
-7.189

@<SCITEGIC>MOL_PROPERTY
Grad RMS
SciTegic.value.DoubleValue
0.000000

@<SCITEGIC>MOL_PROPERTY
U
SciTegic.value.DoubleValue
48.775

@<SCITEGIC>MOL_PROPERTY
W
SciTegic.value.DoubleValue
-55.965

@<SCITEGIC>MOL_PROPERTY
W(PB)
SciTegic.value.DoubleValue
-58.038

@<SCITEGIC>MOL_PROPERTY
W(SA)
SciTegic.value.DoubleValue
2.073

@<SCITEGIC>MOL_PROPERTY
Valence
SciTegic.value.DoubleValue
2.602

@<SCITEGIC>MOL_PROPERTY
Coulomb
SciTegic.value.DoubleValue
45.581

@<SCITEGIC>MOL_PROPERTY
VdW
SciTegic.value.DoubleValue
0.592

@<SCITEGIC>MOL_PROPERTY
VdW6
SciTegic.value.DoubleValue
-6.616

@<SCITEGIC>MOL_PROPERTY
VdW12
SciTegic.value.DoubleValue
7.208

@<SCITEGIC>MOL_PROPERTY
Bond
SciTegic.value.DoubleValue
0.196

@<SCITEGIC>MOL_PROPERTY
Angle
SciTegic.value.DoubleValue
0.832

@<SCITEGIC>MOL_PROPERTY
Pdih
SciTegic.value.DoubleValue
1.574

@<SCITEGIC>MOL_PROPERTY
Idih
SciTegic.value.DoubleValue
0.000

@<SCITEGIC>MOL_PROPERTY
Tether
SciTegic.value.DoubleValue
0.000

@<TRIPOS>MOLECULE
guest-2_confgen4.mol2 : confsearch ligand conformer 623
          23          22           1
SMALL
USER_CHARGES
 
@<TRIPOS>ATOM
       1    N1      21.688515   18.274806   22.449754 N.4        1 MOL1        -0.5940
       2    H1      21.128079   18.808271   23.122061 H          1 MOL1         0.3649
       3    H2      22.577097   18.772412   22.326816 H          1 MOL1         0.3649
       4    H3      21.909156   17.372335   22.883203 H          1 MOL1         0.3649
       5    C1      20.954184   18.100609   21.134430 C.3        1 MOL1         0.0207
       6    H4      21.610636   17.525200   20.476033 H          1 MOL1         0.0950
       7    H5      20.801958   19.085504   20.685057 H          1 MOL1         0.0950
       8    C2      19.602800   17.368471   21.262709 C.3        1 MOL1        -0.1415
       9    H6      19.356667   16.947516   20.278812 H          1 MOL1         0.0976
      10    H7      19.709325   16.508328   21.937007 H          1 MOL1         0.0976
      11    C3      18.409371   18.254494   21.710817 C.3        1 MOL1        -0.1375
      12    H8      17.510677   17.622181   21.704931 H          1 MOL1         0.0976
      13    H9      18.221961   19.037418   20.962901 H          1 MOL1         0.0976
      14    C4      18.543712   18.884181   23.121032 C.3        1 MOL1        -0.1375
      15    H10     17.550452   18.902489   23.590965 H          1 MOL1         0.0976
      16    H11     19.162810   18.244949   23.764324 H          1 MOL1         0.0976
      17    C5      19.081985   20.335561   23.091709 C.3        1 MOL1        -0.1350
      18    H12     18.353045   20.981826   22.582668 H          1 MOL1         0.0976
      19    H13     20.006035   20.402817   22.505291 H          1 MOL1         0.0976
      20    C6      19.334983   20.879214   24.513771 C.3        1 MOL1        -0.2365
      21    H14     18.411530   20.873229   25.107545 H          1 MOL1         0.0987
      22    H15     19.701568   21.913231   24.473713 H          1 MOL1         0.0987
      23    H16     20.084258   20.276798   25.043345 H          1 MOL1         0.0987
@<TRIPOS>BOND
    1     1     2    1
    2     1     3    1
    3     1     4    1
    4     1     5    1
    5     5     6    1
    6     5     7    1
    7     5     8    1
    8     8     9    1
    9     8    10    1
   10     8    11    1
   11    11    12    1
   12    11    13    1
   13    11    14    1
   14    14    15    1
   15    14    16    1
   16    14    17    1
   17    17    18    1
   18    17    19    1
   19    17    20    1
   20    20    21    1
   21    20    22    1
   22    20    23    1
@<TRIPOS>SUBSTRUCTURE
       1 MOL1            1 RESIDUE      1      MOL     
@<SCITEGIC>MOL_PROPERTY
VConf Rank
SciTegic.value.IntegerValue
623

@<SCITEGIC>MOL_PROPERTY
Conf_Id
SciTegic.value.IntegerValue
82

@<SCITEGIC>MOL_PROPERTY
Delta U+W
SciTegic.value.DoubleValue
5.994

@<SCITEGIC>MOL_PROPERTY
U+W
SciTegic.value.DoubleValue
-2.388

@<SCITEGIC>MOL_PROPERTY
Grad RMS
SciTegic.value.DoubleValue
0.000000

@<SCITEGIC>MOL_PROPERTY
U
SciTegic.value.DoubleValue
52.836

@<SCITEGIC>MOL_PROPERTY
W
SciTegic.value.DoubleValue
-55.224

@<SCITEGIC>MOL_PROPERTY
W(PB)
SciTegic.value.DoubleValue
-57.261

@<SCITEGIC>MOL_PROPERTY
W(SA)
SciTegic.value.DoubleValue
2.037

@<SCITEGIC>MOL_PROPERTY
Valence
SciTegic.value.DoubleValue
5.785

@<SCITEGIC>MOL_PROPERTY
Coulomb
SciTegic.value.DoubleValue
46.744

@<SCITEGIC>MOL_PROPERTY
VdW
SciTegic.value.DoubleValue
0.307

@<SCITEGIC>MOL_PROPERTY
VdW6
SciTegic.value.DoubleValue
-7.672

@<SCITEGIC>MOL_PROPERTY
VdW12
SciTegic.value.DoubleValue
7.979

@<SCITEGIC>MOL_PROPERTY
Bond
SciTegic.value.DoubleValue
0.217

@<SCITEGIC>MOL_PROPERTY
Angle
SciTegic.value.DoubleValue
1.470

@<SCITEGIC>MOL_PROPERTY
Pdih
SciTegic.value.DoubleValue
4.098

@<SCITEGIC>MOL_PROPERTY
Idih
SciTegic.value.DoubleValue
0.000

@<SCITEGIC>MOL_PROPERTY
Tether
SciTegic.value.DoubleValue
0.000

@<TRIPOS>MOLECULE
guest-2_confgen4.mol2 : confsearch ligand conformer 624
          23          22           1
SMALL
USER_CHARGES
 
@<TRIPOS>ATOM
       1    N1      18.566696   20.587557   22.767075 N.4        1 MOL1        -0.5940
       2    H1      17.635962   20.500014   22.346258 H          1 MOL1         0.3649
       3    H2      18.514563   21.349694   23.451714 H          1 MOL1         0.3649
       4    H3      18.751299   19.722036   23.284249 H          1 MOL1         0.3649
       5    C1      19.633685   20.843180   21.720248 C.3        1 MOL1         0.0207
       6    H4      20.591506   20.992822   22.225533 H          1 MOL1         0.0950
       7    H5      19.367823   21.775327   21.214353 H          1 MOL1         0.0950
       8    C2      19.764450   19.720558   20.670801 C.3        1 MOL1        -0.1415
       9    H6      18.766136   19.392584   20.351938 H          1 MOL1         0.0976
      10    H7      20.236101   20.151849   19.777845 H          1 MOL1         0.0976
      11    C3      20.613570   18.497789   21.111195 C.3        1 MOL1        -0.1375
      12    H8      21.649610   18.810017   21.302517 H          1 MOL1         0.0976
      13    H9      20.667706   17.810421   20.255567 H          1 MOL1         0.0976
      14    C4      20.060435   17.709191   22.325862 C.3        1 MOL1        -0.1375
      15    H10     18.966715   17.796789   22.368626 H          1 MOL1         0.0976
      16    H11     20.265316   16.640695   22.170689 H          1 MOL1         0.0976
      17    C5      20.707218   18.126512   23.669223 C.3        1 MOL1        -0.1350
      18    H12     20.661053   19.212987   23.809663 H          1 MOL1         0.0976
      19    H13     21.775621   17.868916   23.652100 H          1 MOL1         0.0976
      20    C6      20.035810   17.424256   24.868337 C.3        1 MOL1        -0.2365
      21    H14     18.971705   17.684295   24.937813 H          1 MOL1         0.0987
      22    H15     20.516814   17.720322   25.809697 H          1 MOL1         0.0987
      23    H16     20.114648   16.332776   24.779879 H          1 MOL1         0.0987
@<TRIPOS>BOND
    1     1     2    1
    2     1     3    1
    3     1     4    1
    4     1     5    1
    5     5     6    1
    6     5     7    1
    7     5     8    1
    8     8     9    1
    9     8    10    1
   10     8    11    1
   11    11    12    1
   12    11    13    1
   13    11    14    1
   14    14    15    1
   15    14    16    1
   16    14    17    1
   17    17    18    1
   18    17    19    1
   19    17    20    1
   20    20    21    1
   21    20    22    1
   22    20    23    1
@<TRIPOS>SUBSTRUCTURE
       1 MOL1            1 RESIDUE      1      MOL     
@<SCITEGIC>MOL_PROPERTY
VConf Rank
SciTegic.value.IntegerValue
624

@<SCITEGIC>MOL_PROPERTY
Conf_Id
SciTegic.value.IntegerValue
5

@<SCITEGIC>MOL_PROPERTY
Delta U+W
SciTegic.value.DoubleValue
6.087

@<SCITEGIC>MOL_PROPERTY
U+W
SciTegic.value.DoubleValue
-2.295

@<SCITEGIC>MOL_PROPERTY
Grad RMS
SciTegic.value.DoubleValue
0.000000

@<SCITEGIC>MOL_PROPERTY
U
SciTegic.value.DoubleValue
52.836

@<SCITEGIC>MOL_PROPERTY
W
SciTegic.value.DoubleValue
-55.131

@<SCITEGIC>MOL_PROPERTY
W(PB)
SciTegic.value.DoubleValue
-57.202

@<SCITEGIC>MOL_PROPERTY
W(SA)
SciTegic.value.DoubleValue
2.071

@<SCITEGIC>MOL_PROPERTY
Valence
SciTegic.value.DoubleValue
5.785

@<SCITEGIC>MOL_PROPERTY
Coulomb
SciTegic.value.DoubleValue
46.744

@<SCITEGIC>MOL_PROPERTY
VdW
SciTegic.value.DoubleValue
0.307

@<SCITEGIC>MOL_PROPERTY
VdW6
SciTegic.value.DoubleValue
-7.672

@<SCITEGIC>MOL_PROPERTY
VdW12
SciTegic.value.DoubleValue
7.980

@<SCITEGIC>MOL_PROPERTY
Bond
SciTegic.value.DoubleValue
0.217

@<SCITEGIC>MOL_PROPERTY
Angle
SciTegic.value.DoubleValue
1.470

@<SCITEGIC>MOL_PROPERTY
Pdih
SciTegic.value.DoubleValue
4.098

@<SCITEGIC>MOL_PROPERTY
Idih
SciTegic.value.DoubleValue
0.000

@<SCITEGIC>MOL_PROPERTY
Tether
SciTegic.value.DoubleValue
0.000

@<TRIPOS>MOLECULE
guest-2_confgen4.mol2 : confsearch ligand conformer 625
          23          22           1
SMALL
USER_CHARGES
 
@<TRIPOS>ATOM
       1    N1      17.180040   17.797502   20.037055 N.4        1 MOL1        -0.5940
       2    H1      16.582304   17.299329   20.704452 H          1 MOL1         0.3649
       3    H2      17.134589   17.280058   19.152589 H          1 MOL1         0.3649
       4    H3      16.748045   18.711937   19.869507 H          1 MOL1         0.3649
       5    C1      18.603294   17.927944   20.540276 C.3        1 MOL1         0.0207
       6    H4      19.187826   18.439339   19.770670 H          1 MOL1         0.0950
       7    H5      19.009685   16.920964   20.668074 H          1 MOL1         0.0950
       8    C2      18.705999   18.700311   21.867483 C.3        1 MOL1        -0.1415
       9    H6      18.281976   19.705166   21.738756 H          1 MOL1         0.0976
      10    H7      18.104369   18.192197   22.632964 H          1 MOL1         0.0976
      11    C3      20.170730   18.810889   22.345521 C.3        1 MOL1        -0.1375
      12    H8      20.770376   19.314997   21.574740 H          1 MOL1         0.0976
      13    H9      20.592926   17.803644   22.468037 H          1 MOL1         0.0976
      14    C4      20.285661   19.585148   23.678306 C.3        1 MOL1        -0.1375
      15    H10     19.863683   20.592358   23.555928 H          1 MOL1         0.0976
      16    H11     19.686149   19.081213   24.449116 H          1 MOL1         0.0976
      17    C5      21.750669   19.695473   24.156156 C.3        1 MOL1        -0.1350
      18    H12     22.354157   20.201203   23.389337 H          1 MOL1         0.0976
      19    H13     22.176629   18.690197   24.282457 H          1 MOL1         0.0976
      20    C6      21.861449   20.469188   25.487171 C.3        1 MOL1        -0.2365
      21    H14     22.908415   20.537085   25.810123 H          1 MOL1         0.0987
      22    H15     21.295236   19.968341   26.283276 H          1 MOL1         0.0987
      23    H16     21.474124   21.491145   25.383186 H          1 MOL1         0.0987
@<TRIPOS>BOND
    1     1     2    1
    2     1     3    1
    3     1     4    1
    4     1     5    1
    5     5     6    1
    6     5     7    1
    7     5     8    1
    8     8     9    1
    9     8    10    1
   10     8    11    1
   11    11    12    1
   12    11    13    1
   13    11    14    1
   14    14    15    1
   15    14    16    1
   16    14    17    1
   17    17    18    1
   18    17    19    1
   19    17    20    1
   20    20    21    1
   21    20    22    1
   22    20    23    1
@<TRIPOS>SUBSTRUCTURE
       1 MOL1            1 RESIDUE      1      MOL     
@<SCITEGIC>MOL_PROPERTY
VConf Rank
SciTegic.value.IntegerValue
625

@<SCITEGIC>MOL_PROPERTY
Conf_Id
SciTegic.value.IntegerValue
40

@<SCITEGIC>MOL_PROPERTY
Delta U+W
SciTegic.value.DoubleValue
0.000

@<SCITEGIC>MOL_PROPERTY
U+W
SciTegic.value.DoubleValue
-8.382

@<SCITEGIC>MOL_PROPERTY
Grad RMS
SciTegic.value.DoubleValue
0.000000

@<SCITEGIC>MOL_PROPERTY
U
SciTegic.value.DoubleValue
46.604

@<SCITEGIC>MOL_PROPERTY
W
SciTegic.value.DoubleValue
-54.986

@<SCITEGIC>MOL_PROPERTY
W(PB)
SciTegic.value.DoubleValue
-57.162

@<SCITEGIC>MOL_PROPERTY
W(SA)
SciTegic.value.DoubleValue
2.176

@<SCITEGIC>MOL_PROPERTY
Valence
SciTegic.value.DoubleValue
1.727

@<SCITEGIC>MOL_PROPERTY
Coulomb
SciTegic.value.DoubleValue
44.434

@<SCITEGIC>MOL_PROPERTY
VdW
SciTegic.value.DoubleValue
0.443

@<SCITEGIC>MOL_PROPERTY
VdW6
SciTegic.value.DoubleValue
-4.623

@<SCITEGIC>MOL_PROPERTY
VdW12
SciTegic.value.DoubleValue
5.066

@<SCITEGIC>MOL_PROPERTY
Bond
SciTegic.value.DoubleValue
0.112

@<SCITEGIC>MOL_PROPERTY
Angle
SciTegic.value.DoubleValue
0.386

@<SCITEGIC>MOL_PROPERTY
Pdih
SciTegic.value.DoubleValue
1.228

@<SCITEGIC>MOL_PROPERTY
Idih
SciTegic.value.DoubleValue
0.000

@<SCITEGIC>MOL_PROPERTY
Tether
SciTegic.value.DoubleValue
0.000

@<TRIPOS>MOLECULE
guest-2_confgen4.mol2 : confsearch ligand conformer 626
          23          22           1
SMALL
USER_CHARGES
 
@<TRIPOS>ATOM
       1    N1      19.280367   15.596380   21.704654 N.4        1 MOL1        -0.5940
       2    H1      20.146305   15.065396   21.842666 H          1 MOL1         0.3649
       3    H2      19.176913   15.747518   20.696048 H          1 MOL1         0.3649
       4    H3      18.508022   14.987379   21.995568 H          1 MOL1         0.3649
       5    C1      19.288737   16.901609   22.474128 C.3        1 MOL1         0.0207
       6    H4      19.372357   16.665428   23.538383 H          1 MOL1         0.0950
       7    H5      18.328540   17.395691   22.305534 H          1 MOL1         0.0950
       8    C2      20.438820   17.838951   22.059606 C.3        1 MOL1        -0.1415
       9    H6      21.393580   17.312167   22.189530 H          1 MOL1         0.0976
      10    H7      20.354644   18.077495   20.990964 H          1 MOL1         0.0976
      11    C3      20.473128   19.147993   22.883531 C.3        1 MOL1        -0.1375
      12    H8      21.379626   19.702759   22.608839 H          1 MOL1         0.0976
      13    H9      20.567121   18.906393   23.951317 H          1 MOL1         0.0976
      14    C4      19.227582   20.042260   22.656644 C.3        1 MOL1        -0.1375
      15    H10     19.145933   20.300630   21.591844 H          1 MOL1         0.0976
      16    H11     18.319683   19.478366   22.908138 H          1 MOL1         0.0976
      17    C5      19.237910   21.338753   23.502531 C.3        1 MOL1        -0.1350
      18    H12     19.308884   21.085992   24.569711 H          1 MOL1         0.0976
      19    H13     18.274601   21.851489   23.372101 H          1 MOL1         0.0976
      20    C6      20.374751   22.314599   23.122130 C.3        1 MOL1        -0.2365
      21    H14     21.361607   21.895194   23.353368 H          1 MOL1         0.0987
      22    H15     20.277355   23.253985   23.681609 H          1 MOL1         0.0987
      23    H16     20.345529   22.557250   22.051953 H          1 MOL1         0.0987
@<TRIPOS>BOND
    1     1     2    1
    2     1     3    1
    3     1     4    1
    4     1     5    1
    5     5     6    1
    6     5     7    1
    7     5     8    1
    8     8     9    1
    9     8    10    1
   10     8    11    1
   11    11    12    1
   12    11    13    1
   13    11    14    1
   14    14    15    1
   15    14    16    1
   16    14    17    1
   17    17    18    1
   18    17    19    1
   19    17    20    1
   20    20    21    1
   21    20    22    1
   22    20    23    1
@<TRIPOS>SUBSTRUCTURE
       1 MOL1            1 RESIDUE      1      MOL     
@<SCITEGIC>MOL_PROPERTY
VConf Rank
SciTegic.value.IntegerValue
626

@<SCITEGIC>MOL_PROPERTY
Conf_Id
SciTegic.value.IntegerValue
65

@<SCITEGIC>MOL_PROPERTY
Delta U+W
SciTegic.value.DoubleValue
1.004

@<SCITEGIC>MOL_PROPERTY
U+W
SciTegic.value.DoubleValue
-7.378

@<SCITEGIC>MOL_PROPERTY
Grad RMS
SciTegic.value.DoubleValue
0.000000

@<SCITEGIC>MOL_PROPERTY
U
SciTegic.value.DoubleValue
48.047

@<SCITEGIC>MOL_PROPERTY
W
SciTegic.value.DoubleValue
-55.425

@<SCITEGIC>MOL_PROPERTY
W(PB)
SciTegic.value.DoubleValue
-57.542

@<SCITEGIC>MOL_PROPERTY
W(SA)
SciTegic.value.DoubleValue
2.116

@<SCITEGIC>MOL_PROPERTY
Valence
SciTegic.value.DoubleValue
2.583

@<SCITEGIC>MOL_PROPERTY
Coulomb
SciTegic.value.DoubleValue
44.791

@<SCITEGIC>MOL_PROPERTY
VdW
SciTegic.value.DoubleValue
0.673

@<SCITEGIC>MOL_PROPERTY
VdW6
SciTegic.value.DoubleValue
-5.788

@<SCITEGIC>MOL_PROPERTY
VdW12
SciTegic.value.DoubleValue
6.462

@<SCITEGIC>MOL_PROPERTY
Bond
SciTegic.value.DoubleValue
0.177

@<SCITEGIC>MOL_PROPERTY
Angle
SciTegic.value.DoubleValue
0.787

@<SCITEGIC>MOL_PROPERTY
Pdih
SciTegic.value.DoubleValue
1.619

@<SCITEGIC>MOL_PROPERTY
Idih
SciTegic.value.DoubleValue
0.000

@<SCITEGIC>MOL_PROPERTY
Tether
SciTegic.value.DoubleValue
0.000

@<TRIPOS>MOLECULE
guest-2_confgen4.mol2 : confsearch ligand conformer 627
          23          22           1
SMALL
USER_CHARGES
 
@<TRIPOS>ATOM
       1    N1      20.548895   15.934521   20.986659 N.4        1 MOL1        -0.5940
       2    H1      19.892374   15.759436   20.219088 H          1 MOL1         0.3649
       3    H2      20.727100   15.030924   21.438082 H          1 MOL1         0.3649
       4    H3      21.432955   16.236047   20.564338 H          1 MOL1         0.3649
       5    C1      20.012589   16.957683   21.967112 C.3        1 MOL1         0.0207
       6    H4      20.746644   17.069583   22.769085 H          1 MOL1         0.0950
       7    H5      19.089511   16.560662   22.398056 H          1 MOL1         0.0950
       8    C2      19.734363   18.326931   21.318356 C.3        1 MOL1        -0.1415
       9    H6      20.661464   18.726746   20.886364 H          1 MOL1         0.0976
      10    H7      19.032429   18.191342   20.484779 H          1 MOL1         0.0976
      11    C3      19.139227   19.352418   22.312240 C.3        1 MOL1        -0.1375
      12    H8      18.206753   18.953853   22.735335 H          1 MOL1         0.0976
      13    H9      18.865607   20.255292   21.751069 H          1 MOL1         0.0976
      14    C4      20.115229   19.727372   23.456532 C.3        1 MOL1        -0.1375
      15    H10     20.407731   18.820448   24.001911 H          1 MOL1         0.0976
      16    H11     21.039192   20.145148   23.033477 H          1 MOL1         0.0976
      17    C5      19.515647   20.727921   24.474334 C.3        1 MOL1        -0.1350
      18    H12     20.221996   20.847561   25.307778 H          1 MOL1         0.0976
      19    H13     18.596433   20.310620   24.908735 H          1 MOL1         0.0976
      20    C6      19.220542   22.119928   23.870499 C.3        1 MOL1        -0.2365
      21    H14     18.425408   22.072938   23.116303 H          1 MOL1         0.0987
      22    H15     20.116921   22.544683   23.400288 H          1 MOL1         0.0987
      23    H16     18.890883   22.815595   24.653006 H          1 MOL1         0.0987
@<TRIPOS>BOND
    1     1     2    1
    2     1     3    1
    3     1     4    1
    4     1     5    1
    5     5     6    1
    6     5     7    1
    7     5     8    1
    8     8     9    1
    9     8    10    1
   10     8    11    1
   11    11    12    1
   12    11    13    1
   13    11    14    1
   14    14    15    1
   15    14    16    1
   16    14    17    1
   17    17    18    1
   18    17    19    1
   19    17    20    1
   20    20    21    1
   21    20    22    1
   22    20    23    1
@<TRIPOS>SUBSTRUCTURE
       1 MOL1            1 RESIDUE      1      MOL     
@<SCITEGIC>MOL_PROPERTY
VConf Rank
SciTegic.value.IntegerValue
627

@<SCITEGIC>MOL_PROPERTY
Conf_Id
SciTegic.value.IntegerValue
92

@<SCITEGIC>MOL_PROPERTY
Delta U+W
SciTegic.value.DoubleValue
0.973

@<SCITEGIC>MOL_PROPERTY
U+W
SciTegic.value.DoubleValue
-7.409

@<SCITEGIC>MOL_PROPERTY
Grad RMS
SciTegic.value.DoubleValue
0.000000

@<SCITEGIC>MOL_PROPERTY
U
SciTegic.value.DoubleValue
48.047

@<SCITEGIC>MOL_PROPERTY
W
SciTegic.value.DoubleValue
-55.456

@<SCITEGIC>MOL_PROPERTY
W(PB)
SciTegic.value.DoubleValue
-57.595

@<SCITEGIC>MOL_PROPERTY
W(SA)
SciTegic.value.DoubleValue
2.138

@<SCITEGIC>MOL_PROPERTY
Valence
SciTegic.value.DoubleValue
2.583

@<SCITEGIC>MOL_PROPERTY
Coulomb
SciTegic.value.DoubleValue
44.791

@<SCITEGIC>MOL_PROPERTY
VdW
SciTegic.value.DoubleValue
0.674

@<SCITEGIC>MOL_PROPERTY
VdW6
SciTegic.value.DoubleValue
-5.789

@<SCITEGIC>MOL_PROPERTY
VdW12
SciTegic.value.DoubleValue
6.462

@<SCITEGIC>MOL_PROPERTY
Bond
SciTegic.value.DoubleValue
0.177

@<SCITEGIC>MOL_PROPERTY
Angle
SciTegic.value.DoubleValue
0.787

@<SCITEGIC>MOL_PROPERTY
Pdih
SciTegic.value.DoubleValue
1.619

@<SCITEGIC>MOL_PROPERTY
Idih
SciTegic.value.DoubleValue
0.000

@<SCITEGIC>MOL_PROPERTY
Tether
SciTegic.value.DoubleValue
0.000

@<TRIPOS>MOLECULE
guest-2_confgen4.mol2 : confsearch ligand conformer 628
          23          22           1
SMALL
USER_CHARGES
 
@<TRIPOS>ATOM
       1    N1      21.113768   16.067223   21.121915 N.4        1 MOL1        -0.5940
       2    H1      20.517849   15.278093   20.849542 H          1 MOL1         0.3649
       3    H2      21.941828   15.671199   21.578353 H          1 MOL1         0.3649
       4    H3      21.431598   16.513462   20.255488 H          1 MOL1         0.3649
       5    C1      20.382063   17.040337   22.023820 C.3        1 MOL1         0.0207
       6    H4      20.048332   16.493721   22.909966 H          1 MOL1         0.0950
       7    H5      19.499462   17.396561   21.486408 H          1 MOL1         0.0950
       8    C2      21.251629   18.237976   22.450871 C.3        1 MOL1        -0.1415
       9    H6      22.155925   17.864760   22.949775 H          1 MOL1         0.0976
      10    H7      21.587478   18.786463   21.560723 H          1 MOL1         0.0976
      11    C3      20.512397   19.202720   23.407866 C.3        1 MOL1        -0.1375
      12    H8      21.217772   19.976051   23.742315 H          1 MOL1         0.0976
      13    H9      20.200059   18.656862   24.309050 H          1 MOL1         0.0976
      14    C4      19.283738   19.882293   22.756683 C.3        1 MOL1        -0.1375
      15    H10     19.593955   20.399431   21.838124 H          1 MOL1         0.0976
      16    H11     18.547222   19.123122   22.461285 H          1 MOL1         0.0976
      17    C5      18.612885   20.892828   23.713525 C.3        1 MOL1        -0.1350
      18    H12     19.339152   21.662867   24.009393 H          1 MOL1         0.0976
      19    H13     18.301092   20.380774   24.634701 H          1 MOL1         0.0976
      20    C6      17.386898   21.568935   23.063605 C.3        1 MOL1        -0.2365
      21    H14     17.673203   22.117867   22.157001 H          1 MOL1         0.0987
      22    H15     16.924646   22.282833   23.757663 H          1 MOL1         0.0987
      23    H16     16.626442   20.826652   22.788026 H          1 MOL1         0.0987
@<TRIPOS>BOND
    1     1     2    1
    2     1     3    1
    3     1     4    1
    4     1     5    1
    5     5     6    1
    6     5     7    1
    7     5     8    1
    8     8     9    1
    9     8    10    1
   10     8    11    1
   11    11    12    1
   12    11    13    1
   13    11    14    1
   14    14    15    1
   15    14    16    1
   16    14    17    1
   17    17    18    1
   18    17    19    1
   19    17    20    1
   20    20    21    1
   21    20    22    1
   22    20    23    1
@<TRIPOS>SUBSTRUCTURE
       1 MOL1            1 RESIDUE      1      MOL     
@<SCITEGIC>MOL_PROPERTY
VConf Rank
SciTegic.value.IntegerValue
628

@<SCITEGIC>MOL_PROPERTY
Conf_Id
SciTegic.value.IntegerValue
42

@<SCITEGIC>MOL_PROPERTY
Delta U+W
SciTegic.value.DoubleValue
0.365

@<SCITEGIC>MOL_PROPERTY
U+W
SciTegic.value.DoubleValue
-8.017

@<SCITEGIC>MOL_PROPERTY
Grad RMS
SciTegic.value.DoubleValue
0.000000

@<SCITEGIC>MOL_PROPERTY
U
SciTegic.value.DoubleValue
47.375

@<SCITEGIC>MOL_PROPERTY
W
SciTegic.value.DoubleValue
-55.392

@<SCITEGIC>MOL_PROPERTY
W(PB)
SciTegic.value.DoubleValue
-57.543

@<SCITEGIC>MOL_PROPERTY
W(SA)
SciTegic.value.DoubleValue
2.152

@<SCITEGIC>MOL_PROPERTY
Valence
SciTegic.value.DoubleValue
2.032

@<SCITEGIC>MOL_PROPERTY
Coulomb
SciTegic.value.DoubleValue
44.843

@<SCITEGIC>MOL_PROPERTY
VdW
SciTegic.value.DoubleValue
0.499

@<SCITEGIC>MOL_PROPERTY
VdW6
SciTegic.value.DoubleValue
-5.218

@<SCITEGIC>MOL_PROPERTY
VdW12
SciTegic.value.DoubleValue
5.717

@<SCITEGIC>MOL_PROPERTY
Bond
SciTegic.value.DoubleValue
0.135

@<SCITEGIC>MOL_PROPERTY
Angle
SciTegic.value.DoubleValue
0.514

@<SCITEGIC>MOL_PROPERTY
Pdih
SciTegic.value.DoubleValue
1.383

@<SCITEGIC>MOL_PROPERTY
Idih
SciTegic.value.DoubleValue
0.000

@<SCITEGIC>MOL_PROPERTY
Tether
SciTegic.value.DoubleValue
0.000

@<TRIPOS>MOLECULE
guest-2_confgen4.mol2 : confsearch ligand conformer 629
          23          22           1
SMALL
USER_CHARGES
 
@<TRIPOS>ATOM
       1    N1      18.108824   21.689699   22.352256 N.4        1 MOL1        -0.5940
       2    H1      17.268404   21.289300   22.781217 H          1 MOL1         0.3649
       3    H2      17.819519   22.549917   21.874474 H          1 MOL1         0.3649
       4    H3      18.734931   21.967039   23.114145 H          1 MOL1         0.3649
       5    C1      18.775427   20.714825   21.401022 C.3        1 MOL1         0.0207
       6    H4      19.646164   21.209294   20.962002 H          1 MOL1         0.0950
       7    H5      18.065331   20.499834   20.597833 H          1 MOL1         0.0950
       8    C2      19.208843   19.393220   22.064907 C.3        1 MOL1        -0.1415
       9    H6      18.337672   18.912151   22.528893 H          1 MOL1         0.0976
      10    H7      19.562380   18.720999   21.273548 H          1 MOL1         0.0976
      11    C3      20.331467   19.589713   23.112721 C.3        1 MOL1        -0.1375
      12    H8      20.017235   20.341966   23.848047 H          1 MOL1         0.0976
      13    H9      21.222927   19.999752   22.618178 H          1 MOL1         0.0976
      14    C4      20.718108   18.301481   23.884748 C.3        1 MOL1        -0.1375
      15    H10     21.484785   18.576502   24.622350 H          1 MOL1         0.0976
      16    H11     19.861364   17.940881   24.470566 H          1 MOL1         0.0976
      17    C5      21.285218   17.158045   23.004191 C.3        1 MOL1        -0.1350
      18    H12     22.068664   16.635514   23.570887 H          1 MOL1         0.0976
      19    H13     21.781058   17.570442   22.114432 H          1 MOL1         0.0976
      20    C6      20.220180   16.114898   22.592126 C.3        1 MOL1        -0.2365
      21    H14     19.772507   15.642453   23.476119 H          1 MOL1         0.0987
      22    H15     20.674879   15.321106   21.985448 H          1 MOL1         0.0987
      23    H16     19.411369   16.560790   22.002953 H          1 MOL1         0.0987
@<TRIPOS>BOND
    1     1     2    1
    2     1     3    1
    3     1     4    1
    4     1     5    1
    5     5     6    1
    6     5     7    1
    7     5     8    1
    8     8     9    1
    9     8    10    1
   10     8    11    1
   11    11    12    1
   12    11    13    1
   13    11    14    1
   14    14    15    1
   15    14    16    1
   16    14    17    1
   17    17    18    1
   18    17    19    1
   19    17    20    1
   20    20    21    1
   21    20    22    1
   22    20    23    1
@<TRIPOS>SUBSTRUCTURE
       1 MOL1            1 RESIDUE      1      MOL     
@<SCITEGIC>MOL_PROPERTY
VConf Rank
SciTegic.value.IntegerValue
629

@<SCITEGIC>MOL_PROPERTY
Conf_Id
SciTegic.value.IntegerValue
3

@<SCITEGIC>MOL_PROPERTY
Delta U+W
SciTegic.value.DoubleValue
3.283

@<SCITEGIC>MOL_PROPERTY
U+W
SciTegic.value.DoubleValue
-5.099

@<SCITEGIC>MOL_PROPERTY
Grad RMS
SciTegic.value.DoubleValue
0.000000

@<SCITEGIC>MOL_PROPERTY
U
SciTegic.value.DoubleValue
50.701

@<SCITEGIC>MOL_PROPERTY
W
SciTegic.value.DoubleValue
-55.800

@<SCITEGIC>MOL_PROPERTY
W(PB)
SciTegic.value.DoubleValue
-57.867

@<SCITEGIC>MOL_PROPERTY
W(SA)
SciTegic.value.DoubleValue
2.067

@<SCITEGIC>MOL_PROPERTY
Valence
SciTegic.value.DoubleValue
4.880

@<SCITEGIC>MOL_PROPERTY
Coulomb
SciTegic.value.DoubleValue
45.095

@<SCITEGIC>MOL_PROPERTY
VdW
SciTegic.value.DoubleValue
0.726

@<SCITEGIC>MOL_PROPERTY
VdW6
SciTegic.value.DoubleValue
-6.620

@<SCITEGIC>MOL_PROPERTY
VdW12
SciTegic.value.DoubleValue
7.346

@<SCITEGIC>MOL_PROPERTY
Bond
SciTegic.value.DoubleValue
0.222

@<SCITEGIC>MOL_PROPERTY
Angle
SciTegic.value.DoubleValue
1.260

@<SCITEGIC>MOL_PROPERTY
Pdih
SciTegic.value.DoubleValue
3.398

@<SCITEGIC>MOL_PROPERTY
Idih
SciTegic.value.DoubleValue
0.000

@<SCITEGIC>MOL_PROPERTY
Tether
SciTegic.value.DoubleValue
0.000

@<TRIPOS>MOLECULE
guest-2_confgen4.mol2 : confsearch ligand conformer 630
          23          22           1
SMALL
USER_CHARGES
 
@<TRIPOS>ATOM
       1    N1      19.435399   21.906488   22.089942 N.4        1 MOL1        -0.5940
       2    H1      19.194614   22.440115   22.931262 H          1 MOL1         0.3649
       3    H2      19.514817   22.580180   21.320743 H          1 MOL1         0.3649
       4    H3      20.367784   21.509062   22.239309 H          1 MOL1         0.3649
       5    C1      18.409621   20.830458   21.792902 C.3        1 MOL1         0.0207
       6    H4      18.707755   20.322502   20.872257 H          1 MOL1         0.0950
       7    H5      17.451713   21.325281   21.610998 H          1 MOL1         0.0950
       8    C2      18.244840   19.800230   22.929015 C.3        1 MOL1        -0.1415
       9    H6      17.895654   20.317134   23.832720 H          1 MOL1         0.0976
      10    H7      17.448702   19.095984   22.653222 H          1 MOL1         0.0976
      11    C3      19.534963   19.007940   23.259929 C.3        1 MOL1        -0.1375
      12    H8      19.316283   18.339317   24.102542 H          1 MOL1         0.0976
      13    H9      20.316519   19.695179   23.610101 H          1 MOL1         0.0976
      14    C4      20.064475   18.177169   22.063323 C.3        1 MOL1        -0.1375
      15    H10     19.290962   17.470748   21.731938 H          1 MOL1         0.0976
      16    H11     20.260577   18.842033   21.211939 H          1 MOL1         0.0976
      17    C5      21.368030   17.404135   22.378932 C.3        1 MOL1        -0.1350
      18    H12     22.149037   18.107171   22.700641 H          1 MOL1         0.0976
      19    H13     21.735116   16.940799   21.452417 H          1 MOL1         0.0976
      20    C6      21.188276   16.301621   23.447341 C.3        1 MOL1        -0.2365
      21    H14     20.389172   15.604116   23.164630 H          1 MOL1         0.0987
      22    H15     20.943699   16.726033   24.428821 H          1 MOL1         0.0987
      23    H16     22.113951   15.722671   23.560823 H          1 MOL1         0.0987
@<TRIPOS>BOND
    1     1     2    1
    2     1     3    1
    3     1     4    1
    4     1     5    1
    5     5     6    1
    6     5     7    1
    7     5     8    1
    8     8     9    1
    9     8    10    1
   10     8    11    1
   11    11    12    1
   12    11    13    1
   13    11    14    1
   14    14    15    1
   15    14    16    1
   16    14    17    1
   17    17    18    1
   18    17    19    1
   19    17    20    1
   20    20    21    1
   21    20    22    1
   22    20    23    1
@<TRIPOS>SUBSTRUCTURE
       1 MOL1            1 RESIDUE      1      MOL     
@<SCITEGIC>MOL_PROPERTY
VConf Rank
SciTegic.value.IntegerValue
630

@<SCITEGIC>MOL_PROPERTY
Conf_Id
SciTegic.value.IntegerValue
83

@<SCITEGIC>MOL_PROPERTY
Delta U+W
SciTegic.value.DoubleValue
1.229

@<SCITEGIC>MOL_PROPERTY
U+W
SciTegic.value.DoubleValue
-7.154

@<SCITEGIC>MOL_PROPERTY
Grad RMS
SciTegic.value.DoubleValue
0.000000

@<SCITEGIC>MOL_PROPERTY
U
SciTegic.value.DoubleValue
48.727

@<SCITEGIC>MOL_PROPERTY
W
SciTegic.value.DoubleValue
-55.880

@<SCITEGIC>MOL_PROPERTY
W(PB)
SciTegic.value.DoubleValue
-57.960

@<SCITEGIC>MOL_PROPERTY
W(SA)
SciTegic.value.DoubleValue
2.080

@<SCITEGIC>MOL_PROPERTY
Valence
SciTegic.value.DoubleValue
2.671

@<SCITEGIC>MOL_PROPERTY
Coulomb
SciTegic.value.DoubleValue
45.371

@<SCITEGIC>MOL_PROPERTY
VdW
SciTegic.value.DoubleValue
0.684

@<SCITEGIC>MOL_PROPERTY
VdW6
SciTegic.value.DoubleValue
-6.511

@<SCITEGIC>MOL_PROPERTY
VdW12
SciTegic.value.DoubleValue
7.195

@<SCITEGIC>MOL_PROPERTY
Bond
SciTegic.value.DoubleValue
0.203

@<SCITEGIC>MOL_PROPERTY
Angle
SciTegic.value.DoubleValue
0.915

@<SCITEGIC>MOL_PROPERTY
Pdih
SciTegic.value.DoubleValue
1.554

@<SCITEGIC>MOL_PROPERTY
Idih
SciTegic.value.DoubleValue
0.000

@<SCITEGIC>MOL_PROPERTY
Tether
SciTegic.value.DoubleValue
0.000

@<TRIPOS>MOLECULE
guest-2_confgen4.mol2 : confsearch ligand conformer 631
          23          22           1
SMALL
USER_CHARGES
 
@<TRIPOS>ATOM
       1    N1      17.606396   19.473554   20.626433 N.4        1 MOL1        -0.5940
       2    H1      17.145797   18.611352   20.318197 H          1 MOL1         0.3649
       3    H2      18.588370   19.411635   20.340962 H          1 MOL1         0.3649
       4    H3      17.186265   20.243696   20.095203 H          1 MOL1         0.3649
       5    C1      17.470600   19.680760   22.122066 C.3        1 MOL1         0.0207
       6    H4      16.405093   19.772304   22.349753 H          1 MOL1         0.0950
       7    H5      17.953474   20.627071   22.378616 H          1 MOL1         0.0950
       8    C2      18.076646   18.539098   22.963847 C.3        1 MOL1        -0.1415
       9    H6      17.885523   18.744482   24.025520 H          1 MOL1         0.0976
      10    H7      17.547326   17.604993   22.733476 H          1 MOL1         0.0976
      11    C3      19.597335   18.330652   22.750064 C.3        1 MOL1        -0.1375
      12    H8      19.793366   18.049845   21.706768 H          1 MOL1         0.0976
      13    H9      19.912101   17.474761   23.361005 H          1 MOL1         0.0976
      14    C4      20.442392   19.574335   23.126308 C.3        1 MOL1        -0.1375
      15    H10     20.111863   20.436940   22.532997 H          1 MOL1         0.0976
      16    H11     20.266124   19.837211   24.178447 H          1 MOL1         0.0976
      17    C5      21.960165   19.382277   22.889825 C.3        1 MOL1        -0.1350
      18    H12     22.467845   20.340528   23.068370 H          1 MOL1         0.0976
      19    H13     22.143621   19.129611   21.836150 H          1 MOL1         0.0976
      20    C6      22.595389   18.307193   23.800883 C.3        1 MOL1        -0.2365
      21    H14     22.397457   18.519438   24.859554 H          1 MOL1         0.0987
      22    H15     23.683958   18.281026   23.662074 H          1 MOL1         0.0987
      23    H16     22.210831   17.305553   23.572687 H          1 MOL1         0.0987
@<TRIPOS>BOND
    1     1     2    1
    2     1     3    1
    3     1     4    1
    4     1     5    1
    5     5     6    1
    6     5     7    1
    7     5     8    1
    8     8     9    1
    9     8    10    1
   10     8    11    1
   11    11    12    1
   12    11    13    1
   13    11    14    1
   14    14    15    1
   15    14    16    1
   16    14    17    1
   17    17    18    1
   18    17    19    1
   19    17    20    1
   20    20    21    1
   21    20    22    1
   22    20    23    1
@<TRIPOS>SUBSTRUCTURE
       1 MOL1            1 RESIDUE      1      MOL     
@<SCITEGIC>MOL_PROPERTY
VConf Rank
SciTegic.value.IntegerValue
631

@<SCITEGIC>MOL_PROPERTY
Conf_Id
SciTegic.value.IntegerValue
50

@<SCITEGIC>MOL_PROPERTY
Delta U+W
SciTegic.value.DoubleValue
1.252

@<SCITEGIC>MOL_PROPERTY
U+W
SciTegic.value.DoubleValue
-7.130

@<SCITEGIC>MOL_PROPERTY
Grad RMS
SciTegic.value.DoubleValue
0.000000

@<SCITEGIC>MOL_PROPERTY
U
SciTegic.value.DoubleValue
48.727

@<SCITEGIC>MOL_PROPERTY
W
SciTegic.value.DoubleValue
-55.857

@<SCITEGIC>MOL_PROPERTY
W(PB)
SciTegic.value.DoubleValue
-57.937

@<SCITEGIC>MOL_PROPERTY
W(SA)
SciTegic.value.DoubleValue
2.080

@<SCITEGIC>MOL_PROPERTY
Valence
SciTegic.value.DoubleValue
2.671

@<SCITEGIC>MOL_PROPERTY
Coulomb
SciTegic.value.DoubleValue
45.371

@<SCITEGIC>MOL_PROPERTY
VdW
SciTegic.value.DoubleValue
0.684

@<SCITEGIC>MOL_PROPERTY
VdW6
SciTegic.value.DoubleValue
-6.511

@<SCITEGIC>MOL_PROPERTY
VdW12
SciTegic.value.DoubleValue
7.196

@<SCITEGIC>MOL_PROPERTY
Bond
SciTegic.value.DoubleValue
0.203

@<SCITEGIC>MOL_PROPERTY
Angle
SciTegic.value.DoubleValue
0.915

@<SCITEGIC>MOL_PROPERTY
Pdih
SciTegic.value.DoubleValue
1.554

@<SCITEGIC>MOL_PROPERTY
Idih
SciTegic.value.DoubleValue
0.000

@<SCITEGIC>MOL_PROPERTY
Tether
SciTegic.value.DoubleValue
0.000

@<TRIPOS>MOLECULE
guest-2_confgen4.mol2 : confsearch ligand conformer 632
          23          22           1
SMALL
USER_CHARGES
 
@<TRIPOS>ATOM
       1    N1      18.987535   15.982693   22.389535 N.4        1 MOL1        -0.5940
       2    H1      18.584704   16.247510   23.293488 H          1 MOL1         0.3649
       3    H2      19.292416   15.006882   22.471812 H          1 MOL1         0.3649
       4    H3      18.227702   16.001255   21.701832 H          1 MOL1         0.3649
       5    C1      20.129764   16.897579   21.992628 C.3        1 MOL1         0.0207
       6    H4      20.533639   16.531187   21.044886 H          1 MOL1         0.0950
       7    H5      20.912143   16.812536   22.751616 H          1 MOL1         0.0950
       8    C2      19.718600   18.374396   21.835417 C.3        1 MOL1        -0.1415
       9    H6      20.578244   18.929541   21.443641 H          1 MOL1         0.0976
      10    H7      18.929349   18.453918   21.076124 H          1 MOL1         0.0976
      11    C3      19.234176   19.004307   23.166290 C.3        1 MOL1        -0.1375
      12    H8      19.979148   18.845424   23.958204 H          1 MOL1         0.0976
      13    H9      18.326970   18.477758   23.491422 H          1 MOL1         0.0976
      14    C4      18.899846   20.514264   23.046472 C.3        1 MOL1        -0.1375
      15    H10     18.564904   20.751412   22.027272 H          1 MOL1         0.0976
      16    H11     18.040162   20.727165   23.696942 H          1 MOL1         0.0976
      17    C5      20.048053   21.467649   23.465859 C.3        1 MOL1        -0.1350
      18    H12     20.306734   21.291520   24.519347 H          1 MOL1         0.0976
      19    H13     19.679499   22.501636   23.412456 H          1 MOL1         0.0976
      20    C6      21.321297   21.350942   22.599683 C.3        1 MOL1        -0.2365
      21    H14     21.086971   21.464244   21.533339 H          1 MOL1         0.0987
      22    H15     21.817589   20.384101   22.748638 H          1 MOL1         0.0987
      23    H16     22.041795   22.133730   22.869896 H          1 MOL1         0.0987
@<TRIPOS>BOND
    1     1     2    1
    2     1     3    1
    3     1     4    1
    4     1     5    1
    5     5     6    1
    6     5     7    1
    7     5     8    1
    8     8     9    1
    9     8    10    1
   10     8    11    1
   11    11    12    1
   12    11    13    1
   13    11    14    1
   14    14    15    1
   15    14    16    1
   16    14    17    1
   17    17    18    1
   18    17    19    1
   19    17    20    1
   20    20    21    1
   21    20    22    1
   22    20    23    1
@<TRIPOS>SUBSTRUCTURE
       1 MOL1            1 RESIDUE      1      MOL     
@<SCITEGIC>MOL_PROPERTY
VConf Rank
SciTegic.value.IntegerValue
632

@<SCITEGIC>MOL_PROPERTY
Conf_Id
SciTegic.value.IntegerValue
55

@<SCITEGIC>MOL_PROPERTY
Delta U+W
SciTegic.value.DoubleValue
3.232

@<SCITEGIC>MOL_PROPERTY
U+W
SciTegic.value.DoubleValue
-5.150

@<SCITEGIC>MOL_PROPERTY
Grad RMS
SciTegic.value.DoubleValue
0.000000

@<SCITEGIC>MOL_PROPERTY
U
SciTegic.value.DoubleValue
50.625

@<SCITEGIC>MOL_PROPERTY
W
SciTegic.value.DoubleValue
-55.776

@<SCITEGIC>MOL_PROPERTY
W(PB)
SciTegic.value.DoubleValue
-57.839

@<SCITEGIC>MOL_PROPERTY
W(SA)
SciTegic.value.DoubleValue
2.064

@<SCITEGIC>MOL_PROPERTY
Valence
SciTegic.value.DoubleValue
4.837

@<SCITEGIC>MOL_PROPERTY
Coulomb
SciTegic.value.DoubleValue
45.097

@<SCITEGIC>MOL_PROPERTY
VdW
SciTegic.value.DoubleValue
0.692

@<SCITEGIC>MOL_PROPERTY
VdW6
SciTegic.value.DoubleValue
-6.655

@<SCITEGIC>MOL_PROPERTY
VdW12
SciTegic.value.DoubleValue
7.347

@<SCITEGIC>MOL_PROPERTY
Bond
SciTegic.value.DoubleValue
0.223

@<SCITEGIC>MOL_PROPERTY
Angle
SciTegic.value.DoubleValue
1.167

@<SCITEGIC>MOL_PROPERTY
Pdih
SciTegic.value.DoubleValue
3.447

@<SCITEGIC>MOL_PROPERTY
Idih
SciTegic.value.DoubleValue
0.000

@<SCITEGIC>MOL_PROPERTY
Tether
SciTegic.value.DoubleValue
0.000

@<TRIPOS>MOLECULE
guest-2_confgen4.mol2 : confsearch ligand conformer 633
          23          22           1
SMALL
USER_CHARGES
 
@<TRIPOS>ATOM
       1    N1      18.289991   21.491883   21.454755 N.4        1 MOL1        -0.5940
       2    H1      18.299113   22.406183   21.918220 H          1 MOL1         0.3649
       3    H2      17.358440   21.377160   21.041174 H          1 MOL1         0.3649
       4    H3      18.957046   21.541187   20.677991 H          1 MOL1         0.3649
       5    C1      18.622103   20.368162   22.415277 C.3        1 MOL1         0.0207
       6    H4      18.557813   19.428402   21.863861 H          1 MOL1         0.0950
       7    H5      17.857695   20.357393   23.196919 H          1 MOL1         0.0950
       8    C2      20.014839   20.517402   23.058547 C.3        1 MOL1        -0.1415
       9    H6      20.789837   20.576470   22.282821 H          1 MOL1         0.0976
      10    H7      20.040620   21.474781   23.595930 H          1 MOL1         0.0976
      11    C3      20.347610   19.381724   24.059029 C.3        1 MOL1        -0.1375
      12    H8      19.446530   19.099156   24.621001 H          1 MOL1         0.0976
      13    H9      21.050150   19.778758   24.804883 H          1 MOL1         0.0976
      14    C4      20.998659   18.123486   23.427803 C.3        1 MOL1        -0.1375
      15    H10     21.952367   18.401438   22.958255 H          1 MOL1         0.0976
      16    H11     21.250804   17.426219   24.238780 H          1 MOL1         0.0976
      17    C5      20.113155   17.389762   22.394346 C.3        1 MOL1        -0.1350
      18    H12     19.980409   18.017031   21.503376 H          1 MOL1         0.0976
      19    H13     19.115417   17.209031   22.818059 H          1 MOL1         0.0976
      20    C6      20.737063   16.045517   21.962576 C.3        1 MOL1        -0.2365
      21    H14     20.852026   15.369373   22.819798 H          1 MOL1         0.0987
      22    H15     21.726320   16.196647   21.511156 H          1 MOL1         0.0987
      23    H16     20.101628   15.543621   21.221393 H          1 MOL1         0.0987
@<TRIPOS>BOND
    1     1     2    1
    2     1     3    1
    3     1     4    1
    4     1     5    1
    5     5     6    1
    6     5     7    1
    7     5     8    1
    8     8     9    1
    9     8    10    1
   10     8    11    1
   11    11    12    1
   12    11    13    1
   13    11    14    1
   14    14    15    1
   15    14    16    1
   16    14    17    1
   17    17    18    1
   18    17    19    1
   19    17    20    1
   20    20    21    1
   21    20    22    1
   22    20    23    1
@<TRIPOS>SUBSTRUCTURE
       1 MOL1            1 RESIDUE      1      MOL     
@<SCITEGIC>MOL_PROPERTY
VConf Rank
SciTegic.value.IntegerValue
633

@<SCITEGIC>MOL_PROPERTY
Conf_Id
SciTegic.value.IntegerValue
93

@<SCITEGIC>MOL_PROPERTY
Delta U+W
SciTegic.value.DoubleValue
2.589

@<SCITEGIC>MOL_PROPERTY
U+W
SciTegic.value.DoubleValue
-5.793

@<SCITEGIC>MOL_PROPERTY
Grad RMS
SciTegic.value.DoubleValue
0.000000

@<SCITEGIC>MOL_PROPERTY
U
SciTegic.value.DoubleValue
50.122

@<SCITEGIC>MOL_PROPERTY
W
SciTegic.value.DoubleValue
-55.915

@<SCITEGIC>MOL_PROPERTY
W(PB)
SciTegic.value.DoubleValue
-58.031

@<SCITEGIC>MOL_PROPERTY
W(SA)
SciTegic.value.DoubleValue
2.115

@<SCITEGIC>MOL_PROPERTY
Valence
SciTegic.value.DoubleValue
4.132

@<SCITEGIC>MOL_PROPERTY
Coulomb
SciTegic.value.DoubleValue
45.536

@<SCITEGIC>MOL_PROPERTY
VdW
SciTegic.value.DoubleValue
0.454

@<SCITEGIC>MOL_PROPERTY
VdW6
SciTegic.value.DoubleValue
-6.262

@<SCITEGIC>MOL_PROPERTY
VdW12
SciTegic.value.DoubleValue
6.715

@<SCITEGIC>MOL_PROPERTY
Bond
SciTegic.value.DoubleValue
0.182

@<SCITEGIC>MOL_PROPERTY
Angle
SciTegic.value.DoubleValue
1.157

@<SCITEGIC>MOL_PROPERTY
Pdih
SciTegic.value.DoubleValue
2.794

@<SCITEGIC>MOL_PROPERTY
Idih
SciTegic.value.DoubleValue
0.000

@<SCITEGIC>MOL_PROPERTY
Tether
SciTegic.value.DoubleValue
0.000

@<TRIPOS>MOLECULE
guest-2_confgen4.mol2 : confsearch ligand conformer 634
          23          22           1
SMALL
USER_CHARGES
 
@<TRIPOS>ATOM
       1    N1      17.594858   19.311541   24.886410 N.4        1 MOL1        -0.5940
       2    H1      16.901396   19.605585   24.191138 H          1 MOL1         0.3649
       3    H2      17.679314   20.075799   25.565215 H          1 MOL1         0.3649
       4    H3      17.197653   18.510678   25.388083 H          1 MOL1         0.3649
       5    C1      18.927424   18.974547   24.248953 C.3        1 MOL1         0.0207
       6    H4      19.621710   18.699152   25.047404 H          1 MOL1         0.0950
       7    H5      19.304553   19.878447   23.767207 H          1 MOL1         0.0950
       8    C2      18.833008   17.823350   23.228356 C.3        1 MOL1        -0.1415
       9    H6      18.444654   16.937919   23.749136 H          1 MOL1         0.0976
      10    H7      18.103621   18.066481   22.444300 H          1 MOL1         0.0976
      11    C3      20.198756   17.461097   22.591985 C.3        1 MOL1        -0.1375
      12    H8      20.170493   16.401229   22.303228 H          1 MOL1         0.0976
      13    H9      20.997268   17.542994   23.342502 H          1 MOL1         0.0976
      14    C4      20.569333   18.279637   21.327809 C.3        1 MOL1        -0.1375
      15    H10     21.515445   17.885852   20.931266 H          1 MOL1         0.0976
      16    H11     19.816635   18.106731   20.546246 H          1 MOL1         0.0976
      17    C5      20.720840   19.799741   21.566200 C.3        1 MOL1        -0.1350
      18    H12     21.385192   19.979551   22.422928 H          1 MOL1         0.0976
      19    H13     19.745275   20.238684   21.812203 H          1 MOL1         0.0976
      20    C6      21.284907   20.517650   20.321565 C.3        1 MOL1        -0.2365
      21    H14     21.375590   21.596289   20.504169 H          1 MOL1         0.0987
      22    H15     20.627869   20.376957   19.453373 H          1 MOL1         0.0987
      23    H16     22.280904   20.135689   20.062124 H          1 MOL1         0.0987
@<TRIPOS>BOND
    1     1     2    1
    2     1     3    1
    3     1     4    1
    4     1     5    1
    5     5     6    1
    6     5     7    1
    7     5     8    1
    8     8     9    1
    9     8    10    1
   10     8    11    1
   11    11    12    1
   12    11    13    1
   13    11    14    1
   14    14    15    1
   15    14    16    1
   16    14    17    1
   17    17    18    1
   18    17    19    1
   19    17    20    1
   20    20    21    1
   21    20    22    1
   22    20    23    1
@<TRIPOS>SUBSTRUCTURE
       1 MOL1            1 RESIDUE      1      MOL     
@<SCITEGIC>MOL_PROPERTY
VConf Rank
SciTegic.value.IntegerValue
634

@<SCITEGIC>MOL_PROPERTY
Conf_Id
SciTegic.value.IntegerValue
70

@<SCITEGIC>MOL_PROPERTY
Delta U+W
SciTegic.value.DoubleValue
2.599

@<SCITEGIC>MOL_PROPERTY
U+W
SciTegic.value.DoubleValue
-5.783

@<SCITEGIC>MOL_PROPERTY
Grad RMS
SciTegic.value.DoubleValue
0.000000

@<SCITEGIC>MOL_PROPERTY
U
SciTegic.value.DoubleValue
50.122

@<SCITEGIC>MOL_PROPERTY
W
SciTegic.value.DoubleValue
-55.906

@<SCITEGIC>MOL_PROPERTY
W(PB)
SciTegic.value.DoubleValue
-58.010

@<SCITEGIC>MOL_PROPERTY
W(SA)
SciTegic.value.DoubleValue
2.105

@<SCITEGIC>MOL_PROPERTY
Valence
SciTegic.value.DoubleValue
4.132

@<SCITEGIC>MOL_PROPERTY
Coulomb
SciTegic.value.DoubleValue
45.536

@<SCITEGIC>MOL_PROPERTY
VdW
SciTegic.value.DoubleValue
0.454

@<SCITEGIC>MOL_PROPERTY
VdW6
SciTegic.value.DoubleValue
-6.262

@<SCITEGIC>MOL_PROPERTY
VdW12
SciTegic.value.DoubleValue
6.715

@<SCITEGIC>MOL_PROPERTY
Bond
SciTegic.value.DoubleValue
0.182

@<SCITEGIC>MOL_PROPERTY
Angle
SciTegic.value.DoubleValue
1.157

@<SCITEGIC>MOL_PROPERTY
Pdih
SciTegic.value.DoubleValue
2.794

@<SCITEGIC>MOL_PROPERTY
Idih
SciTegic.value.DoubleValue
0.000

@<SCITEGIC>MOL_PROPERTY
Tether
SciTegic.value.DoubleValue
0.000

@<TRIPOS>MOLECULE
guest-2_confgen4.mol2 : confsearch ligand conformer 635
          23          22           1
SMALL
USER_CHARGES
 
@<TRIPOS>ATOM
       1    N1      21.685202   18.450125   24.657777 N.4        1 MOL1        -0.5940
       2    H1      21.437615   18.101766   25.589364 H          1 MOL1         0.3649
       3    H2      22.664579   18.751262   24.701383 H          1 MOL1         0.3649
       4    H3      21.643250   17.653194   24.015433 H          1 MOL1         0.3649
       5    C1      20.768929   19.573955   24.215414 C.3        1 MOL1         0.0207
       6    H4      21.105772   19.920957   23.235071 H          1 MOL1         0.0950
       7    H5      20.884947   20.397340   24.925394 H          1 MOL1         0.0950
       8    C2      19.283441   19.167049   24.141006 C.3        1 MOL1        -0.1415
       9    H6      18.946843   18.853380   25.138016 H          1 MOL1         0.0976
      10    H7      18.685892   20.052387   23.888957 H          1 MOL1         0.0976
      11    C3      18.990829   18.032554   23.123998 C.3        1 MOL1        -0.1375
      12    H8      17.909295   17.839383   23.110797 H          1 MOL1         0.0976
      13    H9      19.453770   17.101380   23.477315 H          1 MOL1         0.0976
      14    C4      19.472181   18.312772   21.676732 C.3        1 MOL1        -0.1375
      15    H10     20.565326   18.415257   21.656154 H          1 MOL1         0.0976
      16    H11     19.239196   17.434861   21.058406 H          1 MOL1         0.0976
      17    C5      18.820104   19.562528   21.039708 C.3        1 MOL1        -0.1350
      18    H12     19.098738   20.463573   21.602219 H          1 MOL1         0.0976
      19    H13     17.725718   19.478390   21.094036 H          1 MOL1         0.0976
      20    C6      19.247541   19.739490   19.567171 C.3        1 MOL1        -0.2365
      21    H14     18.778306   20.631306   19.131857 H          1 MOL1         0.0987
      22    H15     18.949451   18.873194   18.962303 H          1 MOL1         0.0987
      23    H16     20.335889   19.856654   19.483655 H          1 MOL1         0.0987
@<TRIPOS>BOND
    1     1     2    1
    2     1     3    1
    3     1     4    1
    4     1     5    1
    5     5     6    1
    6     5     7    1
    7     5     8    1
    8     8     9    1
    9     8    10    1
   10     8    11    1
   11    11    12    1
   12    11    13    1
   13    11    14    1
   14    14    15    1
   15    14    16    1
   16    14    17    1
   17    17    18    1
   18    17    19    1
   19    17    20    1
   20    20    21    1
   21    20    22    1
   22    20    23    1
@<TRIPOS>SUBSTRUCTURE
       1 MOL1            1 RESIDUE      1      MOL     
@<SCITEGIC>MOL_PROPERTY
VConf Rank
SciTegic.value.IntegerValue
635

@<SCITEGIC>MOL_PROPERTY
Conf_Id
SciTegic.value.IntegerValue
72

@<SCITEGIC>MOL_PROPERTY
Delta U+W
SciTegic.value.DoubleValue
1.051

@<SCITEGIC>MOL_PROPERTY
U+W
SciTegic.value.DoubleValue
-7.331

@<SCITEGIC>MOL_PROPERTY
Grad RMS
SciTegic.value.DoubleValue
0.000000

@<SCITEGIC>MOL_PROPERTY
U
SciTegic.value.DoubleValue
48.590

@<SCITEGIC>MOL_PROPERTY
W
SciTegic.value.DoubleValue
-55.922

@<SCITEGIC>MOL_PROPERTY
W(PB)
SciTegic.value.DoubleValue
-58.012

@<SCITEGIC>MOL_PROPERTY
W(SA)
SciTegic.value.DoubleValue
2.090

@<SCITEGIC>MOL_PROPERTY
Valence
SciTegic.value.DoubleValue
2.601

@<SCITEGIC>MOL_PROPERTY
Coulomb
SciTegic.value.DoubleValue
45.520

@<SCITEGIC>MOL_PROPERTY
VdW
SciTegic.value.DoubleValue
0.469

@<SCITEGIC>MOL_PROPERTY
VdW6
SciTegic.value.DoubleValue
-6.867

@<SCITEGIC>MOL_PROPERTY
VdW12
SciTegic.value.DoubleValue
7.336

@<SCITEGIC>MOL_PROPERTY
Bond
SciTegic.value.DoubleValue
0.205

@<SCITEGIC>MOL_PROPERTY
Angle
SciTegic.value.DoubleValue
0.962

@<SCITEGIC>MOL_PROPERTY
Pdih
SciTegic.value.DoubleValue
1.434

@<SCITEGIC>MOL_PROPERTY
Idih
SciTegic.value.DoubleValue
0.000

@<SCITEGIC>MOL_PROPERTY
Tether
SciTegic.value.DoubleValue
0.000

@<TRIPOS>MOLECULE
guest-2_confgen4.mol2 : confsearch ligand conformer 636
          23          22           1
SMALL
USER_CHARGES
 
@<TRIPOS>ATOM
       1    N1      22.042633   19.055678   24.748138 N.4        1 MOL1        -0.5940
       2    H1      21.991977   19.011577   25.771587 H          1 MOL1         0.3649
       3    H2      22.829049   19.670614   24.515356 H          1 MOL1         0.3649
       4    H3      22.287674   18.115685   24.420983 H          1 MOL1         0.3649
       5    C1      20.743713   19.545329   24.140943 C.3        1 MOL1         0.0207
       6    H4      20.529862   20.535164   24.553064 H          1 MOL1         0.0950
       7    H5      19.948680   18.863244   24.453379 H          1 MOL1         0.0950
       8    C2      20.786989   19.622816   22.603432 C.3        1 MOL1        -0.1415
       9    H6      21.612186   20.280603   22.299959 H          1 MOL1         0.0976
      10    H7      21.014422   18.632349   22.189087 H          1 MOL1         0.0976
      11    C3      19.468519   20.161618   21.994835 C.3        1 MOL1        -0.1375
      12    H8      19.571980   20.213316   20.902785 H          1 MOL1         0.0976
      13    H9      19.322157   21.198584   22.327385 H          1 MOL1         0.0976
      14    C4      18.200688   19.342064   22.357735 C.3        1 MOL1        -0.1375
      15    H10     18.005643   19.429572   23.435048 H          1 MOL1         0.0976
      16    H11     17.333438   19.800788   21.863147 H          1 MOL1         0.0976
      17    C5      18.255434   17.840236   21.978609 C.3        1 MOL1        -0.1350
      18    H12     17.315747   17.365236   22.293336 H          1 MOL1         0.0976
      19    H13     19.050936   17.334866   22.542430 H          1 MOL1         0.0976
      20    C6      18.453005   17.596971   20.465234 C.3        1 MOL1        -0.2365
      21    H14     17.675320   18.104000   19.879514 H          1 MOL1         0.0987
      22    H15     18.399185   16.524496   20.237764 H          1 MOL1         0.0987
      23    H16     19.430927   17.958539   20.123922 H          1 MOL1         0.0987
@<TRIPOS>BOND
    1     1     2    1
    2     1     3    1
    3     1     4    1
    4     1     5    1
    5     5     6    1
    6     5     7    1
    7     5     8    1
    8     8     9    1
    9     8    10    1
   10     8    11    1
   11    11    12    1
   12    11    13    1
   13    11    14    1
   14    14    15    1
   15    14    16    1
   16    14    17    1
   17    17    18    1
   18    17    19    1
   19    17    20    1
   20    20    21    1
   21    20    22    1
   22    20    23    1
@<TRIPOS>SUBSTRUCTURE
       1 MOL1            1 RESIDUE      1      MOL     
@<SCITEGIC>MOL_PROPERTY
VConf Rank
SciTegic.value.IntegerValue
636

@<SCITEGIC>MOL_PROPERTY
Conf_Id
SciTegic.value.IntegerValue
26

@<SCITEGIC>MOL_PROPERTY
Delta U+W
SciTegic.value.DoubleValue
1.076

@<SCITEGIC>MOL_PROPERTY
U+W
SciTegic.value.DoubleValue
-7.306

@<SCITEGIC>MOL_PROPERTY
Grad RMS
SciTegic.value.DoubleValue
0.000000

@<SCITEGIC>MOL_PROPERTY
U
SciTegic.value.DoubleValue
48.641

@<SCITEGIC>MOL_PROPERTY
W
SciTegic.value.DoubleValue
-55.947

@<SCITEGIC>MOL_PROPERTY
W(PB)
SciTegic.value.DoubleValue
-58.031

@<SCITEGIC>MOL_PROPERTY
W(SA)
SciTegic.value.DoubleValue
2.084

@<SCITEGIC>MOL_PROPERTY
Valence
SciTegic.value.DoubleValue
2.922

@<SCITEGIC>MOL_PROPERTY
Coulomb
SciTegic.value.DoubleValue
45.269

@<SCITEGIC>MOL_PROPERTY
VdW
SciTegic.value.DoubleValue
0.449

@<SCITEGIC>MOL_PROPERTY
VdW6
SciTegic.value.DoubleValue
-7.045

@<SCITEGIC>MOL_PROPERTY
VdW12
SciTegic.value.DoubleValue
7.494

@<SCITEGIC>MOL_PROPERTY
Bond
SciTegic.value.DoubleValue
0.220

@<SCITEGIC>MOL_PROPERTY
Angle
SciTegic.value.DoubleValue
1.205

@<SCITEGIC>MOL_PROPERTY
Pdih
SciTegic.value.DoubleValue
1.497

@<SCITEGIC>MOL_PROPERTY
Idih
SciTegic.value.DoubleValue
0.000

@<SCITEGIC>MOL_PROPERTY
Tether
SciTegic.value.DoubleValue
0.000

@<TRIPOS>MOLECULE
guest-2_confgen4.mol2 : confsearch ligand conformer 637
          23          22           1
SMALL
USER_CHARGES
 
@<TRIPOS>ATOM
       1    N1      18.512516   21.317122   24.263991 N.4        1 MOL1        -0.5940
       2    H1      18.696102   22.259638   23.905183 H          1 MOL1         0.3649
       3    H2      18.366592   21.406709   25.275247 H          1 MOL1         0.3649
       4    H3      17.622127   21.008888   23.860430 H          1 MOL1         0.3649
       5    C1      19.641626   20.359848   23.940925 C.3        1 MOL1         0.0207
       6    H4      19.393755   19.388608   24.377027 H          1 MOL1         0.0950
       7    H5      20.549204   20.732412   24.423467 H          1 MOL1         0.0950
       8    C2      19.886355   20.202749   22.428560 C.3        1 MOL1        -0.1415
       9    H6      18.971943   19.841197   21.941155 H          1 MOL1         0.0976
      10    H7      20.097542   21.188993   21.994449 H          1 MOL1         0.0976
      11    C3      21.067581   19.252936   22.109779 C.3        1 MOL1        -0.1375
      12    H8      21.993764   19.694509   22.502856 H          1 MOL1         0.0976
      13    H9      21.203397   19.201723   21.021256 H          1 MOL1         0.0976
      14    C4      20.922020   17.817192   22.682676 C.3        1 MOL1        -0.1375
      15    H10     21.801554   17.230087   22.384524 H          1 MOL1         0.0976
      16    H11     20.952857   17.857273   23.779829 H          1 MOL1         0.0976
      17    C5      19.643245   17.058912   22.244533 C.3        1 MOL1        -0.1350
      18    H12     18.748962   17.571983   22.622866 H          1 MOL1         0.0976
      19    H13     19.644224   16.067607   22.718880 H          1 MOL1         0.0976
      20    C6      19.532473   16.877511   20.713735 C.3        1 MOL1        -0.2365
      21    H14     19.418114   17.840972   20.201658 H          1 MOL1         0.0987
      22    H15     18.658558   16.263146   20.461408 H          1 MOL1         0.0987
      23    H16     20.422465   16.377249   20.310506 H          1 MOL1         0.0987
@<TRIPOS>BOND
    1     1     2    1
    2     1     3    1
    3     1     4    1
    4     1     5    1
    5     5     6    1
    6     5     7    1
    7     5     8    1
    8     8     9    1
    9     8    10    1
   10     8    11    1
   11    11    12    1
   12    11    13    1
   13    11    14    1
   14    14    15    1
   15    14    16    1
   16    14    17    1
   17    17    18    1
   18    17    19    1
   19    17    20    1
   20    20    21    1
   21    20    22    1
   22    20    23    1
@<TRIPOS>SUBSTRUCTURE
       1 MOL1            1 RESIDUE      1      MOL     
@<SCITEGIC>MOL_PROPERTY
VConf Rank
SciTegic.value.IntegerValue
637

@<SCITEGIC>MOL_PROPERTY
Conf_Id
SciTegic.value.IntegerValue
90

@<SCITEGIC>MOL_PROPERTY
Delta U+W
SciTegic.value.DoubleValue
1.131

@<SCITEGIC>MOL_PROPERTY
U+W
SciTegic.value.DoubleValue
-7.251

@<SCITEGIC>MOL_PROPERTY
Grad RMS
SciTegic.value.DoubleValue
0.000000

@<SCITEGIC>MOL_PROPERTY
U
SciTegic.value.DoubleValue
48.641

@<SCITEGIC>MOL_PROPERTY
W
SciTegic.value.DoubleValue
-55.892

@<SCITEGIC>MOL_PROPERTY
W(PB)
SciTegic.value.DoubleValue
-57.962

@<SCITEGIC>MOL_PROPERTY
W(SA)
SciTegic.value.DoubleValue
2.070

@<SCITEGIC>MOL_PROPERTY
Valence
SciTegic.value.DoubleValue
2.922

@<SCITEGIC>MOL_PROPERTY
Coulomb
SciTegic.value.DoubleValue
45.269

@<SCITEGIC>MOL_PROPERTY
VdW
SciTegic.value.DoubleValue
0.450

@<SCITEGIC>MOL_PROPERTY
VdW6
SciTegic.value.DoubleValue
-7.045

@<SCITEGIC>MOL_PROPERTY
VdW12
SciTegic.value.DoubleValue
7.495

@<SCITEGIC>MOL_PROPERTY
Bond
SciTegic.value.DoubleValue
0.220

@<SCITEGIC>MOL_PROPERTY
Angle
SciTegic.value.DoubleValue
1.205

@<SCITEGIC>MOL_PROPERTY
Pdih
SciTegic.value.DoubleValue
1.497

@<SCITEGIC>MOL_PROPERTY
Idih
SciTegic.value.DoubleValue
0.000

@<SCITEGIC>MOL_PROPERTY
Tether
SciTegic.value.DoubleValue
0.000

@<TRIPOS>MOLECULE
guest-2_confgen4.mol2 : confsearch ligand conformer 638
          23          22           1
SMALL
USER_CHARGES
 
@<TRIPOS>ATOM
       1    N1      18.247784   17.582728   20.939551 N.4        1 MOL1        -0.5940
       2    H1      18.281354   17.288486   19.957641 H          1 MOL1         0.3649
       3    H2      18.382408   18.598245   20.954548 H          1 MOL1         0.3649
       4    H3      17.297186   17.397295   21.275037 H          1 MOL1         0.3649
       5    C1      19.289790   16.868395   21.777613 C.3        1 MOL1         0.0207
       6    H4      20.272902   17.081760   21.350199 H          1 MOL1         0.0950
       7    H5      19.108177   15.793763   21.689845 H          1 MOL1         0.0950
       8    C2      19.269879   17.270789   23.266428 C.3        1 MOL1        -0.1415
       9    H6      18.294294   17.008621   23.696884 H          1 MOL1         0.0976
      10    H7      20.013283   16.667421   23.804146 H          1 MOL1         0.0976
      11    C3      19.553458   18.773323   23.516545 C.3        1 MOL1        -0.1375
      12    H8      19.502842   18.963804   24.597408 H          1 MOL1         0.0976
      13    H9      18.757458   19.376615   23.062094 H          1 MOL1         0.0976
      14    C4      20.936936   19.226270   22.985226 C.3        1 MOL1        -0.1375
      15    H10     21.710948   18.556632   23.384925 H          1 MOL1         0.0976
      16    H11     20.974793   19.125616   21.892355 H          1 MOL1         0.0976
      17    C5      21.297003   20.680629   23.373279 C.3        1 MOL1        -0.1350
      18    H12     22.328329   20.885921   23.053817 H          1 MOL1         0.0976
      19    H13     21.287446   20.787234   24.467045 H          1 MOL1         0.0976
      20    C6      20.360215   21.734300   22.739762 C.3        1 MOL1        -0.2365
      21    H14     20.331663   21.631644   21.647250 H          1 MOL1         0.0987
      22    H15     20.710475   22.748351   22.972044 H          1 MOL1         0.0987
      23    H16     19.335625   21.644561   23.121302 H          1 MOL1         0.0987
@<TRIPOS>BOND
    1     1     2    1
    2     1     3    1
    3     1     4    1
    4     1     5    1
    5     5     6    1
    6     5     7    1
    7     5     8    1
    8     8     9    1
    9     8    10    1
   10     8    11    1
   11    11    12    1
   12    11    13    1
   13    11    14    1
   14    14    15    1
   15    14    16    1
   16    14    17    1
   17    17    18    1
   18    17    19    1
   19    17    20    1
   20    20    21    1
   21    20    22    1
   22    20    23    1
@<TRIPOS>SUBSTRUCTURE
       1 MOL1            1 RESIDUE      1      MOL     
@<SCITEGIC>MOL_PROPERTY
VConf Rank
SciTegic.value.IntegerValue
638

@<SCITEGIC>MOL_PROPERTY
Conf_Id
SciTegic.value.IntegerValue
85

@<SCITEGIC>MOL_PROPERTY
Delta U+W
SciTegic.value.DoubleValue
1.193

@<SCITEGIC>MOL_PROPERTY
U+W
SciTegic.value.DoubleValue
-7.189

@<SCITEGIC>MOL_PROPERTY
Grad RMS
SciTegic.value.DoubleValue
0.000000

@<SCITEGIC>MOL_PROPERTY
U
SciTegic.value.DoubleValue
48.775

@<SCITEGIC>MOL_PROPERTY
W
SciTegic.value.DoubleValue
-55.965

@<SCITEGIC>MOL_PROPERTY
W(PB)
SciTegic.value.DoubleValue
-58.038

@<SCITEGIC>MOL_PROPERTY
W(SA)
SciTegic.value.DoubleValue
2.073

@<SCITEGIC>MOL_PROPERTY
Valence
SciTegic.value.DoubleValue
2.602

@<SCITEGIC>MOL_PROPERTY
Coulomb
SciTegic.value.DoubleValue
45.581

@<SCITEGIC>MOL_PROPERTY
VdW
SciTegic.value.DoubleValue
0.592

@<SCITEGIC>MOL_PROPERTY
VdW6
SciTegic.value.DoubleValue
-6.616

@<SCITEGIC>MOL_PROPERTY
VdW12
SciTegic.value.DoubleValue
7.208

@<SCITEGIC>MOL_PROPERTY
Bond
SciTegic.value.DoubleValue
0.196

@<SCITEGIC>MOL_PROPERTY
Angle
SciTegic.value.DoubleValue
0.832

@<SCITEGIC>MOL_PROPERTY
Pdih
SciTegic.value.DoubleValue
1.574

@<SCITEGIC>MOL_PROPERTY
Idih
SciTegic.value.DoubleValue
0.000

@<SCITEGIC>MOL_PROPERTY
Tether
SciTegic.value.DoubleValue
0.000

@<TRIPOS>MOLECULE
guest-2_confgen4.mol2 : confsearch ligand conformer 639
          23          22           1
SMALL
USER_CHARGES
 
@<TRIPOS>ATOM
       1    N1      21.768554   18.588466   22.504307 N.4        1 MOL1        -0.5940
       2    H1      20.937608   18.118644   22.130854 H          1 MOL1         0.3649
       3    H2      22.359626   17.870191   22.936764 H          1 MOL1         0.3649
       4    H3      22.291430   18.965131   21.706974 H          1 MOL1         0.3649
       5    C1      21.390825   19.675944   23.491412 C.3        1 MOL1         0.0207
       6    H4      22.323153   20.127567   23.841144 H          1 MOL1         0.0950
       7    H5      20.895254   19.213707   24.349243 H          1 MOL1         0.0950
       8    C2      20.490049   20.777576   22.896663 C.3        1 MOL1        -0.1415
       9    H6      20.603021   21.674010   23.520748 H          1 MOL1         0.0976
      10    H7      20.856866   21.059301   21.900697 H          1 MOL1         0.0976
      11    C3      18.977671   20.433191   22.831690 C.3        1 MOL1        -0.1375
      12    H8      18.455630   21.319016   22.444014 H          1 MOL1         0.0976
      13    H9      18.583726   20.281257   23.846182 H          1 MOL1         0.0976
      14    C4      18.610365   19.226918   21.929885 C.3        1 MOL1        -0.1375
      15    H10     17.649685   19.437678   21.439568 H          1 MOL1         0.0976
      16    H11     19.340870   19.125330   21.116394 H          1 MOL1         0.0976
      17    C5      18.461608   17.901319   22.715862 C.3        1 MOL1        -0.1350
      18    H12     17.610271   17.983346   23.406247 H          1 MOL1         0.0976
      19    H13     19.341218   17.712428   23.342668 H          1 MOL1         0.0976
      20    C6      18.235267   16.700940   21.772629 C.3        1 MOL1        -0.2365
      21    H14     17.328438   16.839764   21.169507 H          1 MOL1         0.0987
      22    H15     18.117175   15.773259   22.347643 H          1 MOL1         0.0987
      23    H16     19.082494   16.566855   21.087798 H          1 MOL1         0.0987
@<TRIPOS>BOND
    1     1     2    1
    2     1     3    1
    3     1     4    1
    4     1     5    1
    5     5     6    1
    6     5     7    1
    7     5     8    1
    8     8     9    1
    9     8    10    1
   10     8    11    1
   11    11    12    1
   12    11    13    1
   13    11    14    1
   14    14    15    1
   15    14    16    1
   16    14    17    1
   17    17    18    1
   18    17    19    1
   19    17    20    1
   20    20    21    1
   21    20    22    1
   22    20    23    1
@<TRIPOS>SUBSTRUCTURE
       1 MOL1            1 RESIDUE      1      MOL     
@<SCITEGIC>MOL_PROPERTY
VConf Rank
SciTegic.value.IntegerValue
639

@<SCITEGIC>MOL_PROPERTY
Conf_Id
SciTegic.value.IntegerValue
82

@<SCITEGIC>MOL_PROPERTY
Delta U+W
SciTegic.value.DoubleValue
5.994

@<SCITEGIC>MOL_PROPERTY
U+W
SciTegic.value.DoubleValue
-2.388

@<SCITEGIC>MOL_PROPERTY
Grad RMS
SciTegic.value.DoubleValue
0.000000

@<SCITEGIC>MOL_PROPERTY
U
SciTegic.value.DoubleValue
52.836

@<SCITEGIC>MOL_PROPERTY
W
SciTegic.value.DoubleValue
-55.224

@<SCITEGIC>MOL_PROPERTY
W(PB)
SciTegic.value.DoubleValue
-57.261

@<SCITEGIC>MOL_PROPERTY
W(SA)
SciTegic.value.DoubleValue
2.037

@<SCITEGIC>MOL_PROPERTY
Valence
SciTegic.value.DoubleValue
5.785

@<SCITEGIC>MOL_PROPERTY
Coulomb
SciTegic.value.DoubleValue
46.744

@<SCITEGIC>MOL_PROPERTY
VdW
SciTegic.value.DoubleValue
0.307

@<SCITEGIC>MOL_PROPERTY
VdW6
SciTegic.value.DoubleValue
-7.672

@<SCITEGIC>MOL_PROPERTY
VdW12
SciTegic.value.DoubleValue
7.979

@<SCITEGIC>MOL_PROPERTY
Bond
SciTegic.value.DoubleValue
0.217

@<SCITEGIC>MOL_PROPERTY
Angle
SciTegic.value.DoubleValue
1.470

@<SCITEGIC>MOL_PROPERTY
Pdih
SciTegic.value.DoubleValue
4.098

@<SCITEGIC>MOL_PROPERTY
Idih
SciTegic.value.DoubleValue
0.000

@<SCITEGIC>MOL_PROPERTY
Tether
SciTegic.value.DoubleValue
0.000

@<TRIPOS>MOLECULE
guest-2_confgen4.mol2 : confsearch ligand conformer 640
          23          22           1
SMALL
USER_CHARGES
 
@<TRIPOS>ATOM
       1    N1      19.863859   21.008701   22.117805 N.4        1 MOL1        -0.5940
       2    H1      19.888258   21.664348   22.905553 H          1 MOL1         0.3649
       3    H2      20.148357   21.533358   21.283481 H          1 MOL1         0.3649
       4    H3      20.579375   20.295474   22.291065 H          1 MOL1         0.3649
       5    C1      18.491975   20.384711   21.949796 C.3        1 MOL1         0.0207
       6    H4      18.503288   19.747567   21.061513 H          1 MOL1         0.0950
       7    H5      17.788784   21.202778   21.771473 H          1 MOL1         0.0950
       8    C2      18.018777   19.571692   23.172007 C.3        1 MOL1        -0.1415
       9    H6      18.250611   20.120027   24.094750 H          1 MOL1         0.0976
      10    H7      16.923224   19.510840   23.128416 H          1 MOL1         0.0976
      11    C3      18.570584   18.123161   23.257920 C.3        1 MOL1        -0.1375
      12    H8      18.224426   17.538165   22.394540 H          1 MOL1         0.0976
      13    H9      18.111871   17.648690   24.136535 H          1 MOL1         0.0976
      14    C4      20.110036   18.007233   23.399020 C.3        1 MOL1        -0.1375
      15    H10     20.511786   18.892619   23.909328 H          1 MOL1         0.0976
      16    H11     20.336931   17.157892   24.058471 H          1 MOL1         0.0976
      17    C5      20.829342   17.765922   22.049401 C.3        1 MOL1        -0.1350
      18    H12     20.524592   18.506940   21.300867 H          1 MOL1         0.0976
      19    H13     20.527106   16.788433   21.647774 H          1 MOL1         0.0976
      20    C6      22.364251   17.796211   22.207399 C.3        1 MOL1        -0.2365
      21    H14     22.707780   18.771131   22.576567 H          1 MOL1         0.0987
      22    H15     22.856646   17.608428   21.244350 H          1 MOL1         0.0987
      23    H16     22.702582   17.026267   22.913152 H          1 MOL1         0.0987
@<TRIPOS>BOND
    1     1     2    1
    2     1     3    1
    3     1     4    1
    4     1     5    1
    5     5     6    1
    6     5     7    1
    7     5     8    1
    8     8     9    1
    9     8    10    1
   10     8    11    1
   11    11    12    1
   12    11    13    1
   13    11    14    1
   14    14    15    1
   15    14    16    1
   16    14    17    1
   17    17    18    1
   18    17    19    1
   19    17    20    1
   20    20    21    1
   21    20    22    1
   22    20    23    1
@<TRIPOS>SUBSTRUCTURE
       1 MOL1            1 RESIDUE      1      MOL     
@<SCITEGIC>MOL_PROPERTY
VConf Rank
SciTegic.value.IntegerValue
640

@<SCITEGIC>MOL_PROPERTY
Conf_Id
SciTegic.value.IntegerValue
5

@<SCITEGIC>MOL_PROPERTY
Delta U+W
SciTegic.value.DoubleValue
6.087

@<SCITEGIC>MOL_PROPERTY
U+W
SciTegic.value.DoubleValue
-2.295

@<SCITEGIC>MOL_PROPERTY
Grad RMS
SciTegic.value.DoubleValue
0.000000

@<SCITEGIC>MOL_PROPERTY
U
SciTegic.value.DoubleValue
52.836

@<SCITEGIC>MOL_PROPERTY
W
SciTegic.value.DoubleValue
-55.131

@<SCITEGIC>MOL_PROPERTY
W(PB)
SciTegic.value.DoubleValue
-57.202

@<SCITEGIC>MOL_PROPERTY
W(SA)
SciTegic.value.DoubleValue
2.071

@<SCITEGIC>MOL_PROPERTY
Valence
SciTegic.value.DoubleValue
5.785

@<SCITEGIC>MOL_PROPERTY
Coulomb
SciTegic.value.DoubleValue
46.744

@<SCITEGIC>MOL_PROPERTY
VdW
SciTegic.value.DoubleValue
0.307

@<SCITEGIC>MOL_PROPERTY
VdW6
SciTegic.value.DoubleValue
-7.672

@<SCITEGIC>MOL_PROPERTY
VdW12
SciTegic.value.DoubleValue
7.980

@<SCITEGIC>MOL_PROPERTY
Bond
SciTegic.value.DoubleValue
0.217

@<SCITEGIC>MOL_PROPERTY
Angle
SciTegic.value.DoubleValue
1.470

@<SCITEGIC>MOL_PROPERTY
Pdih
SciTegic.value.DoubleValue
4.098

@<SCITEGIC>MOL_PROPERTY
Idih
SciTegic.value.DoubleValue
0.000

@<SCITEGIC>MOL_PROPERTY
Tether
SciTegic.value.DoubleValue
0.000

@<TRIPOS>MOLECULE
guest-2_confgen4.mol2 : confsearch ligand conformer 641
          23          22           1
SMALL
USER_CHARGES
 
@<TRIPOS>ATOM
       1    N1      23.415966   19.687181   23.608315 N.4        1 MOL1        -0.5940
       2    H1      23.254257   20.618814   24.004288 H          1 MOL1         0.3649
       3    H2      24.354714   19.697992   23.195121 H          1 MOL1         0.3649
       4    H3      23.443271   19.026969   24.392061 H          1 MOL1         0.3649
       5    C1      22.357387   19.313577   22.590608 C.3        1 MOL1         0.0207
       6    H4      22.607394   18.327365   22.190136 H          1 MOL1         0.0950
       7    H5      22.404272   20.038367   21.773308 H          1 MOL1         0.0950
       8    C2      20.935791   19.288322   23.179680 C.3        1 MOL1        -0.1415
       9    H6      20.897663   18.571096   24.010483 H          1 MOL1         0.0976
      10    H7      20.695307   20.276041   23.595223 H          1 MOL1         0.0976
      11    C3      19.887925   18.903868   22.111806 C.3        1 MOL1        -0.1375
      12    H8      20.135033   17.917553   21.694767 H          1 MOL1         0.0976
      13    H9      19.932868   19.620709   21.279988 H          1 MOL1         0.0976
      14    C4      18.455918   18.875381   22.692795 C.3        1 MOL1        -0.1375
      15    H10     18.410778   18.158556   23.524443 H          1 MOL1         0.0976
      16    H11     18.208674   19.861524   23.109814 H          1 MOL1         0.0976
      17    C5      17.408178   18.490943   21.624521 C.3        1 MOL1        -0.1350
      18    H12     17.649802   17.503837   21.205936 H          1 MOL1         0.0976
      19    H13     17.447708   19.206659   20.791357 H          1 MOL1         0.0976
      20    C6      15.979570   18.463532   22.208330 C.3        1 MOL1        -0.2365
      21    H14     15.250123   18.188760   21.435379 H          1 MOL1         0.0987
      22    H15     15.696026   19.447345   22.604493 H          1 MOL1         0.0987
      23    H16     15.899704   17.731238   23.022331 H          1 MOL1         0.0987
@<TRIPOS>BOND
    1     1     2    1
    2     1     3    1
    3     1     4    1
    4     1     5    1
    5     5     6    1
    6     5     7    1
    7     5     8    1
    8     8     9    1
    9     8    10    1
   10     8    11    1
   11    11    12    1
   12    11    13    1
   13    11    14    1
   14    14    15    1
   15    14    16    1
   16    14    17    1
   17    17    18    1
   18    17    19    1
   19    17    20    1
   20    20    21    1
   21    20    22    1
   22    20    23    1
@<TRIPOS>SUBSTRUCTURE
       1 MOL1            1 RESIDUE      1      MOL     
@<SCITEGIC>MOL_PROPERTY
VConf Rank
SciTegic.value.IntegerValue
641

@<SCITEGIC>MOL_PROPERTY
Conf_Id
SciTegic.value.IntegerValue
40

@<SCITEGIC>MOL_PROPERTY
Delta U+W
SciTegic.value.DoubleValue
0.000

@<SCITEGIC>MOL_PROPERTY
U+W
SciTegic.value.DoubleValue
-8.382

@<SCITEGIC>MOL_PROPERTY
Grad RMS
SciTegic.value.DoubleValue
0.000000

@<SCITEGIC>MOL_PROPERTY
U
SciTegic.value.DoubleValue
46.604

@<SCITEGIC>MOL_PROPERTY
W
SciTegic.value.DoubleValue
-54.986

@<SCITEGIC>MOL_PROPERTY
W(PB)
SciTegic.value.DoubleValue
-57.162

@<SCITEGIC>MOL_PROPERTY
W(SA)
SciTegic.value.DoubleValue
2.176

@<SCITEGIC>MOL_PROPERTY
Valence
SciTegic.value.DoubleValue
1.727

@<SCITEGIC>MOL_PROPERTY
Coulomb
SciTegic.value.DoubleValue
44.434

@<SCITEGIC>MOL_PROPERTY
VdW
SciTegic.value.DoubleValue
0.443

@<SCITEGIC>MOL_PROPERTY
VdW6
SciTegic.value.DoubleValue
-4.623

@<SCITEGIC>MOL_PROPERTY
VdW12
SciTegic.value.DoubleValue
5.066

@<SCITEGIC>MOL_PROPERTY
Bond
SciTegic.value.DoubleValue
0.112

@<SCITEGIC>MOL_PROPERTY
Angle
SciTegic.value.DoubleValue
0.386

@<SCITEGIC>MOL_PROPERTY
Pdih
SciTegic.value.DoubleValue
1.228

@<SCITEGIC>MOL_PROPERTY
Idih
SciTegic.value.DoubleValue
0.000

@<SCITEGIC>MOL_PROPERTY
Tether
SciTegic.value.DoubleValue
0.000

@<TRIPOS>MOLECULE
guest-2_confgen4.mol2 : confsearch ligand conformer 642
          23          22           1
SMALL
USER_CHARGES
 
@<TRIPOS>ATOM
       1    N1      17.541108   16.454444   21.492065 N.4        1 MOL1        -0.5940
       2    H1      17.422011   15.743414   22.220825 H          1 MOL1         0.3649
       3    H2      18.160045   16.054841   20.779276 H          1 MOL1         0.3649
       4    H3      16.624324   16.585500   21.051200 H          1 MOL1         0.3649
       5    C1      18.087237   17.752105   22.052066 C.3        1 MOL1         0.0207
       6    H4      17.367396   18.134675   22.780682 H          1 MOL1         0.0950
       7    H5      18.157995   18.468148   21.229391 H          1 MOL1         0.0950
       8    C2      19.464702   17.587743   22.721922 C.3        1 MOL1        -0.1415
       9    H6      19.388721   16.831149   23.514222 H          1 MOL1         0.0976
      10    H7      20.188450   17.204638   21.990209 H          1 MOL1         0.0976
      11    C3      19.994399   18.904977   23.336688 C.3        1 MOL1        -0.1375
      12    H8      20.916190   18.679837   23.888570 H          1 MOL1         0.0976
      13    H9      19.272803   19.280694   24.075272 H          1 MOL1         0.0976
      14    C4      20.277309   20.000163   22.276922 C.3        1 MOL1        -0.1375
      15    H10     21.014586   19.631280   21.550582 H          1 MOL1         0.0976
      16    H11     19.360860   20.207129   21.708774 H          1 MOL1         0.0976
      17    C5      20.776189   21.332839   22.886527 C.3        1 MOL1        -0.1350
      18    H12     20.037467   21.712092   23.606428 H          1 MOL1         0.0976
      19    H13     20.838667   22.083915   22.086618 H          1 MOL1         0.0976
      20    C6      22.158138   21.219694   23.569758 C.3        1 MOL1        -0.2365
      21    H14     22.118988   20.575140   24.456479 H          1 MOL1         0.0987
      22    H15     22.506627   22.207936   23.896685 H          1 MOL1         0.0987
      23    H16     22.907784   20.811316   22.879636 H          1 MOL1         0.0987
@<TRIPOS>BOND
    1     1     2    1
    2     1     3    1
    3     1     4    1
    4     1     5    1
    5     5     6    1
    6     5     7    1
    7     5     8    1
    8     8     9    1
    9     8    10    1
   10     8    11    1
   11    11    12    1
   12    11    13    1
   13    11    14    1
   14    14    15    1
   15    14    16    1
   16    14    17    1
   17    17    18    1
   18    17    19    1
   19    17    20    1
   20    20    21    1
   21    20    22    1
   22    20    23    1
@<TRIPOS>SUBSTRUCTURE
       1 MOL1            1 RESIDUE      1      MOL     
@<SCITEGIC>MOL_PROPERTY
VConf Rank
SciTegic.value.IntegerValue
642

@<SCITEGIC>MOL_PROPERTY
Conf_Id
SciTegic.value.IntegerValue
65

@<SCITEGIC>MOL_PROPERTY
Delta U+W
SciTegic.value.DoubleValue
1.004

@<SCITEGIC>MOL_PROPERTY
U+W
SciTegic.value.DoubleValue
-7.378

@<SCITEGIC>MOL_PROPERTY
Grad RMS
SciTegic.value.DoubleValue
0.000000

@<SCITEGIC>MOL_PROPERTY
U
SciTegic.value.DoubleValue
48.047

@<SCITEGIC>MOL_PROPERTY
W
SciTegic.value.DoubleValue
-55.425

@<SCITEGIC>MOL_PROPERTY
W(PB)
SciTegic.value.DoubleValue
-57.542

@<SCITEGIC>MOL_PROPERTY
W(SA)
SciTegic.value.DoubleValue
2.116

@<SCITEGIC>MOL_PROPERTY
Valence
SciTegic.value.DoubleValue
2.583

@<SCITEGIC>MOL_PROPERTY
Coulomb
SciTegic.value.DoubleValue
44.791

@<SCITEGIC>MOL_PROPERTY
VdW
SciTegic.value.DoubleValue
0.673

@<SCITEGIC>MOL_PROPERTY
VdW6
SciTegic.value.DoubleValue
-5.788

@<SCITEGIC>MOL_PROPERTY
VdW12
SciTegic.value.DoubleValue
6.462

@<SCITEGIC>MOL_PROPERTY
Bond
SciTegic.value.DoubleValue
0.177

@<SCITEGIC>MOL_PROPERTY
Angle
SciTegic.value.DoubleValue
0.787

@<SCITEGIC>MOL_PROPERTY
Pdih
SciTegic.value.DoubleValue
1.619

@<SCITEGIC>MOL_PROPERTY
Idih
SciTegic.value.DoubleValue
0.000

@<SCITEGIC>MOL_PROPERTY
Tether
SciTegic.value.DoubleValue
0.000

@<TRIPOS>MOLECULE
guest-2_confgen4.mol2 : confsearch ligand conformer 643
          23          22           1
SMALL
USER_CHARGES
 
@<TRIPOS>ATOM
       1    N1      19.466042   21.952245   24.634883 N.4        1 MOL1        -0.5940
       2    H1      20.238838   22.598103   24.443853 H          1 MOL1         0.3649
       3    H2      19.292768   21.985735   25.645270 H          1 MOL1         0.3649
       4    H3      18.632785   22.335314   24.176870 H          1 MOL1         0.3649
       5    C1      19.774661   20.545929   24.162861 C.3        1 MOL1         0.0207
       6    H4      18.925147   19.910605   24.425936 H          1 MOL1         0.0950
       7    H5      20.652372   20.191311   24.709926 H          1 MOL1         0.0950
       8    C2      20.040154   20.462752   22.647694 C.3        1 MOL1        -0.1415
       9    H6      19.158417   20.817712   22.097669 H          1 MOL1         0.0976
      10    H7      20.864385   21.141713   22.391567 H          1 MOL1         0.0976
      11    C3      20.404669   19.033912   22.179550 C.3        1 MOL1        -0.1375
      12    H8      21.292910   18.685348   22.724437 H          1 MOL1         0.0976
      13    H9      20.688123   19.081705   21.120147 H          1 MOL1         0.0976
      14    C4      19.246669   18.019964   22.362636 C.3        1 MOL1        -0.1375
      15    H10     18.947200   17.990979   23.418564 H          1 MOL1         0.0976
      16    H11     18.365365   18.358554   21.800605 H          1 MOL1         0.0976
      17    C5      19.613968   16.580418   21.927528 C.3        1 MOL1        -0.1350
      18    H12     18.786607   15.909391   22.197838 H          1 MOL1         0.0976
      19    H13     20.488897   16.232407   22.494260 H          1 MOL1         0.0976
      20    C6      19.887837   16.444796   20.412275 C.3        1 MOL1        -0.2365
      21    H14     20.785722   16.999157   20.112702 H          1 MOL1         0.0987
      22    H15     19.040091   16.817274   19.822701 H          1 MOL1         0.0987
      23    H16     20.046262   15.392327   20.143657 H          1 MOL1         0.0987
@<TRIPOS>BOND
    1     1     2    1
    2     1     3    1
    3     1     4    1
    4     1     5    1
    5     5     6    1
    6     5     7    1
    7     5     8    1
    8     8     9    1
    9     8    10    1
   10     8    11    1
   11    11    12    1
   12    11    13    1
   13    11    14    1
   14    14    15    1
   15    14    16    1
   16    14    17    1
   17    17    18    1
   18    17    19    1
   19    17    20    1
   20    20    21    1
   21    20    22    1
   22    20    23    1
@<TRIPOS>SUBSTRUCTURE
       1 MOL1            1 RESIDUE      1      MOL     
@<SCITEGIC>MOL_PROPERTY
VConf Rank
SciTegic.value.IntegerValue
643

@<SCITEGIC>MOL_PROPERTY
Conf_Id
SciTegic.value.IntegerValue
92

@<SCITEGIC>MOL_PROPERTY
Delta U+W
SciTegic.value.DoubleValue
0.973

@<SCITEGIC>MOL_PROPERTY
U+W
SciTegic.value.DoubleValue
-7.409

@<SCITEGIC>MOL_PROPERTY
Grad RMS
SciTegic.value.DoubleValue
0.000000

@<SCITEGIC>MOL_PROPERTY
U
SciTegic.value.DoubleValue
48.047

@<SCITEGIC>MOL_PROPERTY
W
SciTegic.value.DoubleValue
-55.456

@<SCITEGIC>MOL_PROPERTY
W(PB)
SciTegic.value.DoubleValue
-57.595

@<SCITEGIC>MOL_PROPERTY
W(SA)
SciTegic.value.DoubleValue
2.138

@<SCITEGIC>MOL_PROPERTY
Valence
SciTegic.value.DoubleValue
2.583

@<SCITEGIC>MOL_PROPERTY
Coulomb
SciTegic.value.DoubleValue
44.791

@<SCITEGIC>MOL_PROPERTY
VdW
SciTegic.value.DoubleValue
0.674

@<SCITEGIC>MOL_PROPERTY
VdW6
SciTegic.value.DoubleValue
-5.789

@<SCITEGIC>MOL_PROPERTY
VdW12
SciTegic.value.DoubleValue
6.462

@<SCITEGIC>MOL_PROPERTY
Bond
SciTegic.value.DoubleValue
0.177

@<SCITEGIC>MOL_PROPERTY
Angle
SciTegic.value.DoubleValue
0.787

@<SCITEGIC>MOL_PROPERTY
Pdih
SciTegic.value.DoubleValue
1.619

@<SCITEGIC>MOL_PROPERTY
Idih
SciTegic.value.DoubleValue
0.000

@<SCITEGIC>MOL_PROPERTY
Tether
SciTegic.value.DoubleValue
0.000

@<TRIPOS>MOLECULE
guest-2_confgen4.mol2 : confsearch ligand conformer 644
          23          22           1
SMALL
USER_CHARGES
 
@<TRIPOS>ATOM
       1    N1      18.577898   15.902070   23.908822 N.4        1 MOL1        -0.5940
       2    H1      18.212596   15.836316   24.864994 H          1 MOL1         0.3649
       3    H2      19.182136   15.086671   23.764340 H          1 MOL1         0.3649
       4    H3      17.777549   15.799997   23.276476 H          1 MOL1         0.3649
       5    C1      19.319122   17.203162   23.677475 C.3        1 MOL1         0.0207
       6    H4      20.137322   17.258741   24.400578 H          1 MOL1         0.0950
       7    H5      18.625903   18.024036   23.878243 H          1 MOL1         0.0950
       8    C2      19.880666   17.331975   22.248862 C.3        1 MOL1        -0.1415
       9    H6      20.540177   16.478047   22.044415 H          1 MOL1         0.0976
      10    H7      19.058889   17.275305   21.522593 H          1 MOL1         0.0976
      11    C3      20.674808   18.642057   22.034256 C.3        1 MOL1        -0.1375
      12    H8      21.121206   18.622785   21.030360 H          1 MOL1         0.0976
      13    H9      21.511664   18.683822   22.745296 H          1 MOL1         0.0976
      14    C4      19.802658   19.912459   22.178801 C.3        1 MOL1        -0.1375
      15    H10     18.948716   19.852037   21.489925 H          1 MOL1         0.0976
      16    H11     19.388825   19.970434   23.194399 H          1 MOL1         0.0976
      17    C5      20.608433   21.197800   21.886573 C.3        1 MOL1        -0.1350
      18    H12     21.020723   21.154514   20.868682 H          1 MOL1         0.0976
      19    H13     21.464593   21.262966   22.572665 H          1 MOL1         0.0976
      20    C6      19.738054   22.464193   22.032355 C.3        1 MOL1        -0.2365
      21    H14     18.891109   22.443641   21.334151 H          1 MOL1         0.0987
      22    H15     20.327206   23.365928   21.820651 H          1 MOL1         0.0987
      23    H16     19.339146   22.554073   23.051185 H          1 MOL1         0.0987
@<TRIPOS>BOND
    1     1     2    1
    2     1     3    1
    3     1     4    1
    4     1     5    1
    5     5     6    1
    6     5     7    1
    7     5     8    1
    8     8     9    1
    9     8    10    1
   10     8    11    1
   11    11    12    1
   12    11    13    1
   13    11    14    1
   14    14    15    1
   15    14    16    1
   16    14    17    1
   17    17    18    1
   18    17    19    1
   19    17    20    1
   20    20    21    1
   21    20    22    1
   22    20    23    1
@<TRIPOS>SUBSTRUCTURE
       1 MOL1            1 RESIDUE      1      MOL     
@<SCITEGIC>MOL_PROPERTY
VConf Rank
SciTegic.value.IntegerValue
644

@<SCITEGIC>MOL_PROPERTY
Conf_Id
SciTegic.value.IntegerValue
42

@<SCITEGIC>MOL_PROPERTY
Delta U+W
SciTegic.value.DoubleValue
0.365

@<SCITEGIC>MOL_PROPERTY
U+W
SciTegic.value.DoubleValue
-8.017

@<SCITEGIC>MOL_PROPERTY
Grad RMS
SciTegic.value.DoubleValue
0.000000

@<SCITEGIC>MOL_PROPERTY
U
SciTegic.value.DoubleValue
47.375

@<SCITEGIC>MOL_PROPERTY
W
SciTegic.value.DoubleValue
-55.392

@<SCITEGIC>MOL_PROPERTY
W(PB)
SciTegic.value.DoubleValue
-57.543

@<SCITEGIC>MOL_PROPERTY
W(SA)
SciTegic.value.DoubleValue
2.152

@<SCITEGIC>MOL_PROPERTY
Valence
SciTegic.value.DoubleValue
2.032

@<SCITEGIC>MOL_PROPERTY
Coulomb
SciTegic.value.DoubleValue
44.843

@<SCITEGIC>MOL_PROPERTY
VdW
SciTegic.value.DoubleValue
0.499

@<SCITEGIC>MOL_PROPERTY
VdW6
SciTegic.value.DoubleValue
-5.218

@<SCITEGIC>MOL_PROPERTY
VdW12
SciTegic.value.DoubleValue
5.717

@<SCITEGIC>MOL_PROPERTY
Bond
SciTegic.value.DoubleValue
0.135

@<SCITEGIC>MOL_PROPERTY
Angle
SciTegic.value.DoubleValue
0.514

@<SCITEGIC>MOL_PROPERTY
Pdih
SciTegic.value.DoubleValue
1.383

@<SCITEGIC>MOL_PROPERTY
Idih
SciTegic.value.DoubleValue
0.000

@<SCITEGIC>MOL_PROPERTY
Tether
SciTegic.value.DoubleValue
0.000

@<TRIPOS>MOLECULE
guest-2_confgen4.mol2 : confsearch ligand conformer 645
          23          22           1
SMALL
USER_CHARGES
 
@<TRIPOS>ATOM
       1    N1      22.004994   16.806415   22.096983 N.4        1 MOL1        -0.5940
       2    H1      21.334853   16.030849   22.090605 H          1 MOL1         0.3649
       3    H2      22.936727   16.395201   22.218328 H          1 MOL1         0.3649
       4    H3      21.984967   17.231631   21.165215 H          1 MOL1         0.3649
       5    C1      21.689422   17.815321   23.184230 C.3        1 MOL1         0.0207
       6    H4      22.450855   18.599301   23.152340 H          1 MOL1         0.0950
       7    H5      21.770974   17.300720   24.145535 H          1 MOL1         0.0950
       8    C2      20.288848   18.446686   23.061752 C.3        1 MOL1        -0.1415
       9    H6      19.527504   17.655493   23.066238 H          1 MOL1         0.0976
      10    H7      20.118664   19.060140   23.954965 H          1 MOL1         0.0976
      11    C3      20.137360   19.326385   21.796846 C.3        1 MOL1        -0.1375
      12    H8      20.409153   18.739986   20.909379 H          1 MOL1         0.0976
      13    H9      20.853677   20.158272   21.844392 H          1 MOL1         0.0976
      14    C4      18.709121   19.889187   21.576744 C.3        1 MOL1        -0.1375
      15    H10     18.718609   20.453551   20.633934 H          1 MOL1         0.0976
      16    H11     17.998764   19.065706   21.420227 H          1 MOL1         0.0976
      17    C5      18.199055   20.831949   22.697223 C.3        1 MOL1        -0.1350
      18    H12     17.592746   21.625373   22.238050 H          1 MOL1         0.0976
      19    H13     19.043393   21.340720   23.182861 H          1 MOL1         0.0976
      20    C6      17.324044   20.114615   23.751760 C.3        1 MOL1        -0.2365
      21    H14     16.436824   19.667122   23.285230 H          1 MOL1         0.0987
      22    H15     16.976615   20.827035   24.511145 H          1 MOL1         0.0987
      23    H16     17.870088   19.318164   24.269081 H          1 MOL1         0.0987
@<TRIPOS>BOND
    1     1     2    1
    2     1     3    1
    3     1     4    1
    4     1     5    1
    5     5     6    1
    6     5     7    1
    7     5     8    1
    8     8     9    1
    9     8    10    1
   10     8    11    1
   11    11    12    1
   12    11    13    1
   13    11    14    1
   14    14    15    1
   15    14    16    1
   16    14    17    1
   17    17    18    1
   18    17    19    1
   19    17    20    1
   20    20    21    1
   21    20    22    1
   22    20    23    1
@<TRIPOS>SUBSTRUCTURE
       1 MOL1            1 RESIDUE      1      MOL     
@<SCITEGIC>MOL_PROPERTY
VConf Rank
SciTegic.value.IntegerValue
645

@<SCITEGIC>MOL_PROPERTY
Conf_Id
SciTegic.value.IntegerValue
3

@<SCITEGIC>MOL_PROPERTY
Delta U+W
SciTegic.value.DoubleValue
3.283

@<SCITEGIC>MOL_PROPERTY
U+W
SciTegic.value.DoubleValue
-5.099

@<SCITEGIC>MOL_PROPERTY
Grad RMS
SciTegic.value.DoubleValue
0.000000

@<SCITEGIC>MOL_PROPERTY
U
SciTegic.value.DoubleValue
50.701

@<SCITEGIC>MOL_PROPERTY
W
SciTegic.value.DoubleValue
-55.800

@<SCITEGIC>MOL_PROPERTY
W(PB)
SciTegic.value.DoubleValue
-57.867

@<SCITEGIC>MOL_PROPERTY
W(SA)
SciTegic.value.DoubleValue
2.067

@<SCITEGIC>MOL_PROPERTY
Valence
SciTegic.value.DoubleValue
4.880

@<SCITEGIC>MOL_PROPERTY
Coulomb
SciTegic.value.DoubleValue
45.095

@<SCITEGIC>MOL_PROPERTY
VdW
SciTegic.value.DoubleValue
0.726

@<SCITEGIC>MOL_PROPERTY
VdW6
SciTegic.value.DoubleValue
-6.620

@<SCITEGIC>MOL_PROPERTY
VdW12
SciTegic.value.DoubleValue
7.346

@<SCITEGIC>MOL_PROPERTY
Bond
SciTegic.value.DoubleValue
0.222

@<SCITEGIC>MOL_PROPERTY
Angle
SciTegic.value.DoubleValue
1.260

@<SCITEGIC>MOL_PROPERTY
Pdih
SciTegic.value.DoubleValue
3.398

@<SCITEGIC>MOL_PROPERTY
Idih
SciTegic.value.DoubleValue
0.000

@<SCITEGIC>MOL_PROPERTY
Tether
SciTegic.value.DoubleValue
0.000

@<TRIPOS>MOLECULE
guest-2_confgen4.mol2 : confsearch ligand conformer 646
          23          22           1
SMALL
USER_CHARGES
 
@<TRIPOS>ATOM
       1    N1      22.048199   17.248236   22.277885 N.4        1 MOL1        -0.5940
       2    H1      21.793929   16.260491   22.379183 H          1 MOL1         0.3649
       3    H2      23.048132   17.278223   22.051901 H          1 MOL1         0.3649
       4    H3      21.544390   17.609034   21.462041 H          1 MOL1         0.3649
       5    C1      21.729155   18.042932   23.528869 C.3        1 MOL1         0.0207
       6    H4      22.051209   19.074657   23.366650 H          1 MOL1         0.0950
       7    H5      22.323776   17.627886   24.347214 H          1 MOL1         0.0950
       8    C2      20.236546   18.015688   23.917008 C.3        1 MOL1        -0.1415
       9    H6      19.940425   16.979333   24.126970 H          1 MOL1         0.0976
      10    H7      20.107116   18.566804   24.857954 H          1 MOL1         0.0976
      11    C3      19.290171   18.609860   22.843239 C.3        1 MOL1        -0.1375
      12    H8      18.258608   18.502487   23.202716 H          1 MOL1         0.0976
      13    H9      19.354871   18.019468   21.919660 H          1 MOL1         0.0976
      14    C4      19.578379   20.101073   22.533965 C.3        1 MOL1        -0.1375
      15    H10     19.486047   20.694535   23.453990 H          1 MOL1         0.0976
      16    H11     20.617410   20.212871   22.197411 H          1 MOL1         0.0976
      17    C5      18.653935   20.693723   21.442811 C.3        1 MOL1        -0.1350
      18    H12     18.750272   20.110472   20.516386 H          1 MOL1         0.0976
      19    H13     18.999042   21.709282   21.203216 H          1 MOL1         0.0976
      20    C6      17.167928   20.761139   21.863030 C.3        1 MOL1        -0.2365
      21    H14     17.048467   21.311360   22.805364 H          1 MOL1         0.0987
      22    H15     16.738605   19.759989   21.991970 H          1 MOL1         0.0987
      23    H16     16.575350   21.276825   21.096314 H          1 MOL1         0.0987
@<TRIPOS>BOND
    1     1     2    1
    2     1     3    1
    3     1     4    1
    4     1     5    1
    5     5     6    1
    6     5     7    1
    7     5     8    1
    8     8     9    1
    9     8    10    1
   10     8    11    1
   11    11    12    1
   12    11    13    1
   13    11    14    1
   14    14    15    1
   15    14    16    1
   16    14    17    1
   17    17    18    1
   18    17    19    1
   19    17    20    1
   20    20    21    1
   21    20    22    1
   22    20    23    1
@<TRIPOS>SUBSTRUCTURE
       1 MOL1            1 RESIDUE      1      MOL     
@<SCITEGIC>MOL_PROPERTY
VConf Rank
SciTegic.value.IntegerValue
646

@<SCITEGIC>MOL_PROPERTY
Conf_Id
SciTegic.value.IntegerValue
83

@<SCITEGIC>MOL_PROPERTY
Delta U+W
SciTegic.value.DoubleValue
1.229

@<SCITEGIC>MOL_PROPERTY
U+W
SciTegic.value.DoubleValue
-7.154

@<SCITEGIC>MOL_PROPERTY
Grad RMS
SciTegic.value.DoubleValue
0.000000

@<SCITEGIC>MOL_PROPERTY
U
SciTegic.value.DoubleValue
48.727

@<SCITEGIC>MOL_PROPERTY
W
SciTegic.value.DoubleValue
-55.880

@<SCITEGIC>MOL_PROPERTY
W(PB)
SciTegic.value.DoubleValue
-57.960

@<SCITEGIC>MOL_PROPERTY
W(SA)
SciTegic.value.DoubleValue
2.080

@<SCITEGIC>MOL_PROPERTY
Valence
SciTegic.value.DoubleValue
2.671

@<SCITEGIC>MOL_PROPERTY
Coulomb
SciTegic.value.DoubleValue
45.371

@<SCITEGIC>MOL_PROPERTY
VdW
SciTegic.value.DoubleValue
0.684

@<SCITEGIC>MOL_PROPERTY
VdW6
SciTegic.value.DoubleValue
-6.511

@<SCITEGIC>MOL_PROPERTY
VdW12
SciTegic.value.DoubleValue
7.195

@<SCITEGIC>MOL_PROPERTY
Bond
SciTegic.value.DoubleValue
0.203

@<SCITEGIC>MOL_PROPERTY
Angle
SciTegic.value.DoubleValue
0.915

@<SCITEGIC>MOL_PROPERTY
Pdih
SciTegic.value.DoubleValue
1.554

@<SCITEGIC>MOL_PROPERTY
Idih
SciTegic.value.DoubleValue
0.000

@<SCITEGIC>MOL_PROPERTY
Tether
SciTegic.value.DoubleValue
0.000

@<TRIPOS>MOLECULE
guest-2_confgen4.mol2 : confsearch ligand conformer 647
          23          22           1
SMALL
USER_CHARGES
 
@<TRIPOS>ATOM
       1    N1      20.559178   21.512877   23.832745 N.4        1 MOL1        -0.5940
       2    H1      20.718178   21.428308   24.841765 H          1 MOL1         0.3649
       3    H2      19.568359   21.314292   23.664095 H          1 MOL1         0.3649
       4    H3      20.715478   22.496121   23.586504 H          1 MOL1         0.3649
       5    C1      21.458537   20.583939   23.041214 C.3        1 MOL1         0.0207
       6    H4      22.493855   20.873346   23.240933 H          1 MOL1         0.0950
       7    H5      21.261588   20.745346   21.978365 H          1 MOL1         0.0950
       8    C2      21.268916   19.092916   23.387875 C.3        1 MOL1        -0.1415
       9    H6      21.993502   18.502350   22.811623 H          1 MOL1         0.0976
      10    H7      21.520040   18.936828   24.445408 H          1 MOL1         0.0976
      11    C3      19.841205   18.554487   23.116980 C.3        1 MOL1        -0.1375
      12    H8      19.115079   19.087217   23.745222 H          1 MOL1         0.0976
      13    H9      19.808056   17.504493   23.435239 H          1 MOL1         0.0976
      14    C4      19.422477   18.657983   21.628227 C.3        1 MOL1        -0.1375
      15    H10     19.478714   19.704815   21.302137 H          1 MOL1         0.0976
      16    H11     20.134630   18.101155   21.003768 H          1 MOL1         0.0976
      17    C5      17.987116   18.146549   21.355063 C.3        1 MOL1        -0.1350
      18    H12     17.730145   18.362484   20.308545 H          1 MOL1         0.0976
      19    H13     17.268946   18.707523   21.969283 H          1 MOL1         0.0976
      20    C6      17.813932   16.631121   21.605716 C.3        1 MOL1        -0.2365
      21    H14     18.543415   16.049209   21.027580 H          1 MOL1         0.0987
      22    H15     16.810193   16.304575   21.304366 H          1 MOL1         0.0987
      23    H16     17.936400   16.380383   22.666553 H          1 MOL1         0.0987
@<TRIPOS>BOND
    1     1     2    1
    2     1     3    1
    3     1     4    1
    4     1     5    1
    5     5     6    1
    6     5     7    1
    7     5     8    1
    8     8     9    1
    9     8    10    1
   10     8    11    1
   11    11    12    1
   12    11    13    1
   13    11    14    1
   14    14    15    1
   15    14    16    1
   16    14    17    1
   17    17    18    1
   18    17    19    1
   19    17    20    1
   20    20    21    1
   21    20    22    1
   22    20    23    1
@<TRIPOS>SUBSTRUCTURE
       1 MOL1            1 RESIDUE      1      MOL     
@<SCITEGIC>MOL_PROPERTY
VConf Rank
SciTegic.value.IntegerValue
647

@<SCITEGIC>MOL_PROPERTY
Conf_Id
SciTegic.value.IntegerValue
50

@<SCITEGIC>MOL_PROPERTY
Delta U+W
SciTegic.value.DoubleValue
1.252

@<SCITEGIC>MOL_PROPERTY
U+W
SciTegic.value.DoubleValue
-7.130

@<SCITEGIC>MOL_PROPERTY
Grad RMS
SciTegic.value.DoubleValue
0.000000

@<SCITEGIC>MOL_PROPERTY
U
SciTegic.value.DoubleValue
48.727

@<SCITEGIC>MOL_PROPERTY
W
SciTegic.value.DoubleValue
-55.857

@<SCITEGIC>MOL_PROPERTY
W(PB)
SciTegic.value.DoubleValue
-57.937

@<SCITEGIC>MOL_PROPERTY
W(SA)
SciTegic.value.DoubleValue
2.080

@<SCITEGIC>MOL_PROPERTY
Valence
SciTegic.value.DoubleValue
2.671

@<SCITEGIC>MOL_PROPERTY
Coulomb
SciTegic.value.DoubleValue
45.371

@<SCITEGIC>MOL_PROPERTY
VdW
SciTegic.value.DoubleValue
0.684

@<SCITEGIC>MOL_PROPERTY
VdW6
SciTegic.value.DoubleValue
-6.511

@<SCITEGIC>MOL_PROPERTY
VdW12
SciTegic.value.DoubleValue
7.196

@<SCITEGIC>MOL_PROPERTY
Bond
SciTegic.value.DoubleValue
0.203

@<SCITEGIC>MOL_PROPERTY
Angle
SciTegic.value.DoubleValue
0.915

@<SCITEGIC>MOL_PROPERTY
Pdih
SciTegic.value.DoubleValue
1.554

@<SCITEGIC>MOL_PROPERTY
Idih
SciTegic.value.DoubleValue
0.000

@<SCITEGIC>MOL_PROPERTY
Tether
SciTegic.value.DoubleValue
0.000

@<TRIPOS>MOLECULE
guest-2_confgen4.mol2 : confsearch ligand conformer 648
          23          22           1
SMALL
USER_CHARGES
 
@<TRIPOS>ATOM
       1    N1      17.812039   19.972502   20.320956 N.4        1 MOL1        -0.5940
       2    H1      18.218362   19.114418   19.936083 H          1 MOL1         0.3649
       3    H2      17.651389   20.607887   19.532029 H          1 MOL1         0.3649
       4    H3      16.891572   19.728551   20.700237 H          1 MOL1         0.3649
       5    C1      18.707951   20.596882   21.372969 C.3        1 MOL1         0.0207
       6    H4      18.232175   21.523447   21.705666 H          1 MOL1         0.0950
       7    H5      19.659361   20.853768   20.899429 H          1 MOL1         0.0950
       8    C2      18.964019   19.688546   22.591211 C.3        1 MOL1        -0.1415
       9    H6      19.524122   20.264518   23.336331 H          1 MOL1         0.0976
      10    H7      18.005542   19.429210   23.060077 H          1 MOL1         0.0976
      11    C3      19.735637   18.396227   22.220815 C.3        1 MOL1        -0.1375
      12    H8      20.651485   18.643177   21.666205 H          1 MOL1         0.0976
      13    H9      19.114902   17.803784   21.535478 H          1 MOL1         0.0976
      14    C4      20.079677   17.512004   23.447963 C.3        1 MOL1        -0.1375
      15    H10     19.326968   17.644816   24.237256 H          1 MOL1         0.0976
      16    H11     20.005048   16.459005   23.142817 H          1 MOL1         0.0976
      17    C5      21.501861   17.729494   24.025285 C.3        1 MOL1        -0.1350
      18    H12     22.251271   17.495242   23.256334 H          1 MOL1         0.0976
      19    H13     21.662970   17.005979   24.836694 H          1 MOL1         0.0976
      20    C6      21.756730   19.151083   24.572238 C.3        1 MOL1        -0.2365
      21    H14     20.988845   19.438525   25.302008 H          1 MOL1         0.0987
      22    H15     21.767674   19.893058   23.764385 H          1 MOL1         0.0987
      23    H16     22.731638   19.199525   25.074331 H          1 MOL1         0.0987
@<TRIPOS>BOND
    1     1     2    1
    2     1     3    1
    3     1     4    1
    4     1     5    1
    5     5     6    1
    6     5     7    1
    7     5     8    1
    8     8     9    1
    9     8    10    1
   10     8    11    1
   11    11    12    1
   12    11    13    1
   13    11    14    1
   14    14    15    1
   15    14    16    1
   16    14    17    1
   17    17    18    1
   18    17    19    1
   19    17    20    1
   20    20    21    1
   21    20    22    1
   22    20    23    1
@<TRIPOS>SUBSTRUCTURE
       1 MOL1            1 RESIDUE      1      MOL     
@<SCITEGIC>MOL_PROPERTY
VConf Rank
SciTegic.value.IntegerValue
648

@<SCITEGIC>MOL_PROPERTY
Conf_Id
SciTegic.value.IntegerValue
55

@<SCITEGIC>MOL_PROPERTY
Delta U+W
SciTegic.value.DoubleValue
3.232

@<SCITEGIC>MOL_PROPERTY
U+W
SciTegic.value.DoubleValue
-5.150

@<SCITEGIC>MOL_PROPERTY
Grad RMS
SciTegic.value.DoubleValue
0.000000

@<SCITEGIC>MOL_PROPERTY
U
SciTegic.value.DoubleValue
50.625

@<SCITEGIC>MOL_PROPERTY
W
SciTegic.value.DoubleValue
-55.776

@<SCITEGIC>MOL_PROPERTY
W(PB)
SciTegic.value.DoubleValue
-57.839

@<SCITEGIC>MOL_PROPERTY
W(SA)
SciTegic.value.DoubleValue
2.064

@<SCITEGIC>MOL_PROPERTY
Valence
SciTegic.value.DoubleValue
4.837

@<SCITEGIC>MOL_PROPERTY
Coulomb
SciTegic.value.DoubleValue
45.097

@<SCITEGIC>MOL_PROPERTY
VdW
SciTegic.value.DoubleValue
0.692

@<SCITEGIC>MOL_PROPERTY
VdW6
SciTegic.value.DoubleValue
-6.655

@<SCITEGIC>MOL_PROPERTY
VdW12
SciTegic.value.DoubleValue
7.347

@<SCITEGIC>MOL_PROPERTY
Bond
SciTegic.value.DoubleValue
0.223

@<SCITEGIC>MOL_PROPERTY
Angle
SciTegic.value.DoubleValue
1.167

@<SCITEGIC>MOL_PROPERTY
Pdih
SciTegic.value.DoubleValue
3.447

@<SCITEGIC>MOL_PROPERTY
Idih
SciTegic.value.DoubleValue
0.000

@<SCITEGIC>MOL_PROPERTY
Tether
SciTegic.value.DoubleValue
0.000

@<TRIPOS>MOLECULE
guest-2_confgen4.mol2 : confsearch ligand conformer 649
          23          22           1
SMALL
USER_CHARGES
 
@<TRIPOS>ATOM
       1    N1      17.028467   18.241513   21.468137 N.4        1 MOL1        -0.5940
       2    H1      16.570420   17.356026   21.706746 H          1 MOL1         0.3649
       3    H2      16.778502   18.453441   20.496231 H          1 MOL1         0.3649
       4    H3      16.601252   18.968385   22.051147 H          1 MOL1         0.3649
       5    C1      18.529617   18.171124   21.661121 C.3        1 MOL1         0.0207
       6    H4      18.950399   19.130561   21.354913 H          1 MOL1         0.0950
       7    H5      18.918602   17.399340   20.991464 H          1 MOL1         0.0950
       8    C2      18.935877   17.846853   23.112185 C.3        1 MOL1        -0.1415
       9    H6      18.512813   18.588745   23.802457 H          1 MOL1         0.0976
      10    H7      18.488660   16.881106   23.383014 H          1 MOL1         0.0976
      11    C3      20.470230   17.751306   23.307368 C.3        1 MOL1        -0.1375
      12    H8      20.933006   17.281897   22.428109 H          1 MOL1         0.0976
      13    H9      20.665888   17.068445   24.145769 H          1 MOL1         0.0976
      14    C4      21.174295   19.095925   23.626374 C.3        1 MOL1        -0.1375
      15    H10     20.775240   19.504260   24.565155 H          1 MOL1         0.0976
      16    H11     22.237337   18.889031   23.812326 H          1 MOL1         0.0976
      17    C5      21.059478   20.163065   22.513481 C.3        1 MOL1        -0.1350
      18    H12     20.017901   20.497196   22.421893 H          1 MOL1         0.0976
      19    H13     21.349017   19.727918   21.546790 H          1 MOL1         0.0976
      20    C6      21.947151   21.390937   22.808518 C.3        1 MOL1        -0.2365
      21    H14     23.006103   21.107911   22.869606 H          1 MOL1         0.0987
      22    H15     21.664091   21.863315   23.758247 H          1 MOL1         0.0987
      23    H16     21.845289   22.142485   22.014899 H          1 MOL1         0.0987
@<TRIPOS>BOND
    1     1     2    1
    2     1     3    1
    3     1     4    1
    4     1     5    1
    5     5     6    1
    6     5     7    1
    7     5     8    1
    8     8     9    1
    9     8    10    1
   10     8    11    1
   11    11    12    1
   12    11    13    1
   13    11    14    1
   14    14    15    1
   15    14    16    1
   16    14    17    1
   17    17    18    1
   18    17    19    1
   19    17    20    1
   20    20    21    1
   21    20    22    1
   22    20    23    1
@<TRIPOS>SUBSTRUCTURE
       1 MOL1            1 RESIDUE      1      MOL     
@<SCITEGIC>MOL_PROPERTY
VConf Rank
SciTegic.value.IntegerValue
649

@<SCITEGIC>MOL_PROPERTY
Conf_Id
SciTegic.value.IntegerValue
93

@<SCITEGIC>MOL_PROPERTY
Delta U+W
SciTegic.value.DoubleValue
2.589

@<SCITEGIC>MOL_PROPERTY
U+W
SciTegic.value.DoubleValue
-5.793

@<SCITEGIC>MOL_PROPERTY
Grad RMS
SciTegic.value.DoubleValue
0.000000

@<SCITEGIC>MOL_PROPERTY
U
SciTegic.value.DoubleValue
50.122

@<SCITEGIC>MOL_PROPERTY
W
SciTegic.value.DoubleValue
-55.915

@<SCITEGIC>MOL_PROPERTY
W(PB)
SciTegic.value.DoubleValue
-58.031

@<SCITEGIC>MOL_PROPERTY
W(SA)
SciTegic.value.DoubleValue
2.115

@<SCITEGIC>MOL_PROPERTY
Valence
SciTegic.value.DoubleValue
4.132

@<SCITEGIC>MOL_PROPERTY
Coulomb
SciTegic.value.DoubleValue
45.536

@<SCITEGIC>MOL_PROPERTY
VdW
SciTegic.value.DoubleValue
0.454

@<SCITEGIC>MOL_PROPERTY
VdW6
SciTegic.value.DoubleValue
-6.262

@<SCITEGIC>MOL_PROPERTY
VdW12
SciTegic.value.DoubleValue
6.715

@<SCITEGIC>MOL_PROPERTY
Bond
SciTegic.value.DoubleValue
0.182

@<SCITEGIC>MOL_PROPERTY
Angle
SciTegic.value.DoubleValue
1.157

@<SCITEGIC>MOL_PROPERTY
Pdih
SciTegic.value.DoubleValue
2.794

@<SCITEGIC>MOL_PROPERTY
Idih
SciTegic.value.DoubleValue
0.000

@<SCITEGIC>MOL_PROPERTY
Tether
SciTegic.value.DoubleValue
0.000

@<TRIPOS>MOLECULE
guest-2_confgen4.mol2 : confsearch ligand conformer 650
          23          22           1
SMALL
USER_CHARGES
 
@<TRIPOS>ATOM
       1    N1      18.235897   17.512630   20.238771 N.4        1 MOL1        -0.5940
       2    H1      17.438662   17.333783   20.857791 H          1 MOL1         0.3649
       3    H2      18.561844   16.600646   19.901068 H          1 MOL1         0.3649
       4    H3      17.876704   18.020486   19.423976 H          1 MOL1         0.3649
       5    C1      19.337372   18.279379   20.941975 C.3        1 MOL1         0.0207
       6    H4      20.161403   18.407883   20.234968 H          1 MOL1         0.0950
       7    H5      19.693550   17.665721   21.771373 H          1 MOL1         0.0950
       8    C2      18.878525   19.658616   21.454765 C.3        1 MOL1        -0.1415
       9    H6      18.522643   20.240480   20.594068 H          1 MOL1         0.0976
      10    H7      18.020225   19.548876   22.130887 H          1 MOL1         0.0976
      11    C3      20.009424   20.454662   22.153938 C.3        1 MOL1        -0.1375
      12    H8      19.794231   21.526087   22.038880 H          1 MOL1         0.0976
      13    H9      20.963883   20.286392   21.635962 H          1 MOL1         0.0976
      14    C4      20.168511   20.170677   23.670354 C.3        1 MOL1        -0.1375
      15    H10     20.945862   20.840472   24.063469 H          1 MOL1         0.0976
      16    H11     19.240735   20.441969   24.192776 H          1 MOL1         0.0976
      17    C5      20.543703   18.711254   24.016500 C.3        1 MOL1        -0.1350
      18    H12     21.404301   18.392875   23.411782 H          1 MOL1         0.0976
      19    H13     19.708229   18.042458   23.772348 H          1 MOL1         0.0976
      20    C6      20.882751   18.550535   25.513797 C.3        1 MOL1        -0.2365
      21    H14     21.135838   17.507488   25.744074 H          1 MOL1         0.0987
      22    H15     20.031036   18.837657   26.144187 H          1 MOL1         0.0987
      23    H16     21.741368   19.174575   25.794093 H          1 MOL1         0.0987
@<TRIPOS>BOND
    1     1     2    1
    2     1     3    1
    3     1     4    1
    4     1     5    1
    5     5     6    1
    6     5     7    1
    7     5     8    1
    8     8     9    1
    9     8    10    1
   10     8    11    1
   11    11    12    1
   12    11    13    1
   13    11    14    1
   14    14    15    1
   15    14    16    1
   16    14    17    1
   17    17    18    1
   18    17    19    1
   19    17    20    1
   20    20    21    1
   21    20    22    1
   22    20    23    1
@<TRIPOS>SUBSTRUCTURE
       1 MOL1            1 RESIDUE      1      MOL     
@<SCITEGIC>MOL_PROPERTY
VConf Rank
SciTegic.value.IntegerValue
650

@<SCITEGIC>MOL_PROPERTY
Conf_Id
SciTegic.value.IntegerValue
70

@<SCITEGIC>MOL_PROPERTY
Delta U+W
SciTegic.value.DoubleValue
2.599

@<SCITEGIC>MOL_PROPERTY
U+W
SciTegic.value.DoubleValue
-5.783

@<SCITEGIC>MOL_PROPERTY
Grad RMS
SciTegic.value.DoubleValue
0.000000

@<SCITEGIC>MOL_PROPERTY
U
SciTegic.value.DoubleValue
50.122

@<SCITEGIC>MOL_PROPERTY
W
SciTegic.value.DoubleValue
-55.906

@<SCITEGIC>MOL_PROPERTY
W(PB)
SciTegic.value.DoubleValue
-58.010

@<SCITEGIC>MOL_PROPERTY
W(SA)
SciTegic.value.DoubleValue
2.105

@<SCITEGIC>MOL_PROPERTY
Valence
SciTegic.value.DoubleValue
4.132

@<SCITEGIC>MOL_PROPERTY
Coulomb
SciTegic.value.DoubleValue
45.536

@<SCITEGIC>MOL_PROPERTY
VdW
SciTegic.value.DoubleValue
0.454

@<SCITEGIC>MOL_PROPERTY
VdW6
SciTegic.value.DoubleValue
-6.262

@<SCITEGIC>MOL_PROPERTY
VdW12
SciTegic.value.DoubleValue
6.715

@<SCITEGIC>MOL_PROPERTY
Bond
SciTegic.value.DoubleValue
0.182

@<SCITEGIC>MOL_PROPERTY
Angle
SciTegic.value.DoubleValue
1.157

@<SCITEGIC>MOL_PROPERTY
Pdih
SciTegic.value.DoubleValue
2.794

@<SCITEGIC>MOL_PROPERTY
Idih
SciTegic.value.DoubleValue
0.000

@<SCITEGIC>MOL_PROPERTY
Tether
SciTegic.value.DoubleValue
0.000

@<TRIPOS>MOLECULE
guest-2_confgen4.mol2 : confsearch ligand conformer 651
          23          22           1
SMALL
USER_CHARGES
 
@<TRIPOS>ATOM
       1    N1      19.847953   20.026273   19.941333 N.4        1 MOL1        -0.5940
       2    H1      20.671692   20.434689   19.488389 H          1 MOL1         0.3649
       3    H2      19.038876   20.256328   19.354619 H          1 MOL1         0.3649
       4    H3      19.960599   19.008426   19.913691 H          1 MOL1         0.3649
       5    C1      19.677395   20.531840   21.360328 C.3        1 MOL1         0.0207
       6    H4      18.767943   20.086893   21.772474 H          1 MOL1         0.0950
       7    H5      19.534368   21.614805   21.313158 H          1 MOL1         0.0950
       8    C2      20.874719   20.212650   22.278105 C.3        1 MOL1        -0.1415
       9    H6      21.775317   20.693045   21.873310 H          1 MOL1         0.0976
      10    H7      20.703558   20.676591   23.257840 H          1 MOL1         0.0976
      11    C3      21.143751   18.695389   22.458504 C.3        1 MOL1        -0.1375
      12    H8      21.983254   18.565222   23.155279 H          1 MOL1         0.0976
      13    H9      21.482920   18.271839   21.503620 H          1 MOL1         0.0976
      14    C4      19.931569   17.873295   22.967990 C.3        1 MOL1        -0.1375
      15    H10     19.113554   17.914939   22.236547 H          1 MOL1         0.0976
      16    H11     20.230008   16.817511   23.027927 H          1 MOL1         0.0976
      17    C5      19.414835   18.328103   24.353280 C.3        1 MOL1        -0.1350
      18    H12     19.044600   19.360551   24.299273 H          1 MOL1         0.0976
      19    H13     20.241419   18.323217   25.077468 H          1 MOL1         0.0976
      20    C6      18.280179   17.415507   24.865245 C.3        1 MOL1        -0.2365
      21    H14     17.923937   17.753616   25.846972 H          1 MOL1         0.0987
      22    H15     18.624435   16.378452   24.971060 H          1 MOL1         0.0987
      23    H16     17.425932   17.423578   24.175752 H          1 MOL1         0.0987
@<TRIPOS>BOND
    1     1     2    1
    2     1     3    1
    3     1     4    1
    4     1     5    1
    5     5     6    1
    6     5     7    1
    7     5     8    1
    8     8     9    1
    9     8    10    1
   10     8    11    1
   11    11    12    1
   12    11    13    1
   13    11    14    1
   14    14    15    1
   15    14    16    1
   16    14    17    1
   17    17    18    1
   18    17    19    1
   19    17    20    1
   20    20    21    1
   21    20    22    1
   22    20    23    1
@<TRIPOS>SUBSTRUCTURE
       1 MOL1            1 RESIDUE      1      MOL     
@<SCITEGIC>MOL_PROPERTY
VConf Rank
SciTegic.value.IntegerValue
651

@<SCITEGIC>MOL_PROPERTY
Conf_Id
SciTegic.value.IntegerValue
72

@<SCITEGIC>MOL_PROPERTY
Delta U+W
SciTegic.value.DoubleValue
1.051

@<SCITEGIC>MOL_PROPERTY
U+W
SciTegic.value.DoubleValue
-7.331

@<SCITEGIC>MOL_PROPERTY
Grad RMS
SciTegic.value.DoubleValue
0.000000

@<SCITEGIC>MOL_PROPERTY
U
SciTegic.value.DoubleValue
48.590

@<SCITEGIC>MOL_PROPERTY
W
SciTegic.value.DoubleValue
-55.922

@<SCITEGIC>MOL_PROPERTY
W(PB)
SciTegic.value.DoubleValue
-58.012

@<SCITEGIC>MOL_PROPERTY
W(SA)
SciTegic.value.DoubleValue
2.090

@<SCITEGIC>MOL_PROPERTY
Valence
SciTegic.value.DoubleValue
2.601

@<SCITEGIC>MOL_PROPERTY
Coulomb
SciTegic.value.DoubleValue
45.520

@<SCITEGIC>MOL_PROPERTY
VdW
SciTegic.value.DoubleValue
0.469

@<SCITEGIC>MOL_PROPERTY
VdW6
SciTegic.value.DoubleValue
-6.867

@<SCITEGIC>MOL_PROPERTY
VdW12
SciTegic.value.DoubleValue
7.336

@<SCITEGIC>MOL_PROPERTY
Bond
SciTegic.value.DoubleValue
0.205

@<SCITEGIC>MOL_PROPERTY
Angle
SciTegic.value.DoubleValue
0.962

@<SCITEGIC>MOL_PROPERTY
Pdih
SciTegic.value.DoubleValue
1.434

@<SCITEGIC>MOL_PROPERTY
Idih
SciTegic.value.DoubleValue
0.000

@<SCITEGIC>MOL_PROPERTY
Tether
SciTegic.value.DoubleValue
0.000

@<TRIPOS>MOLECULE
guest-2_confgen4.mol2 : confsearch ligand conformer 652
          23          22           1
SMALL
USER_CHARGES
 
@<TRIPOS>ATOM
       1    N1      21.700140   17.417549   24.516626 N.4        1 MOL1        -0.5940
       2    H1      22.282767   16.593286   24.334709 H          1 MOL1         0.3649
       3    H2      21.396124   17.357275   25.493726 H          1 MOL1         0.3649
       4    H3      22.311089   18.237099   24.440851 H          1 MOL1         0.3649
       5    C1      20.525180   17.497713   23.563378 C.3        1 MOL1         0.0207
       6    H4      19.935402   16.584044   23.676164 H          1 MOL1         0.0950
       7    H5      20.920536   17.528698   22.544719 H          1 MOL1         0.0950
       8    C2      19.629585   18.726011   23.810382 C.3        1 MOL1        -0.1415
       9    H6      19.268339   18.704577   24.847094 H          1 MOL1         0.0976
      10    H7      20.223531   19.643409   23.710189 H          1 MOL1         0.0976
      11    C3      18.409961   18.777799   22.857020 C.3        1 MOL1        -0.1375
      12    H8      17.802741   19.660362   23.098506 H          1 MOL1         0.0976
      13    H9      17.765241   17.911177   23.058550 H          1 MOL1         0.0976
      14    C4      18.764605   18.789722   21.345450 C.3        1 MOL1        -0.1375
      15    H10     19.226209   17.831536   21.071401 H          1 MOL1         0.0976
      16    H11     17.831974   18.843489   20.767109 H          1 MOL1         0.0976
      17    C5      19.698164   19.942501   20.896242 C.3        1 MOL1        -0.1350
      18    H12     19.887286   19.840085   19.818544 H          1 MOL1         0.0976
      19    H13     20.678090   19.849448   21.383278 H          1 MOL1         0.0976
      20    C6      19.112048   21.346673   21.166955 C.3        1 MOL1        -0.2365
      21    H14     18.125194   21.458872   20.699547 H          1 MOL1         0.0987
      22    H15     19.769004   22.123663   20.755207 H          1 MOL1         0.0987
      23    H16     19.006954   21.538354   22.242024 H          1 MOL1         0.0987
@<TRIPOS>BOND
    1     1     2    1
    2     1     3    1
    3     1     4    1
    4     1     5    1
    5     5     6    1
    6     5     7    1
    7     5     8    1
    8     8     9    1
    9     8    10    1
   10     8    11    1
   11    11    12    1
   12    11    13    1
   13    11    14    1
   14    14    15    1
   15    14    16    1
   16    14    17    1
   17    17    18    1
   18    17    19    1
   19    17    20    1
   20    20    21    1
   21    20    22    1
   22    20    23    1
@<TRIPOS>SUBSTRUCTURE
       1 MOL1            1 RESIDUE      1      MOL     
@<SCITEGIC>MOL_PROPERTY
VConf Rank
SciTegic.value.IntegerValue
652

@<SCITEGIC>MOL_PROPERTY
Conf_Id
SciTegic.value.IntegerValue
26

@<SCITEGIC>MOL_PROPERTY
Delta U+W
SciTegic.value.DoubleValue
1.076

@<SCITEGIC>MOL_PROPERTY
U+W
SciTegic.value.DoubleValue
-7.306

@<SCITEGIC>MOL_PROPERTY
Grad RMS
SciTegic.value.DoubleValue
0.000000

@<SCITEGIC>MOL_PROPERTY
U
SciTegic.value.DoubleValue
48.641

@<SCITEGIC>MOL_PROPERTY
W
SciTegic.value.DoubleValue
-55.947

@<SCITEGIC>MOL_PROPERTY
W(PB)
SciTegic.value.DoubleValue
-58.031

@<SCITEGIC>MOL_PROPERTY
W(SA)
SciTegic.value.DoubleValue
2.084

@<SCITEGIC>MOL_PROPERTY
Valence
SciTegic.value.DoubleValue
2.922

@<SCITEGIC>MOL_PROPERTY
Coulomb
SciTegic.value.DoubleValue
45.269

@<SCITEGIC>MOL_PROPERTY
VdW
SciTegic.value.DoubleValue
0.449

@<SCITEGIC>MOL_PROPERTY
VdW6
SciTegic.value.DoubleValue
-7.045

@<SCITEGIC>MOL_PROPERTY
VdW12
SciTegic.value.DoubleValue
7.494

@<SCITEGIC>MOL_PROPERTY
Bond
SciTegic.value.DoubleValue
0.220

@<SCITEGIC>MOL_PROPERTY
Angle
SciTegic.value.DoubleValue
1.205

@<SCITEGIC>MOL_PROPERTY
Pdih
SciTegic.value.DoubleValue
1.497

@<SCITEGIC>MOL_PROPERTY
Idih
SciTegic.value.DoubleValue
0.000

@<SCITEGIC>MOL_PROPERTY
Tether
SciTegic.value.DoubleValue
0.000

@<TRIPOS>MOLECULE
guest-2_confgen4.mol2 : confsearch ligand conformer 653
          23          22           1
SMALL
USER_CHARGES
 
@<TRIPOS>ATOM
       1    N1      22.225500   18.565948   24.572209 N.4        1 MOL1        -0.5940
       2    H1      22.352963   19.304406   25.271648 H          1 MOL1         0.3649
       3    H2      23.149934   18.156569   24.399612 H          1 MOL1         0.3649
       4    H3      21.652169   17.835351   25.006009 H          1 MOL1         0.3649
       5    C1      21.598124   19.096043   23.299011 C.3        1 MOL1         0.0207
       6    H4      21.520607   18.266052   22.591877 H          1 MOL1         0.0950
       7    H5      22.272217   19.846207   22.876871 H          1 MOL1         0.0950
       8    C2      20.207300   19.717860   23.524338 C.3        1 MOL1        -0.1415
       9    H6      19.533344   18.969378   23.960217 H          1 MOL1         0.0976
      10    H7      20.290324   20.525407   24.263732 H          1 MOL1         0.0976
      11    C3      19.591527   20.291876   22.224188 C.3        1 MOL1        -0.1375
      12    H8      20.219402   21.121337   21.870522 H          1 MOL1         0.0976
      13    H9      18.615286   20.738206   22.455908 H          1 MOL1         0.0976
      14    C4      19.432009   19.265265   21.070332 C.3        1 MOL1        -0.1375
      15    H10     18.974434   19.773135   20.210181 H          1 MOL1         0.0976
      16    H11     20.424900   18.943556   20.728319 H          1 MOL1         0.0976
      17    C5      18.589983   18.010688   21.415658 C.3        1 MOL1        -0.1350
      18    H12     19.083585   17.427186   22.204329 H          1 MOL1         0.0976
      19    H13     18.558224   17.356589   20.533140 H          1 MOL1         0.0976
      20    C6      17.141709   18.342612   21.840916 C.3        1 MOL1        -0.2365
      21    H14     17.117763   18.904829   22.782668 H          1 MOL1         0.0987
      22    H15     16.564143   17.421347   21.991015 H          1 MOL1         0.0987
      23    H16     16.631529   18.937418   21.072239 H          1 MOL1         0.0987
@<TRIPOS>BOND
    1     1     2    1
    2     1     3    1
    3     1     4    1
    4     1     5    1
    5     5     6    1
    6     5     7    1
    7     5     8    1
    8     8     9    1
    9     8    10    1
   10     8    11    1
   11    11    12    1
   12    11    13    1
   13    11    14    1
   14    14    15    1
   15    14    16    1
   16    14    17    1
   17    17    18    1
   18    17    19    1
   19    17    20    1
   20    20    21    1
   21    20    22    1
   22    20    23    1
@<TRIPOS>SUBSTRUCTURE
       1 MOL1            1 RESIDUE      1      MOL     
@<SCITEGIC>MOL_PROPERTY
VConf Rank
SciTegic.value.IntegerValue
653

@<SCITEGIC>MOL_PROPERTY
Conf_Id
SciTegic.value.IntegerValue
90

@<SCITEGIC>MOL_PROPERTY
Delta U+W
SciTegic.value.DoubleValue
1.131

@<SCITEGIC>MOL_PROPERTY
U+W
SciTegic.value.DoubleValue
-7.251

@<SCITEGIC>MOL_PROPERTY
Grad RMS
SciTegic.value.DoubleValue
0.000000

@<SCITEGIC>MOL_PROPERTY
U
SciTegic.value.DoubleValue
48.641

@<SCITEGIC>MOL_PROPERTY
W
SciTegic.value.DoubleValue
-55.892

@<SCITEGIC>MOL_PROPERTY
W(PB)
SciTegic.value.DoubleValue
-57.962

@<SCITEGIC>MOL_PROPERTY
W(SA)
SciTegic.value.DoubleValue
2.070

@<SCITEGIC>MOL_PROPERTY
Valence
SciTegic.value.DoubleValue
2.922

@<SCITEGIC>MOL_PROPERTY
Coulomb
SciTegic.value.DoubleValue
45.269

@<SCITEGIC>MOL_PROPERTY
VdW
SciTegic.value.DoubleValue
0.450

@<SCITEGIC>MOL_PROPERTY
VdW6
SciTegic.value.DoubleValue
-7.045

@<SCITEGIC>MOL_PROPERTY
VdW12
SciTegic.value.DoubleValue
7.495

@<SCITEGIC>MOL_PROPERTY
Bond
SciTegic.value.DoubleValue
0.220

@<SCITEGIC>MOL_PROPERTY
Angle
SciTegic.value.DoubleValue
1.205

@<SCITEGIC>MOL_PROPERTY
Pdih
SciTegic.value.DoubleValue
1.497

@<SCITEGIC>MOL_PROPERTY
Idih
SciTegic.value.DoubleValue
0.000

@<SCITEGIC>MOL_PROPERTY
Tether
SciTegic.value.DoubleValue
0.000

@<TRIPOS>MOLECULE
guest-2_confgen4.mol2 : confsearch ligand conformer 654
          23          22           1
SMALL
USER_CHARGES
 
@<TRIPOS>ATOM
       1    N1      20.537931   21.466012   22.899451 N.4        1 MOL1        -0.5940
       2    H1      21.422325   21.979345   22.978120 H          1 MOL1         0.3649
       3    H2      20.549960   20.733550   23.615676 H          1 MOL1         0.3649
       4    H3      19.789079   22.120647   23.146932 H          1 MOL1         0.3649
       5    C1      20.343929   20.887475   21.511628 C.3        1 MOL1         0.0207
       6    H4      21.187691   20.225903   21.299250 H          1 MOL1         0.0950
       7    H5      20.374798   21.715589   20.798330 H          1 MOL1         0.0950
       8    C2      19.019835   20.114934   21.341789 C.3        1 MOL1        -0.1415
       9    H6      18.179042   20.800643   21.511082 H          1 MOL1         0.0976
      10    H7      18.937656   19.782314   20.298499 H          1 MOL1         0.0976
      11    C3      18.880039   18.890702   22.281094 C.3        1 MOL1        -0.1375
      12    H8      17.905182   18.418364   22.097618 H          1 MOL1         0.0976
      13    H9      18.863953   19.229924   23.324537 H          1 MOL1         0.0976
      14    C4      20.000139   17.839209   22.078090 C.3        1 MOL1        -0.1375
      15    H10     20.055895   17.576326   21.012702 H          1 MOL1         0.0976
      16    H11     20.975655   18.268665   22.342415 H          1 MOL1         0.0976
      17    C5      19.779291   16.542376   22.893470 C.3        1 MOL1        -0.1350
      18    H12     20.552756   15.813578   22.613398 H          1 MOL1         0.0976
      19    H13     18.816562   16.089250   22.618499 H          1 MOL1         0.0976
      20    C6      19.832693   16.762631   24.422448 C.3        1 MOL1        -0.2365
      21    H14     20.775582   17.239283   24.720274 H          1 MOL1         0.0987
      22    H15     19.760487   15.803352   24.951130 H          1 MOL1         0.0987
      23    H16     19.003764   17.392333   24.768515 H          1 MOL1         0.0987
@<TRIPOS>BOND
    1     1     2    1
    2     1     3    1
    3     1     4    1
    4     1     5    1
    5     5     6    1
    6     5     7    1
    7     5     8    1
    8     8     9    1
    9     8    10    1
   10     8    11    1
   11    11    12    1
   12    11    13    1
   13    11    14    1
   14    14    15    1
   15    14    16    1
   16    14    17    1
   17    17    18    1
   18    17    19    1
   19    17    20    1
   20    20    21    1
   21    20    22    1
   22    20    23    1
@<TRIPOS>SUBSTRUCTURE
       1 MOL1            1 RESIDUE      1      MOL     
@<SCITEGIC>MOL_PROPERTY
VConf Rank
SciTegic.value.IntegerValue
654

@<SCITEGIC>MOL_PROPERTY
Conf_Id
SciTegic.value.IntegerValue
85

@<SCITEGIC>MOL_PROPERTY
Delta U+W
SciTegic.value.DoubleValue
1.193

@<SCITEGIC>MOL_PROPERTY
U+W
SciTegic.value.DoubleValue
-7.189

@<SCITEGIC>MOL_PROPERTY
Grad RMS
SciTegic.value.DoubleValue
0.000000

@<SCITEGIC>MOL_PROPERTY
U
SciTegic.value.DoubleValue
48.775

@<SCITEGIC>MOL_PROPERTY
W
SciTegic.value.DoubleValue
-55.965

@<SCITEGIC>MOL_PROPERTY
W(PB)
SciTegic.value.DoubleValue
-58.038

@<SCITEGIC>MOL_PROPERTY
W(SA)
SciTegic.value.DoubleValue
2.073

@<SCITEGIC>MOL_PROPERTY
Valence
SciTegic.value.DoubleValue
2.602

@<SCITEGIC>MOL_PROPERTY
Coulomb
SciTegic.value.DoubleValue
45.581

@<SCITEGIC>MOL_PROPERTY
VdW
SciTegic.value.DoubleValue
0.592

@<SCITEGIC>MOL_PROPERTY
VdW6
SciTegic.value.DoubleValue
-6.616

@<SCITEGIC>MOL_PROPERTY
VdW12
SciTegic.value.DoubleValue
7.208

@<SCITEGIC>MOL_PROPERTY
Bond
SciTegic.value.DoubleValue
0.196

@<SCITEGIC>MOL_PROPERTY
Angle
SciTegic.value.DoubleValue
0.832

@<SCITEGIC>MOL_PROPERTY
Pdih
SciTegic.value.DoubleValue
1.574

@<SCITEGIC>MOL_PROPERTY
Idih
SciTegic.value.DoubleValue
0.000

@<SCITEGIC>MOL_PROPERTY
Tether
SciTegic.value.DoubleValue
0.000

@<TRIPOS>MOLECULE
guest-2_confgen4.mol2 : confsearch ligand conformer 655
          23          22           1
SMALL
USER_CHARGES
 
@<TRIPOS>ATOM
       1    N1      20.729266   20.628686   23.181627 N.4        1 MOL1        -0.5940
       2    H1      20.243011   20.337907   22.327417 H          1 MOL1         0.3649
       3    H2      21.622086   21.047840   22.899694 H          1 MOL1         0.3649
       4    H3      20.172291   21.373929   23.612215 H          1 MOL1         0.3649
       5    C1      20.929603   19.460420   24.127503 C.3        1 MOL1         0.0207
       6    H4      21.449008   19.848026   25.008123 H          1 MOL1         0.0950
       7    H5      21.580988   18.726823   23.645154 H          1 MOL1         0.0950
       8    C2      19.618000   18.783103   24.574334 C.3        1 MOL1        -0.1415
       9    H6      19.819306   18.254404   25.515499 H          1 MOL1         0.0976
      10    H7      18.868871   19.548619   24.816537 H          1 MOL1         0.0976
      11    C3      19.027709   17.755999   23.570977 C.3        1 MOL1        -0.1375
      12    H8      18.135974   17.315706   24.038371 H          1 MOL1         0.0976
      13    H9      19.728798   16.921223   23.432794 H          1 MOL1         0.0976
      14    C4      18.611093   18.336875   22.195378 C.3        1 MOL1        -0.1375
      15    H10     17.706187   17.814021   21.855515 H          1 MOL1         0.0976
      16    H11     18.321002   19.390650   22.300885 H          1 MOL1         0.0976
      17    C5      19.697439   18.162915   21.106024 C.3        1 MOL1        -0.1350
      18    H12     19.842310   17.091683   20.907005 H          1 MOL1         0.0976
      19    H13     20.667589   18.539506   21.451373 H          1 MOL1         0.0976
      20    C6      19.307883   18.874118   19.792912 C.3        1 MOL1        -0.2365
      21    H14     18.364318   18.477732   19.395507 H          1 MOL1         0.0987
      22    H15     20.082011   18.727435   19.028458 H          1 MOL1         0.0987
      23    H16     19.186064   19.954219   19.945588 H          1 MOL1         0.0987
@<TRIPOS>BOND
    1     1     2    1
    2     1     3    1
    3     1     4    1
    4     1     5    1
    5     5     6    1
    6     5     7    1
    7     5     8    1
    8     8     9    1
    9     8    10    1
   10     8    11    1
   11    11    12    1
   12    11    13    1
   13    11    14    1
   14    14    15    1
   15    14    16    1
   16    14    17    1
   17    17    18    1
   18    17    19    1
   19    17    20    1
   20    20    21    1
   21    20    22    1
   22    20    23    1
@<TRIPOS>SUBSTRUCTURE
       1 MOL1            1 RESIDUE      1      MOL     
@<SCITEGIC>MOL_PROPERTY
VConf Rank
SciTegic.value.IntegerValue
655

@<SCITEGIC>MOL_PROPERTY
Conf_Id
SciTegic.value.IntegerValue
82

@<SCITEGIC>MOL_PROPERTY
Delta U+W
SciTegic.value.DoubleValue
5.994

@<SCITEGIC>MOL_PROPERTY
U+W
SciTegic.value.DoubleValue
-2.388

@<SCITEGIC>MOL_PROPERTY
Grad RMS
SciTegic.value.DoubleValue
0.000000

@<SCITEGIC>MOL_PROPERTY
U
SciTegic.value.DoubleValue
52.836

@<SCITEGIC>MOL_PROPERTY
W
SciTegic.value.DoubleValue
-55.224

@<SCITEGIC>MOL_PROPERTY
W(PB)
SciTegic.value.DoubleValue
-57.261

@<SCITEGIC>MOL_PROPERTY
W(SA)
SciTegic.value.DoubleValue
2.037

@<SCITEGIC>MOL_PROPERTY
Valence
SciTegic.value.DoubleValue
5.785

@<SCITEGIC>MOL_PROPERTY
Coulomb
SciTegic.value.DoubleValue
46.744

@<SCITEGIC>MOL_PROPERTY
VdW
SciTegic.value.DoubleValue
0.307

@<SCITEGIC>MOL_PROPERTY
VdW6
SciTegic.value.DoubleValue
-7.672

@<SCITEGIC>MOL_PROPERTY
VdW12
SciTegic.value.DoubleValue
7.979

@<SCITEGIC>MOL_PROPERTY
Bond
SciTegic.value.DoubleValue
0.217

@<SCITEGIC>MOL_PROPERTY
Angle
SciTegic.value.DoubleValue
1.470

@<SCITEGIC>MOL_PROPERTY
Pdih
SciTegic.value.DoubleValue
4.098

@<SCITEGIC>MOL_PROPERTY
Idih
SciTegic.value.DoubleValue
0.000

@<SCITEGIC>MOL_PROPERTY
Tether
SciTegic.value.DoubleValue
0.000

@<TRIPOS>MOLECULE
guest-2_confgen4.mol2 : confsearch ligand conformer 656
          23          22           1
SMALL
USER_CHARGES
 
@<TRIPOS>ATOM
       1    N1      21.778168   18.199874   22.553209 N.4        1 MOL1        -0.5940
       2    H1      21.960457   17.394265   23.160481 H          1 MOL1         0.3649
       3    H2      22.534635   18.229452   21.860978 H          1 MOL1         0.3649
       4    H3      20.906524   18.011144   22.047945 H          1 MOL1         0.3649
       5    C1      21.688812   19.490147   23.344958 C.3        1 MOL1         0.0207
       6    H4      21.559479   20.321379   22.646779 H          1 MOL1         0.0950
       7    H5      22.648240   19.620097   23.853013 H          1 MOL1         0.0950
       8    C2      20.557891   19.505561   24.393527 C.3        1 MOL1        -0.1415
       9    H6      20.532237   18.545372   24.925742 H          1 MOL1         0.0976
      10    H7      20.814453   20.259127   25.149935 H          1 MOL1         0.0976
      11    C3      19.147915   19.848962   23.842023 C.3        1 MOL1        -0.1375
      12    H8      19.145025   20.866578   23.427390 H          1 MOL1         0.0976
      13    H9      18.459089   19.878992   24.697664 H          1 MOL1         0.0976
      14    C4      18.579949   18.847580   22.803798 C.3        1 MOL1        -0.1375
      15    H10     18.986263   17.843472   22.983803 H          1 MOL1         0.0976
      16    H11     17.495750   18.759946   22.960545 H          1 MOL1         0.0976
      17    C5      18.813666   19.290401   21.338742 C.3        1 MOL1        -0.1350
      18    H12     19.868070   19.534485   21.162848 H          1 MOL1         0.0976
      19    H13     18.252842   20.215942   21.146430 H          1 MOL1         0.0976
      20    C6      18.362712   18.207083   20.336300 C.3        1 MOL1        -0.2365
      21    H14     18.925591   17.275260   20.476442 H          1 MOL1         0.0987
      22    H15     18.521785   18.544364   19.303771 H          1 MOL1         0.0987
      23    H16     17.294890   17.981103   20.454862 H          1 MOL1         0.0987
@<TRIPOS>BOND
    1     1     2    1
    2     1     3    1
    3     1     4    1
    4     1     5    1
    5     5     6    1
    6     5     7    1
    7     5     8    1
    8     8     9    1
    9     8    10    1
   10     8    11    1
   11    11    12    1
   12    11    13    1
   13    11    14    1
   14    14    15    1
   15    14    16    1
   16    14    17    1
   17    17    18    1
   18    17    19    1
   19    17    20    1
   20    20    21    1
   21    20    22    1
   22    20    23    1
@<TRIPOS>SUBSTRUCTURE
       1 MOL1            1 RESIDUE      1      MOL     
@<SCITEGIC>MOL_PROPERTY
VConf Rank
SciTegic.value.IntegerValue
656

@<SCITEGIC>MOL_PROPERTY
Conf_Id
SciTegic.value.IntegerValue
5

@<SCITEGIC>MOL_PROPERTY
Delta U+W
SciTegic.value.DoubleValue
6.087

@<SCITEGIC>MOL_PROPERTY
U+W
SciTegic.value.DoubleValue
-2.295

@<SCITEGIC>MOL_PROPERTY
Grad RMS
SciTegic.value.DoubleValue
0.000000

@<SCITEGIC>MOL_PROPERTY
U
SciTegic.value.DoubleValue
52.836

@<SCITEGIC>MOL_PROPERTY
W
SciTegic.value.DoubleValue
-55.131

@<SCITEGIC>MOL_PROPERTY
W(PB)
SciTegic.value.DoubleValue
-57.202

@<SCITEGIC>MOL_PROPERTY
W(SA)
SciTegic.value.DoubleValue
2.071

@<SCITEGIC>MOL_PROPERTY
Valence
SciTegic.value.DoubleValue
5.785

@<SCITEGIC>MOL_PROPERTY
Coulomb
SciTegic.value.DoubleValue
46.744

@<SCITEGIC>MOL_PROPERTY
VdW
SciTegic.value.DoubleValue
0.307

@<SCITEGIC>MOL_PROPERTY
VdW6
SciTegic.value.DoubleValue
-7.672

@<SCITEGIC>MOL_PROPERTY
VdW12
SciTegic.value.DoubleValue
7.980

@<SCITEGIC>MOL_PROPERTY
Bond
SciTegic.value.DoubleValue
0.217

@<SCITEGIC>MOL_PROPERTY
Angle
SciTegic.value.DoubleValue
1.470

@<SCITEGIC>MOL_PROPERTY
Pdih
SciTegic.value.DoubleValue
4.098

@<SCITEGIC>MOL_PROPERTY
Idih
SciTegic.value.DoubleValue
0.000

@<SCITEGIC>MOL_PROPERTY
Tether
SciTegic.value.DoubleValue
0.000

@<TRIPOS>MOLECULE
guest-2_confgen4.mol2 : confsearch ligand conformer 657
          23          22           1
SMALL
USER_CHARGES
 
@<TRIPOS>ATOM
       1    N1      21.947853   19.098403   19.437803 N.4        1 MOL1        -0.5940
       2    H1      21.445440   19.862425   18.974407 H          1 MOL1         0.3649
       3    H2      22.283589   18.471304   18.698801 H          1 MOL1         0.3649
       4    H3      22.777015   19.507530   19.880509 H          1 MOL1         0.3649
       5    C1      21.072992   18.371155   20.438615 C.3        1 MOL1         0.0207
       6    H4      21.659899   17.555769   20.870102 H          1 MOL1         0.0950
       7    H5      20.228660   17.937195   19.896142 H          1 MOL1         0.0950
       8    C2      20.552282   19.285389   21.561832 C.3        1 MOL1        -0.1415
       9    H6      21.403458   19.731577   22.093355 H          1 MOL1         0.0976
      10    H7      19.977358   20.111718   21.122810 H          1 MOL1         0.0976
      11    C3      19.665985   18.507082   22.559279 C.3        1 MOL1        -0.1375
      12    H8      20.243118   17.678093   22.992289 H          1 MOL1         0.0976
      13    H9      18.818524   18.057881   22.022781 H          1 MOL1         0.0976
      14    C4      19.137333   19.416014   23.692138 C.3        1 MOL1        -0.1375
      15    H10     19.984586   19.865130   24.228767 H          1 MOL1         0.0976
      16    H11     18.560223   20.244957   23.259342 H          1 MOL1         0.0976
      17    C5      18.250902   18.637329   24.689460 C.3        1 MOL1        -0.1350
      18    H12     18.824595   17.808271   25.127081 H          1 MOL1         0.0976
      19    H13     17.400358   18.188079   24.157744 H          1 MOL1         0.0976
      20    C6      17.724918   19.548159   25.819166 C.3        1 MOL1        -0.2365
      21    H14     17.098012   18.977789   26.516814 H          1 MOL1         0.0987
      22    H15     17.117933   20.368565   25.414526 H          1 MOL1         0.0987
      23    H16     18.553299   19.985813   26.391419 H          1 MOL1         0.0987
@<TRIPOS>BOND
    1     1     2    1
    2     1     3    1
    3     1     4    1
    4     1     5    1
    5     5     6    1
    6     5     7    1
    7     5     8    1
    8     8     9    1
    9     8    10    1
   10     8    11    1
   11    11    12    1
   12    11    13    1
   13    11    14    1
   14    14    15    1
   15    14    16    1
   16    14    17    1
   17    17    18    1
   18    17    19    1
   19    17    20    1
   20    20    21    1
   21    20    22    1
   22    20    23    1
@<TRIPOS>SUBSTRUCTURE
       1 MOL1            1 RESIDUE      1      MOL     
@<SCITEGIC>MOL_PROPERTY
VConf Rank
SciTegic.value.IntegerValue
657

@<SCITEGIC>MOL_PROPERTY
Conf_Id
SciTegic.value.IntegerValue
40

@<SCITEGIC>MOL_PROPERTY
Delta U+W
SciTegic.value.DoubleValue
0.000

@<SCITEGIC>MOL_PROPERTY
U+W
SciTegic.value.DoubleValue
-8.382

@<SCITEGIC>MOL_PROPERTY
Grad RMS
SciTegic.value.DoubleValue
0.000000

@<SCITEGIC>MOL_PROPERTY
U
SciTegic.value.DoubleValue
46.604

@<SCITEGIC>MOL_PROPERTY
W
SciTegic.value.DoubleValue
-54.986

@<SCITEGIC>MOL_PROPERTY
W(PB)
SciTegic.value.DoubleValue
-57.162

@<SCITEGIC>MOL_PROPERTY
W(SA)
SciTegic.value.DoubleValue
2.176

@<SCITEGIC>MOL_PROPERTY
Valence
SciTegic.value.DoubleValue
1.727

@<SCITEGIC>MOL_PROPERTY
Coulomb
SciTegic.value.DoubleValue
44.434

@<SCITEGIC>MOL_PROPERTY
VdW
SciTegic.value.DoubleValue
0.443

@<SCITEGIC>MOL_PROPERTY
VdW6
SciTegic.value.DoubleValue
-4.623

@<SCITEGIC>MOL_PROPERTY
VdW12
SciTegic.value.DoubleValue
5.066

@<SCITEGIC>MOL_PROPERTY
Bond
SciTegic.value.DoubleValue
0.112

@<SCITEGIC>MOL_PROPERTY
Angle
SciTegic.value.DoubleValue
0.386

@<SCITEGIC>MOL_PROPERTY
Pdih
SciTegic.value.DoubleValue
1.228

@<SCITEGIC>MOL_PROPERTY
Idih
SciTegic.value.DoubleValue
0.000

@<SCITEGIC>MOL_PROPERTY
Tether
SciTegic.value.DoubleValue
0.000

@<TRIPOS>MOLECULE
guest-2_confgen4.mol2 : confsearch ligand conformer 658
          23          22           1
SMALL
USER_CHARGES
 
@<TRIPOS>ATOM
       1    N1      18.125199   15.844858   22.701701 N.4        1 MOL1        -0.5940
       2    H1      17.451908   15.769308   21.932409 H          1 MOL1         0.3649
       3    H2      17.586699   16.006696   23.558823 H          1 MOL1         0.3649
       4    H3      18.570892   14.926173   22.798684 H          1 MOL1         0.3649
       5    C1      19.142236   16.941086   22.457359 C.3        1 MOL1         0.0207
       6    H4      19.696508   16.690794   21.548763 H          1 MOL1         0.0950
       7    H5      19.841165   16.942542   23.297606 H          1 MOL1         0.0950
       8    C2      18.502905   18.334546   22.306834 C.3        1 MOL1        -0.1415
       9    H6      17.769068   18.304667   21.490417 H          1 MOL1         0.0976
      10    H7      17.947032   18.586997   23.219664 H          1 MOL1         0.0976
      11    C3      19.540710   19.442069   22.006874 C.3        1 MOL1        -0.1375
      12    H8      18.998379   20.374155   21.801803 H          1 MOL1         0.0976
      13    H9      20.088526   19.191560   21.087900 H          1 MOL1         0.0976
      14    C4      20.542010   19.667974   23.168313 C.3        1 MOL1        -0.1375
      15    H10     19.994879   19.938790   24.081837 H          1 MOL1         0.0976
      16    H11     21.066351   18.728953   23.389249 H          1 MOL1         0.0976
      17    C5      21.604681   20.751598   22.863327 C.3        1 MOL1        -0.1350
      18    H12     22.162431   20.480575   21.955989 H          1 MOL1         0.0976
      19    H13     22.338111   20.765148   23.681722 H          1 MOL1         0.0976
      20    C6      21.011515   22.170248   22.705286 C.3        1 MOL1        -0.2365
      21    H14     20.366276   22.242282   21.821129 H          1 MOL1         0.0987
      22    H15     21.813453   22.910633   22.588359 H          1 MOL1         0.0987
      23    H16     20.421063   22.452020   23.586751 H          1 MOL1         0.0987
@<TRIPOS>BOND
    1     1     2    1
    2     1     3    1
    3     1     4    1
    4     1     5    1
    5     5     6    1
    6     5     7    1
    7     5     8    1
    8     8     9    1
    9     8    10    1
   10     8    11    1
   11    11    12    1
   12    11    13    1
   13    11    14    1
   14    14    15    1
   15    14    16    1
   16    14    17    1
   17    17    18    1
   18    17    19    1
   19    17    20    1
   20    20    21    1
   21    20    22    1
   22    20    23    1
@<TRIPOS>SUBSTRUCTURE
       1 MOL1            1 RESIDUE      1      MOL     
@<SCITEGIC>MOL_PROPERTY
VConf Rank
SciTegic.value.IntegerValue
658

@<SCITEGIC>MOL_PROPERTY
Conf_Id
SciTegic.value.IntegerValue
65

@<SCITEGIC>MOL_PROPERTY
Delta U+W
SciTegic.value.DoubleValue
1.004

@<SCITEGIC>MOL_PROPERTY
U+W
SciTegic.value.DoubleValue
-7.378

@<SCITEGIC>MOL_PROPERTY
Grad RMS
SciTegic.value.DoubleValue
0.000000

@<SCITEGIC>MOL_PROPERTY
U
SciTegic.value.DoubleValue
48.047

@<SCITEGIC>MOL_PROPERTY
W
SciTegic.value.DoubleValue
-55.425

@<SCITEGIC>MOL_PROPERTY
W(PB)
SciTegic.value.DoubleValue
-57.542

@<SCITEGIC>MOL_PROPERTY
W(SA)
SciTegic.value.DoubleValue
2.116

@<SCITEGIC>MOL_PROPERTY
Valence
SciTegic.value.DoubleValue
2.583

@<SCITEGIC>MOL_PROPERTY
Coulomb
SciTegic.value.DoubleValue
44.791

@<SCITEGIC>MOL_PROPERTY
VdW
SciTegic.value.DoubleValue
0.673

@<SCITEGIC>MOL_PROPERTY
VdW6
SciTegic.value.DoubleValue
-5.788

@<SCITEGIC>MOL_PROPERTY
VdW12
SciTegic.value.DoubleValue
6.462

@<SCITEGIC>MOL_PROPERTY
Bond
SciTegic.value.DoubleValue
0.177

@<SCITEGIC>MOL_PROPERTY
Angle
SciTegic.value.DoubleValue
0.787

@<SCITEGIC>MOL_PROPERTY
Pdih
SciTegic.value.DoubleValue
1.619

@<SCITEGIC>MOL_PROPERTY
Idih
SciTegic.value.DoubleValue
0.000

@<SCITEGIC>MOL_PROPERTY
Tether
SciTegic.value.DoubleValue
0.000

@<TRIPOS>MOLECULE
guest-2_confgen4.mol2 : confsearch ligand conformer 659
          23          22           1
SMALL
USER_CHARGES
 
@<TRIPOS>ATOM
       1    N1      17.655012   18.328212   19.811544 N.4        1 MOL1        -0.5940
       2    H1      17.534589   17.316584   19.697771 H          1 MOL1         0.3649
       3    H2      17.733408   18.726590   18.869643 H          1 MOL1         0.3649
       4    H3      16.786530   18.691446   20.217297 H          1 MOL1         0.3649
       5    C1      18.861074   18.661495   20.666009 C.3        1 MOL1         0.0207
       6    H4      18.944290   19.750048   20.717448 H          1 MOL1         0.0950
       7    H5      19.749689   18.271577   20.162284 H          1 MOL1         0.0950
       8    C2      18.773107   18.076188   22.088265 C.3        1 MOL1        -0.1415
       9    H6      17.881355   18.468425   22.595132 H          1 MOL1         0.0976
      10    H7      18.642071   16.988057   22.019368 H          1 MOL1         0.0976
      11    C3      20.029496   18.376224   22.939782 C.3        1 MOL1        -0.1375
      12    H8      20.918756   17.974030   22.434977 H          1 MOL1         0.0976
      13    H9      19.938212   17.833196   23.889387 H          1 MOL1         0.0976
      14    C4      20.226218   19.887588   23.222014 C.3        1 MOL1        -0.1375
      15    H10     20.292709   20.433233   22.271563 H          1 MOL1         0.0976
      16    H11     19.345418   20.284526   23.745321 H          1 MOL1         0.0976
      17    C5      21.499388   20.199727   24.045500 C.3        1 MOL1        -0.1350
      18    H12     21.625150   21.290233   24.098890 H          1 MOL1         0.0976
      19    H13     22.385089   19.814058   23.521486 H          1 MOL1         0.0976
      20    C6      21.458150   19.634155   25.483490 C.3        1 MOL1        -0.2365
      21    H14     21.459742   18.537230   25.486498 H          1 MOL1         0.0987
      22    H15     20.563574   19.978987   26.018126 H          1 MOL1         0.0987
      23    H16     22.336867   19.965843   26.051630 H          1 MOL1         0.0987
@<TRIPOS>BOND
    1     1     2    1
    2     1     3    1
    3     1     4    1
    4     1     5    1
    5     5     6    1
    6     5     7    1
    7     5     8    1
    8     8     9    1
    9     8    10    1
   10     8    11    1
   11    11    12    1
   12    11    13    1
   13    11    14    1
   14    14    15    1
   15    14    16    1
   16    14    17    1
   17    17    18    1
   18    17    19    1
   19    17    20    1
   20    20    21    1
   21    20    22    1
   22    20    23    1
@<TRIPOS>SUBSTRUCTURE
       1 MOL1            1 RESIDUE      1      MOL     
@<SCITEGIC>MOL_PROPERTY
VConf Rank
SciTegic.value.IntegerValue
659

@<SCITEGIC>MOL_PROPERTY
Conf_Id
SciTegic.value.IntegerValue
92

@<SCITEGIC>MOL_PROPERTY
Delta U+W
SciTegic.value.DoubleValue
0.973

@<SCITEGIC>MOL_PROPERTY
U+W
SciTegic.value.DoubleValue
-7.409

@<SCITEGIC>MOL_PROPERTY
Grad RMS
SciTegic.value.DoubleValue
0.000000

@<SCITEGIC>MOL_PROPERTY
U
SciTegic.value.DoubleValue
48.047

@<SCITEGIC>MOL_PROPERTY
W
SciTegic.value.DoubleValue
-55.456

@<SCITEGIC>MOL_PROPERTY
W(PB)
SciTegic.value.DoubleValue
-57.595

@<SCITEGIC>MOL_PROPERTY
W(SA)
SciTegic.value.DoubleValue
2.138

@<SCITEGIC>MOL_PROPERTY
Valence
SciTegic.value.DoubleValue
2.583

@<SCITEGIC>MOL_PROPERTY
Coulomb
SciTegic.value.DoubleValue
44.791

@<SCITEGIC>MOL_PROPERTY
VdW
SciTegic.value.DoubleValue
0.674

@<SCITEGIC>MOL_PROPERTY
VdW6
SciTegic.value.DoubleValue
-5.789

@<SCITEGIC>MOL_PROPERTY
VdW12
SciTegic.value.DoubleValue
6.462

@<SCITEGIC>MOL_PROPERTY
Bond
SciTegic.value.DoubleValue
0.177

@<SCITEGIC>MOL_PROPERTY
Angle
SciTegic.value.DoubleValue
0.787

@<SCITEGIC>MOL_PROPERTY
Pdih
SciTegic.value.DoubleValue
1.619

@<SCITEGIC>MOL_PROPERTY
Idih
SciTegic.value.DoubleValue
0.000

@<SCITEGIC>MOL_PROPERTY
Tether
SciTegic.value.DoubleValue
0.000

@<TRIPOS>MOLECULE
guest-2_confgen4.mol2 : confsearch ligand conformer 660
          23          22           1
SMALL
USER_CHARGES
 
@<TRIPOS>ATOM
       1    N1      19.795235   19.702563   26.058160 N.4        1 MOL1        -0.5940
       2    H1      19.046934   20.250341   26.496359 H          1 MOL1         0.3649
       3    H2      20.681232   20.053199   26.436204 H          1 MOL1         0.3649
       4    H3      19.688720   18.737108   26.385865 H          1 MOL1         0.3649
       5    C1      19.749474   19.795003   24.546494 C.3        1 MOL1         0.0207
       6    H4      19.839338   20.848955   24.269859 H          1 MOL1         0.0950
       7    H5      18.770990   19.435144   24.218218 H          1 MOL1         0.0950
       8    C2      20.862254   18.982051   23.858244 C.3        1 MOL1        -0.1415
       9    H6      21.837709   19.323113   24.229877 H          1 MOL1         0.0976
      10    H7      20.772428   17.923596   24.136811 H          1 MOL1         0.0976
      11    C3      20.836689   19.118183   22.317515 C.3        1 MOL1        -0.1375
      12    H8      21.707707   18.591894   21.903029 H          1 MOL1         0.0976
      13    H9      20.952497   20.175483   22.041195 H          1 MOL1         0.0976
      14    C4      19.547070   18.549411   21.678104 C.3        1 MOL1        -0.1375
      15    H10     19.416995   17.501859   21.983280 H          1 MOL1         0.0976
      16    H11     18.670914   19.099446   22.046709 H          1 MOL1         0.0976
      17    C5      19.585783   18.634172   20.135999 C.3        1 MOL1        -0.1350
      18    H12     20.454822   18.079519   19.755091 H          1 MOL1         0.0976
      19    H13     19.716484   19.680235   19.825116 H          1 MOL1         0.0976
      20    C6      18.298634   18.067952   19.499442 C.3        1 MOL1        -0.2365
      21    H14     18.158251   17.012079   19.765246 H          1 MOL1         0.0987
      22    H15     18.345062   18.136355   18.404814 H          1 MOL1         0.0987
      23    H16     17.414174   18.625367   19.834465 H          1 MOL1         0.0987
@<TRIPOS>BOND
    1     1     2    1
    2     1     3    1
    3     1     4    1
    4     1     5    1
    5     5     6    1
    6     5     7    1
    7     5     8    1
    8     8     9    1
    9     8    10    1
   10     8    11    1
   11    11    12    1
   12    11    13    1
   13    11    14    1
   14    14    15    1
   15    14    16    1
   16    14    17    1
   17    17    18    1
   18    17    19    1
   19    17    20    1
   20    20    21    1
   21    20    22    1
   22    20    23    1
@<TRIPOS>SUBSTRUCTURE
       1 MOL1            1 RESIDUE      1      MOL     
@<SCITEGIC>MOL_PROPERTY
VConf Rank
SciTegic.value.IntegerValue
660

@<SCITEGIC>MOL_PROPERTY
Conf_Id
SciTegic.value.IntegerValue
42

@<SCITEGIC>MOL_PROPERTY
Delta U+W
SciTegic.value.DoubleValue
0.365

@<SCITEGIC>MOL_PROPERTY
U+W
SciTegic.value.DoubleValue
-8.017

@<SCITEGIC>MOL_PROPERTY
Grad RMS
SciTegic.value.DoubleValue
0.000000

@<SCITEGIC>MOL_PROPERTY
U
SciTegic.value.DoubleValue
47.375

@<SCITEGIC>MOL_PROPERTY
W
SciTegic.value.DoubleValue
-55.392

@<SCITEGIC>MOL_PROPERTY
W(PB)
SciTegic.value.DoubleValue
-57.543

@<SCITEGIC>MOL_PROPERTY
W(SA)
SciTegic.value.DoubleValue
2.152

@<SCITEGIC>MOL_PROPERTY
Valence
SciTegic.value.DoubleValue
2.032

@<SCITEGIC>MOL_PROPERTY
Coulomb
SciTegic.value.DoubleValue
44.843

@<SCITEGIC>MOL_PROPERTY
VdW
SciTegic.value.DoubleValue
0.499

@<SCITEGIC>MOL_PROPERTY
VdW6
SciTegic.value.DoubleValue
-5.218

@<SCITEGIC>MOL_PROPERTY
VdW12
SciTegic.value.DoubleValue
5.717

@<SCITEGIC>MOL_PROPERTY
Bond
SciTegic.value.DoubleValue
0.135

@<SCITEGIC>MOL_PROPERTY
Angle
SciTegic.value.DoubleValue
0.514

@<SCITEGIC>MOL_PROPERTY
Pdih
SciTegic.value.DoubleValue
1.383

@<SCITEGIC>MOL_PROPERTY
Idih
SciTegic.value.DoubleValue
0.000

@<SCITEGIC>MOL_PROPERTY
Tether
SciTegic.value.DoubleValue
0.000

@<TRIPOS>MOLECULE
guest-2_confgen4.mol2 : confsearch ligand conformer 661
          23          22           1
SMALL
USER_CHARGES
 
@<TRIPOS>ATOM
       1    N1      19.056982   22.068453   22.942793 N.4        1 MOL1        -0.5940
       2    H1      18.568449   22.112765   22.042791 H          1 MOL1         0.3649
       3    H2      19.256384   23.034892   23.222408 H          1 MOL1         0.3649
       4    H3      18.396220   21.689396   23.627710 H          1 MOL1         0.3649
       5    C1      20.321137   21.235232   22.857713 C.3        1 MOL1         0.0207
       6    H4      20.803963   21.248325   23.838595 H          1 MOL1         0.0950
       7    H5      20.989836   21.722385   22.142805 H          1 MOL1         0.0950
       8    C2      20.079317   19.778169   22.417574 C.3        1 MOL1        -0.1415
       9    H6      19.569578   19.767911   21.445097 H          1 MOL1         0.0976
      10    H7      21.058276   19.305602   22.271163 H          1 MOL1         0.0976
      11    C3      19.266191   18.966524   23.455295 C.3        1 MOL1        -0.1375
      12    H8      18.330327   19.494699   23.680065 H          1 MOL1         0.0976
      13    H9      19.825374   18.920406   24.400067 H          1 MOL1         0.0976
      14    C4      18.904256   17.528606   23.000924 C.3        1 MOL1        -0.1375
      15    H10     18.295842   17.074867   23.795556 H          1 MOL1         0.0976
      16    H11     18.253985   17.564689   22.116012 H          1 MOL1         0.0976
      17    C5      20.119295   16.602262   22.736336 C.3        1 MOL1        -0.1350
      18    H12     19.859053   15.583552   23.056455 H          1 MOL1         0.0976
      19    H13     20.973397   16.904641   23.358169 H          1 MOL1         0.0976
      20    C6      20.532239   16.542000   21.247005 C.3        1 MOL1        -0.2365
      21    H14     19.707166   16.168113   20.626906 H          1 MOL1         0.0987
      22    H15     21.383795   15.862647   21.111927 H          1 MOL1         0.0987
      23    H16     20.826192   17.523683   20.859696 H          1 MOL1         0.0987
@<TRIPOS>BOND
    1     1     2    1
    2     1     3    1
    3     1     4    1
    4     1     5    1
    5     5     6    1
    6     5     7    1
    7     5     8    1
    8     8     9    1
    9     8    10    1
   10     8    11    1
   11    11    12    1
   12    11    13    1
   13    11    14    1
   14    14    15    1
   15    14    16    1
   16    14    17    1
   17    17    18    1
   18    17    19    1
   19    17    20    1
   20    20    21    1
   21    20    22    1
   22    20    23    1
@<TRIPOS>SUBSTRUCTURE
       1 MOL1            1 RESIDUE      1      MOL     
@<SCITEGIC>MOL_PROPERTY
VConf Rank
SciTegic.value.IntegerValue
661

@<SCITEGIC>MOL_PROPERTY
Conf_Id
SciTegic.value.IntegerValue
3

@<SCITEGIC>MOL_PROPERTY
Delta U+W
SciTegic.value.DoubleValue
3.283

@<SCITEGIC>MOL_PROPERTY
U+W
SciTegic.value.DoubleValue
-5.099

@<SCITEGIC>MOL_PROPERTY
Grad RMS
SciTegic.value.DoubleValue
0.000000

@<SCITEGIC>MOL_PROPERTY
U
SciTegic.value.DoubleValue
50.701

@<SCITEGIC>MOL_PROPERTY
W
SciTegic.value.DoubleValue
-55.800

@<SCITEGIC>MOL_PROPERTY
W(PB)
SciTegic.value.DoubleValue
-57.867

@<SCITEGIC>MOL_PROPERTY
W(SA)
SciTegic.value.DoubleValue
2.067

@<SCITEGIC>MOL_PROPERTY
Valence
SciTegic.value.DoubleValue
4.880

@<SCITEGIC>MOL_PROPERTY
Coulomb
SciTegic.value.DoubleValue
45.095

@<SCITEGIC>MOL_PROPERTY
VdW
SciTegic.value.DoubleValue
0.726

@<SCITEGIC>MOL_PROPERTY
VdW6
SciTegic.value.DoubleValue
-6.620

@<SCITEGIC>MOL_PROPERTY
VdW12
SciTegic.value.DoubleValue
7.346

@<SCITEGIC>MOL_PROPERTY
Bond
SciTegic.value.DoubleValue
0.222

@<SCITEGIC>MOL_PROPERTY
Angle
SciTegic.value.DoubleValue
1.260

@<SCITEGIC>MOL_PROPERTY
Pdih
SciTegic.value.DoubleValue
3.398

@<SCITEGIC>MOL_PROPERTY
Idih
SciTegic.value.DoubleValue
0.000

@<SCITEGIC>MOL_PROPERTY
Tether
SciTegic.value.DoubleValue
0.000

@<TRIPOS>MOLECULE
guest-2_confgen4.mol2 : confsearch ligand conformer 662
          23          22           1
SMALL
USER_CHARGES
 
@<TRIPOS>ATOM
       1    N1      22.695980   18.873191   22.711232 N.4        1 MOL1        -0.5940
       2    H1      23.059670   18.807839   23.667272 H          1 MOL1         0.3649
       3    H2      23.501144   18.806396   22.079502 H          1 MOL1         0.3649
       4    H3      22.117037   18.043563   22.549547 H          1 MOL1         0.3649
       5    C1      21.913091   20.152918   22.492883 C.3        1 MOL1         0.0207
       6    H4      21.581797   20.174402   21.451598 H          1 MOL1         0.0950
       7    H5      22.597196   20.991766   22.647352 H          1 MOL1         0.0950
       8    C2      20.698527   20.304670   23.431542 C.3        1 MOL1        -0.1415
       9    H6      21.051225   20.333306   24.471055 H          1 MOL1         0.0976
      10    H7      20.226528   21.277956   23.242357 H          1 MOL1         0.0976
      11    C3      19.637180   19.185263   23.282825 C.3        1 MOL1        -0.1375
      12    H8      18.844853   19.368247   24.020124 H          1 MOL1         0.0976
      13    H9      20.078659   18.214212   23.543409 H          1 MOL1         0.0976
      14    C4      19.018131   19.116233   21.863515 C.3        1 MOL1        -0.1375
      15    H10     18.552613   20.080023   21.615381 H          1 MOL1         0.0976
      16    H11     19.812820   18.957412   21.122840 H          1 MOL1         0.0976
      17    C5      17.976321   17.982900   21.700312 C.3        1 MOL1        -0.1350
      18    H12     18.439459   17.014747   21.936761 H          1 MOL1         0.0976
      19    H13     17.676940   17.929949   20.644172 H          1 MOL1         0.0976
      20    C6      16.710436   18.179196   22.565383 C.3        1 MOL1        -0.2365
      21    H14     16.246980   19.155233   22.371556 H          1 MOL1         0.0987
      22    H15     16.938503   18.112812   23.636282 H          1 MOL1         0.0987
      23    H16     15.966870   17.404132   22.338843 H          1 MOL1         0.0987
@<TRIPOS>BOND
    1     1     2    1
    2     1     3    1
    3     1     4    1
    4     1     5    1
    5     5     6    1
    6     5     7    1
    7     5     8    1
    8     8     9    1
    9     8    10    1
   10     8    11    1
   11    11    12    1
   12    11    13    1
   13    11    14    1
   14    14    15    1
   15    14    16    1
   16    14    17    1
   17    17    18    1
   18    17    19    1
   19    17    20    1
   20    20    21    1
   21    20    22    1
   22    20    23    1
@<TRIPOS>SUBSTRUCTURE
       1 MOL1            1 RESIDUE      1      MOL     
@<SCITEGIC>MOL_PROPERTY
VConf Rank
SciTegic.value.IntegerValue
662

@<SCITEGIC>MOL_PROPERTY
Conf_Id
SciTegic.value.IntegerValue
83

@<SCITEGIC>MOL_PROPERTY
Delta U+W
SciTegic.value.DoubleValue
1.229

@<SCITEGIC>MOL_PROPERTY
U+W
SciTegic.value.DoubleValue
-7.154

@<SCITEGIC>MOL_PROPERTY
Grad RMS
SciTegic.value.DoubleValue
0.000000

@<SCITEGIC>MOL_PROPERTY
U
SciTegic.value.DoubleValue
48.727

@<SCITEGIC>MOL_PROPERTY
W
SciTegic.value.DoubleValue
-55.880

@<SCITEGIC>MOL_PROPERTY
W(PB)
SciTegic.value.DoubleValue
-57.960

@<SCITEGIC>MOL_PROPERTY
W(SA)
SciTegic.value.DoubleValue
2.080

@<SCITEGIC>MOL_PROPERTY
Valence
SciTegic.value.DoubleValue
2.671

@<SCITEGIC>MOL_PROPERTY
Coulomb
SciTegic.value.DoubleValue
45.371

@<SCITEGIC>MOL_PROPERTY
VdW
SciTegic.value.DoubleValue
0.684

@<SCITEGIC>MOL_PROPERTY
VdW6
SciTegic.value.DoubleValue
-6.511

@<SCITEGIC>MOL_PROPERTY
VdW12
SciTegic.value.DoubleValue
7.195

@<SCITEGIC>MOL_PROPERTY
Bond
SciTegic.value.DoubleValue
0.203

@<SCITEGIC>MOL_PROPERTY
Angle
SciTegic.value.DoubleValue
0.915

@<SCITEGIC>MOL_PROPERTY
Pdih
SciTegic.value.DoubleValue
1.554

@<SCITEGIC>MOL_PROPERTY
Idih
SciTegic.value.DoubleValue
0.000

@<SCITEGIC>MOL_PROPERTY
Tether
SciTegic.value.DoubleValue
0.000

@<TRIPOS>MOLECULE
guest-2_confgen4.mol2 : confsearch ligand conformer 663
          23          22           1
SMALL
USER_CHARGES
 
@<TRIPOS>ATOM
       1    N1      22.055159   19.800377   21.034391 N.4        1 MOL1        -0.5940
       2    H1      21.978106   20.730786   20.611360 H          1 MOL1         0.3649
       3    H2      21.317874   19.218865   20.624689 H          1 MOL1         0.3649
       4    H3      22.952463   19.407076   20.731083 H          1 MOL1         0.3649
       5    C1      21.947237   19.858197   22.545451 C.3        1 MOL1         0.0207
       6    H4      22.779889   20.462604   22.915464 H          1 MOL1         0.0950
       7    H5      22.067772   18.843494   22.933186 H          1 MOL1         0.0950
       8    C2      20.617965   20.456491   23.049790 C.3        1 MOL1        -0.1415
       9    H6      20.649292   20.510134   24.146148 H          1 MOL1         0.0976
      10    H7      20.534895   21.492590   22.695671 H          1 MOL1         0.0976
      11    C3      19.359143   19.664964   22.613326 C.3        1 MOL1        -0.1375
      12    H8      19.275706   19.669051   21.518442 H          1 MOL1         0.0976
      13    H9      18.475848   20.197503   22.988913 H          1 MOL1         0.0976
      14    C4      19.344863   18.205537   23.135150 C.3        1 MOL1        -0.1375
      15    H10     20.240420   17.679043   22.779995 H          1 MOL1         0.0976
      16    H11     19.400423   18.204146   24.232457 H          1 MOL1         0.0976
      17    C5      18.102997   17.400895   22.680439 C.3        1 MOL1        -0.1350
      18    H12     18.228674   16.354460   22.991955 H          1 MOL1         0.0976
      19    H13     18.048160   17.389729   21.582899 H          1 MOL1         0.0976
      20    C6      16.774463   17.935426   23.262348 C.3        1 MOL1        -0.2365
      21    H14     16.815786   17.987610   24.358057 H          1 MOL1         0.0987
      22    H15     15.942221   17.273749   22.989419 H          1 MOL1         0.0987
      23    H16     16.538585   18.935587   22.878573 H          1 MOL1         0.0987
@<TRIPOS>BOND
    1     1     2    1
    2     1     3    1
    3     1     4    1
    4     1     5    1
    5     5     6    1
    6     5     7    1
    7     5     8    1
    8     8     9    1
    9     8    10    1
   10     8    11    1
   11    11    12    1
   12    11    13    1
   13    11    14    1
   14    14    15    1
   15    14    16    1
   16    14    17    1
   17    17    18    1
   18    17    19    1
   19    17    20    1
   20    20    21    1
   21    20    22    1
   22    20    23    1
@<TRIPOS>SUBSTRUCTURE
       1 MOL1            1 RESIDUE      1      MOL     
@<SCITEGIC>MOL_PROPERTY
VConf Rank
SciTegic.value.IntegerValue
663

@<SCITEGIC>MOL_PROPERTY
Conf_Id
SciTegic.value.IntegerValue
50

@<SCITEGIC>MOL_PROPERTY
Delta U+W
SciTegic.value.DoubleValue
1.252

@<SCITEGIC>MOL_PROPERTY
U+W
SciTegic.value.DoubleValue
-7.130

@<SCITEGIC>MOL_PROPERTY
Grad RMS
SciTegic.value.DoubleValue
0.000000

@<SCITEGIC>MOL_PROPERTY
U
SciTegic.value.DoubleValue
48.727

@<SCITEGIC>MOL_PROPERTY
W
SciTegic.value.DoubleValue
-55.857

@<SCITEGIC>MOL_PROPERTY
W(PB)
SciTegic.value.DoubleValue
-57.937

@<SCITEGIC>MOL_PROPERTY
W(SA)
SciTegic.value.DoubleValue
2.080

@<SCITEGIC>MOL_PROPERTY
Valence
SciTegic.value.DoubleValue
2.671

@<SCITEGIC>MOL_PROPERTY
Coulomb
SciTegic.value.DoubleValue
45.371

@<SCITEGIC>MOL_PROPERTY
VdW
SciTegic.value.DoubleValue
0.684

@<SCITEGIC>MOL_PROPERTY
VdW6
SciTegic.value.DoubleValue
-6.511

@<SCITEGIC>MOL_PROPERTY
VdW12
SciTegic.value.DoubleValue
7.196

@<SCITEGIC>MOL_PROPERTY
Bond
SciTegic.value.DoubleValue
0.203

@<SCITEGIC>MOL_PROPERTY
Angle
SciTegic.value.DoubleValue
0.915

@<SCITEGIC>MOL_PROPERTY
Pdih
SciTegic.value.DoubleValue
1.554

@<SCITEGIC>MOL_PROPERTY
Idih
SciTegic.value.DoubleValue
0.000

@<SCITEGIC>MOL_PROPERTY
Tether
SciTegic.value.DoubleValue
0.000

@<TRIPOS>MOLECULE
guest-2_confgen4.mol2 : confsearch ligand conformer 664
          23          22           1
SMALL
USER_CHARGES
 
@<TRIPOS>ATOM
       1    N1      20.059328   20.786159   25.283765 N.4        1 MOL1        -0.5940
       2    H1      19.524296   21.404177   24.666247 H          1 MOL1         0.3649
       3    H2      20.660249   21.385388   25.859740 H          1 MOL1         0.3649
       4    H3      19.390178   20.337111   25.917184 H          1 MOL1         0.3649
       5    C1      20.864935   19.767944   24.500519 C.3        1 MOL1         0.0207
       6    H4      21.437608   19.175101   25.218959 H          1 MOL1         0.0950
       7    H5      21.571692   20.309698   23.866162 H          1 MOL1         0.0950
       8    C2      20.005292   18.827980   23.633202 C.3        1 MOL1        -0.1415
       9    H6      20.662445   18.066703   23.198148 H          1 MOL1         0.0976
      10    H7      19.293898   18.290223   24.273909 H          1 MOL1         0.0976
      11    C3      19.241142   19.580490   22.514059 C.3        1 MOL1        -0.1375
      12    H8      19.934393   20.197360   21.925646 H          1 MOL1         0.0976
      13    H9      18.534901   20.278701   22.982795 H          1 MOL1         0.0976
      14    C4      18.440124   18.639704   21.576298 C.3        1 MOL1        -0.1375
      15    H10     18.124590   17.737969   22.118981 H          1 MOL1         0.0976
      16    H11     17.511269   19.152038   21.289533 H          1 MOL1         0.0976
      17    C5      19.176550   18.245797   20.270265 C.3        1 MOL1        -0.1350
      18    H12     19.397649   19.149475   19.685240 H          1 MOL1         0.0976
      19    H13     18.494391   17.644109   19.653463 H          1 MOL1         0.0976
      20    C6      20.479682   17.446684   20.490027 C.3        1 MOL1        -0.2365
      21    H14     20.303105   16.566507   21.121648 H          1 MOL1         0.0987
      22    H15     21.252810   18.066378   20.960693 H          1 MOL1         0.0987
      23    H16     20.880711   17.095950   19.530314 H          1 MOL1         0.0987
@<TRIPOS>BOND
    1     1     2    1
    2     1     3    1
    3     1     4    1
    4     1     5    1
    5     5     6    1
    6     5     7    1
    7     5     8    1
    8     8     9    1
    9     8    10    1
   10     8    11    1
   11    11    12    1
   12    11    13    1
   13    11    14    1
   14    14    15    1
   15    14    16    1
   16    14    17    1
   17    17    18    1
   18    17    19    1
   19    17    20    1
   20    20    21    1
   21    20    22    1
   22    20    23    1
@<TRIPOS>SUBSTRUCTURE
       1 MOL1            1 RESIDUE      1      MOL     
@<SCITEGIC>MOL_PROPERTY
VConf Rank
SciTegic.value.IntegerValue
664

@<SCITEGIC>MOL_PROPERTY
Conf_Id
SciTegic.value.IntegerValue
55

@<SCITEGIC>MOL_PROPERTY
Delta U+W
SciTegic.value.DoubleValue
3.232

@<SCITEGIC>MOL_PROPERTY
U+W
SciTegic.value.DoubleValue
-5.150

@<SCITEGIC>MOL_PROPERTY
Grad RMS
SciTegic.value.DoubleValue
0.000000

@<SCITEGIC>MOL_PROPERTY
U
SciTegic.value.DoubleValue
50.625

@<SCITEGIC>MOL_PROPERTY
W
SciTegic.value.DoubleValue
-55.776

@<SCITEGIC>MOL_PROPERTY
W(PB)
SciTegic.value.DoubleValue
-57.839

@<SCITEGIC>MOL_PROPERTY
W(SA)
SciTegic.value.DoubleValue
2.064

@<SCITEGIC>MOL_PROPERTY
Valence
SciTegic.value.DoubleValue
4.837

@<SCITEGIC>MOL_PROPERTY
Coulomb
SciTegic.value.DoubleValue
45.097

@<SCITEGIC>MOL_PROPERTY
VdW
SciTegic.value.DoubleValue
0.692

@<SCITEGIC>MOL_PROPERTY
VdW6
SciTegic.value.DoubleValue
-6.655

@<SCITEGIC>MOL_PROPERTY
VdW12
SciTegic.value.DoubleValue
7.347

@<SCITEGIC>MOL_PROPERTY
Bond
SciTegic.value.DoubleValue
0.223

@<SCITEGIC>MOL_PROPERTY
Angle
SciTegic.value.DoubleValue
1.167

@<SCITEGIC>MOL_PROPERTY
Pdih
SciTegic.value.DoubleValue
3.447

@<SCITEGIC>MOL_PROPERTY
Idih
SciTegic.value.DoubleValue
0.000

@<SCITEGIC>MOL_PROPERTY
Tether
SciTegic.value.DoubleValue
0.000

@<TRIPOS>MOLECULE
guest-2_confgen4.mol2 : confsearch ligand conformer 665
          23          22           1
SMALL
USER_CHARGES
 
@<TRIPOS>ATOM
       1    N1      18.494119   18.768359   25.420199 N.4        1 MOL1        -0.5940
       2    H1      18.856706   18.140498   26.144872 H          1 MOL1         0.3649
       3    H2      17.472623   18.770992   25.512607 H          1 MOL1         0.3649
       4    H3      18.816829   19.713437   25.651374 H          1 MOL1         0.3649
       5    C1      18.933143   18.343965   24.033550 C.3        1 MOL1         0.0207
       6    H4      18.482583   19.032124   23.316074 H          1 MOL1         0.0950
       7    H5      18.531691   17.344578   23.845233 H          1 MOL1         0.0950
       8    C2      20.465302   18.323717   23.866625 C.3        1 MOL1        -0.1415
       9    H6      20.888102   19.310390   24.098099 H          1 MOL1         0.0976
      10    H7      20.879200   17.627455   24.608195 H          1 MOL1         0.0976
      11    C3      20.917544   17.867589   22.456345 C.3        1 MOL1        -0.1375
      12    H8      20.256261   17.070765   22.088404 H          1 MOL1         0.0976
      13    H9      21.911936   17.409093   22.548345 H          1 MOL1         0.0976
      14    C4      21.022103   19.002011   21.403908 C.3        1 MOL1        -0.1375
      15    H10     21.764795   19.741001   21.734958 H          1 MOL1         0.0976
      16    H11     21.416846   18.569735   20.473985 H          1 MOL1         0.0976
      17    C5      19.687666   19.719299   21.095236 C.3        1 MOL1        -0.1350
      18    H12     19.357257   20.288565   21.973689 H          1 MOL1         0.0976
      19    H13     18.907108   18.978052   20.873969 H          1 MOL1         0.0976
      20    C6      19.825438   20.689166   19.902316 C.3        1 MOL1        -0.2365
      21    H14     20.117434   20.154117   18.989258 H          1 MOL1         0.0987
      22    H15     20.582081   21.458449   20.104667 H          1 MOL1         0.0987
      23    H16     18.872870   21.197430   19.704042 H          1 MOL1         0.0987
@<TRIPOS>BOND
    1     1     2    1
    2     1     3    1
    3     1     4    1
    4     1     5    1
    5     5     6    1
    6     5     7    1
    7     5     8    1
    8     8     9    1
    9     8    10    1
   10     8    11    1
   11    11    12    1
   12    11    13    1
   13    11    14    1
   14    14    15    1
   15    14    16    1
   16    14    17    1
   17    17    18    1
   18    17    19    1
   19    17    20    1
   20    20    21    1
   21    20    22    1
   22    20    23    1
@<TRIPOS>SUBSTRUCTURE
       1 MOL1            1 RESIDUE      1      MOL     
@<SCITEGIC>MOL_PROPERTY
VConf Rank
SciTegic.value.IntegerValue
665

@<SCITEGIC>MOL_PROPERTY
Conf_Id
SciTegic.value.IntegerValue
93

@<SCITEGIC>MOL_PROPERTY
Delta U+W
SciTegic.value.DoubleValue
2.589

@<SCITEGIC>MOL_PROPERTY
U+W
SciTegic.value.DoubleValue
-5.793

@<SCITEGIC>MOL_PROPERTY
Grad RMS
SciTegic.value.DoubleValue
0.000000

@<SCITEGIC>MOL_PROPERTY
U
SciTegic.value.DoubleValue
50.122

@<SCITEGIC>MOL_PROPERTY
W
SciTegic.value.DoubleValue
-55.915

@<SCITEGIC>MOL_PROPERTY
W(PB)
SciTegic.value.DoubleValue
-58.031

@<SCITEGIC>MOL_PROPERTY
W(SA)
SciTegic.value.DoubleValue
2.115

@<SCITEGIC>MOL_PROPERTY
Valence
SciTegic.value.DoubleValue
4.132

@<SCITEGIC>MOL_PROPERTY
Coulomb
SciTegic.value.DoubleValue
45.536

@<SCITEGIC>MOL_PROPERTY
VdW
SciTegic.value.DoubleValue
0.454

@<SCITEGIC>MOL_PROPERTY
VdW6
SciTegic.value.DoubleValue
-6.262

@<SCITEGIC>MOL_PROPERTY
VdW12
SciTegic.value.DoubleValue
6.715

@<SCITEGIC>MOL_PROPERTY
Bond
SciTegic.value.DoubleValue
0.182

@<SCITEGIC>MOL_PROPERTY
Angle
SciTegic.value.DoubleValue
1.157

@<SCITEGIC>MOL_PROPERTY
Pdih
SciTegic.value.DoubleValue
2.794

@<SCITEGIC>MOL_PROPERTY
Idih
SciTegic.value.DoubleValue
0.000

@<SCITEGIC>MOL_PROPERTY
Tether
SciTegic.value.DoubleValue
0.000

@<TRIPOS>MOLECULE
guest-2_confgen4.mol2 : confsearch ligand conformer 666
          23          22           1
SMALL
USER_CHARGES
 
@<TRIPOS>ATOM
       1    N1      18.236780   19.289152   25.345967 N.4        1 MOL1        -0.5940
       2    H1      18.108718   18.272984   25.387901 H          1 MOL1         0.3649
       3    H2      17.302513   19.709770   25.393136 H          1 MOL1         0.3649
       4    H3      18.731107   19.566036   26.200253 H          1 MOL1         0.3649
       5    C1      18.983539   19.714286   24.098064 C.3        1 MOL1         0.0207
       6    H4      19.057431   20.805100   24.106007 H          1 MOL1         0.0950
       7    H5      18.384133   19.420381   23.234540 H          1 MOL1         0.0950
       8    C2      20.395243   19.102840   24.003136 C.3        1 MOL1        -0.1415
       9    H6      20.961863   19.415558   24.890362 H          1 MOL1         0.0976
      10    H7      20.340389   18.006744   24.040910 H          1 MOL1         0.0976
      11    C3      21.170009   19.554484   22.739325 C.3        1 MOL1        -0.1375
      12    H8      22.244532   19.518273   22.966456 H          1 MOL1         0.0976
      13    H9      20.948698   20.608008   22.518613 H          1 MOL1         0.0976
      14    C4      20.929777   18.683803   21.478501 C.3        1 MOL1        -0.1375
      15    H10     21.581937   19.056806   20.676631 H          1 MOL1         0.0976
      16    H11     21.253109   17.652930   21.678622 H          1 MOL1         0.0976
      17    C5      19.469187   18.673586   20.971478 C.3        1 MOL1        -0.1350
      18    H12     19.098702   19.703924   20.877559 H          1 MOL1         0.0976
      19    H13     18.825097   18.160251   21.697116 H          1 MOL1         0.0976
      20    C6      19.344586   17.958672   19.609107 C.3        1 MOL1        -0.2365
      21    H14     18.300720   17.950916   19.269530 H          1 MOL1         0.0987
      22    H15     19.684353   16.916988   19.677675 H          1 MOL1         0.0987
      23    H16     19.944274   18.464108   18.840911 H          1 MOL1         0.0987
@<TRIPOS>BOND
    1     1     2    1
    2     1     3    1
    3     1     4    1
    4     1     5    1
    5     5     6    1
    6     5     7    1
    7     5     8    1
    8     8     9    1
    9     8    10    1
   10     8    11    1
   11    11    12    1
   12    11    13    1
   13    11    14    1
   14    14    15    1
   15    14    16    1
   16    14    17    1
   17    17    18    1
   18    17    19    1
   19    17    20    1
   20    20    21    1
   21    20    22    1
   22    20    23    1
@<TRIPOS>SUBSTRUCTURE
       1 MOL1            1 RESIDUE      1      MOL     
@<SCITEGIC>MOL_PROPERTY
VConf Rank
SciTegic.value.IntegerValue
666

@<SCITEGIC>MOL_PROPERTY
Conf_Id
SciTegic.value.IntegerValue
70

@<SCITEGIC>MOL_PROPERTY
Delta U+W
SciTegic.value.DoubleValue
2.599

@<SCITEGIC>MOL_PROPERTY
U+W
SciTegic.value.DoubleValue
-5.783

@<SCITEGIC>MOL_PROPERTY
Grad RMS
SciTegic.value.DoubleValue
0.000000

@<SCITEGIC>MOL_PROPERTY
U
SciTegic.value.DoubleValue
50.122

@<SCITEGIC>MOL_PROPERTY
W
SciTegic.value.DoubleValue
-55.906

@<SCITEGIC>MOL_PROPERTY
W(PB)
SciTegic.value.DoubleValue
-58.010

@<SCITEGIC>MOL_PROPERTY
W(SA)
SciTegic.value.DoubleValue
2.105

@<SCITEGIC>MOL_PROPERTY
Valence
SciTegic.value.DoubleValue
4.132

@<SCITEGIC>MOL_PROPERTY
Coulomb
SciTegic.value.DoubleValue
45.536

@<SCITEGIC>MOL_PROPERTY
VdW
SciTegic.value.DoubleValue
0.454

@<SCITEGIC>MOL_PROPERTY
VdW6
SciTegic.value.DoubleValue
-6.262

@<SCITEGIC>MOL_PROPERTY
VdW12
SciTegic.value.DoubleValue
6.715

@<SCITEGIC>MOL_PROPERTY
Bond
SciTegic.value.DoubleValue
0.182

@<SCITEGIC>MOL_PROPERTY
Angle
SciTegic.value.DoubleValue
1.157

@<SCITEGIC>MOL_PROPERTY
Pdih
SciTegic.value.DoubleValue
2.794

@<SCITEGIC>MOL_PROPERTY
Idih
SciTegic.value.DoubleValue
0.000

@<SCITEGIC>MOL_PROPERTY
Tether
SciTegic.value.DoubleValue
0.000

@<TRIPOS>MOLECULE
guest-2_confgen4.mol2 : confsearch ligand conformer 667
          23          22           1
SMALL
USER_CHARGES
 
@<TRIPOS>ATOM
       1    N1      21.418151   16.694559   22.079397 N.4        1 MOL1        -0.5940
       2    H1      22.257931   16.691908   21.491799 H          1 MOL1         0.3649
       3    H2      21.173753   15.714439   22.256592 H          1 MOL1         0.3649
       4    H3      21.679786   17.107436   22.979700 H          1 MOL1         0.3649
       5    C1      20.277589   17.451067   21.427440 C.3        1 MOL1         0.0207
       6    H4      19.407447   17.387524   22.086045 H          1 MOL1         0.0950
       7    H5      20.032658   16.942363   20.491104 H          1 MOL1         0.0950
       8    C2      20.603267   18.930047   21.137033 C.3        1 MOL1        -0.1415
       9    H6      21.456460   18.981032   20.447702 H          1 MOL1         0.0976
      10    H7      19.758388   19.379966   20.600220 H          1 MOL1         0.0976
      11    C3      20.921539   19.766056   22.404627 C.3        1 MOL1        -0.1375
      12    H8      21.099995   20.808160   22.105667 H          1 MOL1         0.0976
      13    H9      21.867189   19.416854   22.840559 H          1 MOL1         0.0976
      14    C4      19.824159   19.735012   23.499886 C.3        1 MOL1        -0.1375
      15    H10     19.698322   18.711978   23.878643 H          1 MOL1         0.0976
      16    H11     20.170649   20.333088   24.354045 H          1 MOL1         0.0976
      17    C5      18.459304   20.285056   23.022902 C.3        1 MOL1        -0.1350
      18    H12     18.059799   19.658242   22.214546 H          1 MOL1         0.0976
      19    H13     18.590425   21.294450   22.608603 H          1 MOL1         0.0976
      20    C6      17.431569   20.333369   24.173471 C.3        1 MOL1        -0.2365
      21    H14     16.469151   20.723221   23.817406 H          1 MOL1         0.0987
      22    H15     17.778548   20.984722   24.986206 H          1 MOL1         0.0987
      23    H16     17.256736   19.332205   24.588571 H          1 MOL1         0.0987
@<TRIPOS>BOND
    1     1     2    1
    2     1     3    1
    3     1     4    1
    4     1     5    1
    5     5     6    1
    6     5     7    1
    7     5     8    1
    8     8     9    1
    9     8    10    1
   10     8    11    1
   11    11    12    1
   12    11    13    1
   13    11    14    1
   14    14    15    1
   15    14    16    1
   16    14    17    1
   17    17    18    1
   18    17    19    1
   19    17    20    1
   20    20    21    1
   21    20    22    1
   22    20    23    1
@<TRIPOS>SUBSTRUCTURE
       1 MOL1            1 RESIDUE      1      MOL     
@<SCITEGIC>MOL_PROPERTY
VConf Rank
SciTegic.value.IntegerValue
667

@<SCITEGIC>MOL_PROPERTY
Conf_Id
SciTegic.value.IntegerValue
72

@<SCITEGIC>MOL_PROPERTY
Delta U+W
SciTegic.value.DoubleValue
1.051

@<SCITEGIC>MOL_PROPERTY
U+W
SciTegic.value.DoubleValue
-7.331

@<SCITEGIC>MOL_PROPERTY
Grad RMS
SciTegic.value.DoubleValue
0.000000

@<SCITEGIC>MOL_PROPERTY
U
SciTegic.value.DoubleValue
48.590

@<SCITEGIC>MOL_PROPERTY
W
SciTegic.value.DoubleValue
-55.922

@<SCITEGIC>MOL_PROPERTY
W(PB)
SciTegic.value.DoubleValue
-58.012

@<SCITEGIC>MOL_PROPERTY
W(SA)
SciTegic.value.DoubleValue
2.090

@<SCITEGIC>MOL_PROPERTY
Valence
SciTegic.value.DoubleValue
2.601

@<SCITEGIC>MOL_PROPERTY
Coulomb
SciTegic.value.DoubleValue
45.520

@<SCITEGIC>MOL_PROPERTY
VdW
SciTegic.value.DoubleValue
0.469

@<SCITEGIC>MOL_PROPERTY
VdW6
SciTegic.value.DoubleValue
-6.867

@<SCITEGIC>MOL_PROPERTY
VdW12
SciTegic.value.DoubleValue
7.336

@<SCITEGIC>MOL_PROPERTY
Bond
SciTegic.value.DoubleValue
0.205

@<SCITEGIC>MOL_PROPERTY
Angle
SciTegic.value.DoubleValue
0.962

@<SCITEGIC>MOL_PROPERTY
Pdih
SciTegic.value.DoubleValue
1.434

@<SCITEGIC>MOL_PROPERTY
Idih
SciTegic.value.DoubleValue
0.000

@<SCITEGIC>MOL_PROPERTY
Tether
SciTegic.value.DoubleValue
0.000

@<TRIPOS>MOLECULE
guest-2_confgen4.mol2 : confsearch ligand conformer 668
          23          22           1
SMALL
USER_CHARGES
 
@<TRIPOS>ATOM
       1    N1      18.869008   21.954254   22.283999 N.4        1 MOL1        -0.5940
       2    H1      17.934952   22.375044   22.333312 H          1 MOL1         0.3649
       3    H2      19.400469   22.489984   21.590222 H          1 MOL1         0.3649
       4    H3      19.315346   22.111778   23.193191 H          1 MOL1         0.3649
       5    C1      18.805105   20.481803   21.932653 C.3        1 MOL1         0.0207
       6    H4      18.294571   20.385645   20.970645 H          1 MOL1         0.0950
       7    H5      18.201863   19.980611   22.694124 H          1 MOL1         0.0950
       8    C2      20.193069   19.819476   21.850826 C.3        1 MOL1        -0.1415
       9    H6      20.802991   20.353749   21.110370 H          1 MOL1         0.0976
      10    H7      20.711710   19.926746   22.812042 H          1 MOL1         0.0976
      11    C3      20.119323   18.324460   21.452641 C.3        1 MOL1        -0.1375
      12    H8      21.137934   17.918889   21.390243 H          1 MOL1         0.0976
      13    H9      19.707853   18.247922   20.436695 H          1 MOL1         0.0976
      14    C4      19.265452   17.439179   22.400238 C.3        1 MOL1        -0.1375
      15    H10     18.212330   17.743839   22.333758 H          1 MOL1         0.0976
      16    H11     19.296149   16.403558   22.034563 H          1 MOL1         0.0976
      17    C5      19.699368   17.456705   23.888065 C.3        1 MOL1        -0.1350
      18    H12     19.019403   16.808853   24.458700 H          1 MOL1         0.0976
      19    H13     19.576901   18.464216   24.307637 H          1 MOL1         0.0976
      20    C6      21.150167   16.972107   24.109117 C.3        1 MOL1        -0.2365
      21    H14     21.300093   15.970379   23.686029 H          1 MOL1         0.0987
      22    H15     21.379735   16.921669   25.181309 H          1 MOL1         0.0987
      23    H16     21.876372   17.652477   23.647294 H          1 MOL1         0.0987
@<TRIPOS>BOND
    1     1     2    1
    2     1     3    1
    3     1     4    1
    4     1     5    1
    5     5     6    1
    6     5     7    1
    7     5     8    1
    8     8     9    1
    9     8    10    1
   10     8    11    1
   11    11    12    1
   12    11    13    1
   13    11    14    1
   14    14    15    1
   15    14    16    1
   16    14    17    1
   17    17    18    1
   18    17    19    1
   19    17    20    1
   20    20    21    1
   21    20    22    1
   22    20    23    1
@<TRIPOS>SUBSTRUCTURE
       1 MOL1            1 RESIDUE      1      MOL     
@<SCITEGIC>MOL_PROPERTY
VConf Rank
SciTegic.value.IntegerValue
668

@<SCITEGIC>MOL_PROPERTY
Conf_Id
SciTegic.value.IntegerValue
26

@<SCITEGIC>MOL_PROPERTY
Delta U+W
SciTegic.value.DoubleValue
1.076

@<SCITEGIC>MOL_PROPERTY
U+W
SciTegic.value.DoubleValue
-7.306

@<SCITEGIC>MOL_PROPERTY
Grad RMS
SciTegic.value.DoubleValue
0.000000

@<SCITEGIC>MOL_PROPERTY
U
SciTegic.value.DoubleValue
48.641

@<SCITEGIC>MOL_PROPERTY
W
SciTegic.value.DoubleValue
-55.947

@<SCITEGIC>MOL_PROPERTY
W(PB)
SciTegic.value.DoubleValue
-58.031

@<SCITEGIC>MOL_PROPERTY
W(SA)
SciTegic.value.DoubleValue
2.084

@<SCITEGIC>MOL_PROPERTY
Valence
SciTegic.value.DoubleValue
2.922

@<SCITEGIC>MOL_PROPERTY
Coulomb
SciTegic.value.DoubleValue
45.269

@<SCITEGIC>MOL_PROPERTY
VdW
SciTegic.value.DoubleValue
0.449

@<SCITEGIC>MOL_PROPERTY
VdW6
SciTegic.value.DoubleValue
-7.045

@<SCITEGIC>MOL_PROPERTY
VdW12
SciTegic.value.DoubleValue
7.494

@<SCITEGIC>MOL_PROPERTY
Bond
SciTegic.value.DoubleValue
0.220

@<SCITEGIC>MOL_PROPERTY
Angle
SciTegic.value.DoubleValue
1.205

@<SCITEGIC>MOL_PROPERTY
Pdih
SciTegic.value.DoubleValue
1.497

@<SCITEGIC>MOL_PROPERTY
Idih
SciTegic.value.DoubleValue
0.000

@<SCITEGIC>MOL_PROPERTY
Tether
SciTegic.value.DoubleValue
0.000

@<TRIPOS>MOLECULE
guest-2_confgen4.mol2 : confsearch ligand conformer 669
          23          22           1
SMALL
USER_CHARGES
 
@<TRIPOS>ATOM
       1    N1      19.869383   16.473992   20.751638 N.4        1 MOL1        -0.5940
       2    H1      18.948913   16.128057   20.462076 H          1 MOL1         0.3649
       3    H2      20.504056   15.668295   20.750677 H          1 MOL1         0.3649
       4    H3      20.196127   17.111784   20.018751 H          1 MOL1         0.3649
       5    C1      19.818424   17.148665   22.107312 C.3        1 MOL1         0.0207
       6    H4      20.833223   17.463482   22.364229 H          1 MOL1         0.0950
       7    H5      19.491527   16.407579   22.841669 H          1 MOL1         0.0950
       8    C2      18.873223   18.364068   22.142085 C.3        1 MOL1        -0.1415
       9    H6      19.192743   19.102998   21.396215 H          1 MOL1         0.0976
      10    H7      17.865332   18.043929   21.846456 H          1 MOL1         0.0976
      11    C3      18.798004   19.022810   23.541893 C.3        1 MOL1        -0.1375
      12    H8      18.362048   18.303835   24.249233 H          1 MOL1         0.0976
      13    H9      18.094145   19.864935   23.505022 H          1 MOL1         0.0976
      14    C4      20.159900   19.509163   24.107099 C.3        1 MOL1        -0.1375
      15    H10     19.987068   19.970645   25.089102 H          1 MOL1         0.0976
      16    H11     20.805981   18.641929   24.298900 H          1 MOL1         0.0976
      17    C5      20.924697   20.515321   23.209906 C.3        1 MOL1        -0.1350
      18    H12     21.202455   20.041378   22.258934 H          1 MOL1         0.0976
      19    H13     21.871324   20.775454   23.703790 H          1 MOL1         0.0976
      20    C6      20.134270   21.814466   22.934287 C.3        1 MOL1        -0.2365
      21    H14     19.230296   21.617964   22.344560 H          1 MOL1         0.0987
      22    H15     20.749474   22.526492   22.369146 H          1 MOL1         0.0987
      23    H16     19.834364   22.300025   23.871959 H          1 MOL1         0.0987
@<TRIPOS>BOND
    1     1     2    1
    2     1     3    1
    3     1     4    1
    4     1     5    1
    5     5     6    1
    6     5     7    1
    7     5     8    1
    8     8     9    1
    9     8    10    1
   10     8    11    1
   11    11    12    1
   12    11    13    1
   13    11    14    1
   14    14    15    1
   15    14    16    1
   16    14    17    1
   17    17    18    1
   18    17    19    1
   19    17    20    1
   20    20    21    1
   21    20    22    1
   22    20    23    1
@<TRIPOS>SUBSTRUCTURE
       1 MOL1            1 RESIDUE      1      MOL     
@<SCITEGIC>MOL_PROPERTY
VConf Rank
SciTegic.value.IntegerValue
669

@<SCITEGIC>MOL_PROPERTY
Conf_Id
SciTegic.value.IntegerValue
90

@<SCITEGIC>MOL_PROPERTY
Delta U+W
SciTegic.value.DoubleValue
1.131

@<SCITEGIC>MOL_PROPERTY
U+W
SciTegic.value.DoubleValue
-7.251

@<SCITEGIC>MOL_PROPERTY
Grad RMS
SciTegic.value.DoubleValue
0.000000

@<SCITEGIC>MOL_PROPERTY
U
SciTegic.value.DoubleValue
48.641

@<SCITEGIC>MOL_PROPERTY
W
SciTegic.value.DoubleValue
-55.892

@<SCITEGIC>MOL_PROPERTY
W(PB)
SciTegic.value.DoubleValue
-57.962

@<SCITEGIC>MOL_PROPERTY
W(SA)
SciTegic.value.DoubleValue
2.070

@<SCITEGIC>MOL_PROPERTY
Valence
SciTegic.value.DoubleValue
2.922

@<SCITEGIC>MOL_PROPERTY
Coulomb
SciTegic.value.DoubleValue
45.269

@<SCITEGIC>MOL_PROPERTY
VdW
SciTegic.value.DoubleValue
0.450

@<SCITEGIC>MOL_PROPERTY
VdW6
SciTegic.value.DoubleValue
-7.045

@<SCITEGIC>MOL_PROPERTY
VdW12
SciTegic.value.DoubleValue
7.495

@<SCITEGIC>MOL_PROPERTY
Bond
SciTegic.value.DoubleValue
0.220

@<SCITEGIC>MOL_PROPERTY
Angle
SciTegic.value.DoubleValue
1.205

@<SCITEGIC>MOL_PROPERTY
Pdih
SciTegic.value.DoubleValue
1.497

@<SCITEGIC>MOL_PROPERTY
Idih
SciTegic.value.DoubleValue
0.000

@<SCITEGIC>MOL_PROPERTY
Tether
SciTegic.value.DoubleValue
0.000

@<TRIPOS>MOLECULE
guest-2_confgen4.mol2 : confsearch ligand conformer 670
          23          22           1
SMALL
USER_CHARGES
 
@<TRIPOS>ATOM
       1    N1      18.613971   21.260333   22.133928 N.4        1 MOL1        -0.5940
       2    H1      18.046040   21.669975   21.384596 H          1 MOL1         0.3649
       3    H2      19.482240   20.925671   21.705287 H          1 MOL1         0.3649
       4    H3      18.864073   22.023403   22.770910 H          1 MOL1         0.3649
       5    C1      17.879412   20.145472   22.852193 C.3        1 MOL1         0.0207
       6    H4      17.616018   19.382989   22.114658 H          1 MOL1         0.0950
       7    H5      16.952109   20.562621   23.254206 H          1 MOL1         0.0950
       8    C2      18.691105   19.505440   23.996921 C.3        1 MOL1        -0.1415
       9    H6      18.909249   20.269966   24.754353 H          1 MOL1         0.0976
      10    H7      18.065193   18.752508   24.494084 H          1 MOL1         0.0976
      11    C3      20.015888   18.846271   23.537541 C.3        1 MOL1        -0.1375
      12    H8      20.526237   18.434933   24.419276 H          1 MOL1         0.0976
      13    H9      20.684093   19.614322   23.128027 H          1 MOL1         0.0976
      14    C4      19.802801   17.714901   22.500203 C.3        1 MOL1        -0.1375
      15    H10     19.066176   17.001367   22.894563 H          1 MOL1         0.0976
      16    H11     19.373459   18.123974   21.575942 H          1 MOL1         0.0976
      17    C5      21.100322   16.943481   22.158525 C.3        1 MOL1        -0.1350
      18    H12     20.845966   16.097556   21.504652 H          1 MOL1         0.0976
      19    H13     21.525856   16.507395   23.073145 H          1 MOL1         0.0976
      20    C6      22.164663   17.815205   21.453962 C.3        1 MOL1        -0.2365
      21    H14     21.755692   18.284267   20.549716 H          1 MOL1         0.0987
      22    H15     23.024966   17.202926   21.154081 H          1 MOL1         0.0987
      23    H16     22.538716   18.607426   22.114175 H          1 MOL1         0.0987
@<TRIPOS>BOND
    1     1     2    1
    2     1     3    1
    3     1     4    1
    4     1     5    1
    5     5     6    1
    6     5     7    1
    7     5     8    1
    8     8     9    1
    9     8    10    1
   10     8    11    1
   11    11    12    1
   12    11    13    1
   13    11    14    1
   14    14    15    1
   15    14    16    1
   16    14    17    1
   17    17    18    1
   18    17    19    1
   19    17    20    1
   20    20    21    1
   21    20    22    1
   22    20    23    1
@<TRIPOS>SUBSTRUCTURE
       1 MOL1            1 RESIDUE      1      MOL     
@<SCITEGIC>MOL_PROPERTY
VConf Rank
SciTegic.value.IntegerValue
670

@<SCITEGIC>MOL_PROPERTY
Conf_Id
SciTegic.value.IntegerValue
85

@<SCITEGIC>MOL_PROPERTY
Delta U+W
SciTegic.value.DoubleValue
1.193

@<SCITEGIC>MOL_PROPERTY
U+W
SciTegic.value.DoubleValue
-7.189

@<SCITEGIC>MOL_PROPERTY
Grad RMS
SciTegic.value.DoubleValue
0.000000

@<SCITEGIC>MOL_PROPERTY
U
SciTegic.value.DoubleValue
48.775

@<SCITEGIC>MOL_PROPERTY
W
SciTegic.value.DoubleValue
-55.965

@<SCITEGIC>MOL_PROPERTY
W(PB)
SciTegic.value.DoubleValue
-58.038

@<SCITEGIC>MOL_PROPERTY
W(SA)
SciTegic.value.DoubleValue
2.073

@<SCITEGIC>MOL_PROPERTY
Valence
SciTegic.value.DoubleValue
2.602

@<SCITEGIC>MOL_PROPERTY
Coulomb
SciTegic.value.DoubleValue
45.581

@<SCITEGIC>MOL_PROPERTY
VdW
SciTegic.value.DoubleValue
0.592

@<SCITEGIC>MOL_PROPERTY
VdW6
SciTegic.value.DoubleValue
-6.616

@<SCITEGIC>MOL_PROPERTY
VdW12
SciTegic.value.DoubleValue
7.208

@<SCITEGIC>MOL_PROPERTY
Bond
SciTegic.value.DoubleValue
0.196

@<SCITEGIC>MOL_PROPERTY
Angle
SciTegic.value.DoubleValue
0.832

@<SCITEGIC>MOL_PROPERTY
Pdih
SciTegic.value.DoubleValue
1.574

@<SCITEGIC>MOL_PROPERTY
Idih
SciTegic.value.DoubleValue
0.000

@<SCITEGIC>MOL_PROPERTY
Tether
SciTegic.value.DoubleValue
0.000

@<TRIPOS>MOLECULE
guest-2_confgen4.mol2 : confsearch ligand conformer 671
          23          22           1
SMALL
USER_CHARGES
 
@<TRIPOS>ATOM
       1    N1      18.233445   18.239305   23.811572 N.4        1 MOL1        -0.5940
       2    H1      19.256885   18.285584   23.844704 H          1 MOL1         0.3649
       3    H2      17.958657   17.295508   24.104902 H          1 MOL1         0.3649
       4    H3      17.874684   18.888311   24.519453 H          1 MOL1         0.3649
       5    C1      17.710399   18.573443   22.427940 C.3        1 MOL1         0.0207
       6    H4      16.620126   18.504615   22.473528 H          1 MOL1         0.0950
       7    H5      18.068910   17.816282   21.725583 H          1 MOL1         0.0950
       8    C2      18.105613   19.978811   21.930482 C.3        1 MOL1        -0.1415
       9    H6      17.386492   20.272463   21.154291 H          1 MOL1         0.0976
      10    H7      17.982633   20.707974   22.742313 H          1 MOL1         0.0976
      11    C3      19.529965   20.090165   21.323083 C.3        1 MOL1        -0.1375
      12    H8      19.653672   21.120994   20.963094 H          1 MOL1         0.0976
      13    H9      19.606993   19.456080   20.428951 H          1 MOL1         0.0976
      14    C4      20.693413   19.780130   22.299570 C.3        1 MOL1        -0.1375
      15    H10     21.532852   20.449798   22.065851 H          1 MOL1         0.0976
      16    H11     20.399441   20.023650   23.329135 H          1 MOL1         0.0976
      17    C5      21.205221   18.322685   22.194658 C.3        1 MOL1        -0.1350
      18    H12     21.646199   18.164515   21.200346 H          1 MOL1         0.0976
      19    H13     20.378808   17.606602   22.275551 H          1 MOL1         0.0976
      20    C6      22.263409   18.010388   23.273795 C.3        1 MOL1        -0.2365
      21    H14     23.128728   18.679833   23.181955 H          1 MOL1         0.0987
      22    H15     22.625197   16.978673   23.174535 H          1 MOL1         0.0987
      23    H16     21.849061   18.126030   24.283601 H          1 MOL1         0.0987
@<TRIPOS>BOND
    1     1     2    1
    2     1     3    1
    3     1     4    1
    4     1     5    1
    5     5     6    1
    6     5     7    1
    7     5     8    1
    8     8     9    1
    9     8    10    1
   10     8    11    1
   11    11    12    1
   12    11    13    1
   13    11    14    1
   14    14    15    1
   15    14    16    1
   16    14    17    1
   17    17    18    1
   18    17    19    1
   19    17    20    1
   20    20    21    1
   21    20    22    1
   22    20    23    1
@<TRIPOS>SUBSTRUCTURE
       1 MOL1            1 RESIDUE      1      MOL     
@<SCITEGIC>MOL_PROPERTY
VConf Rank
SciTegic.value.IntegerValue
671

@<SCITEGIC>MOL_PROPERTY
Conf_Id
SciTegic.value.IntegerValue
82

@<SCITEGIC>MOL_PROPERTY
Delta U+W
SciTegic.value.DoubleValue
5.994

@<SCITEGIC>MOL_PROPERTY
U+W
SciTegic.value.DoubleValue
-2.388

@<SCITEGIC>MOL_PROPERTY
Grad RMS
SciTegic.value.DoubleValue
0.000000

@<SCITEGIC>MOL_PROPERTY
U
SciTegic.value.DoubleValue
52.836

@<SCITEGIC>MOL_PROPERTY
W
SciTegic.value.DoubleValue
-55.224

@<SCITEGIC>MOL_PROPERTY
W(PB)
SciTegic.value.DoubleValue
-57.261

@<SCITEGIC>MOL_PROPERTY
W(SA)
SciTegic.value.DoubleValue
2.037

@<SCITEGIC>MOL_PROPERTY
Valence
SciTegic.value.DoubleValue
5.785

@<SCITEGIC>MOL_PROPERTY
Coulomb
SciTegic.value.DoubleValue
46.744

@<SCITEGIC>MOL_PROPERTY
VdW
SciTegic.value.DoubleValue
0.307

@<SCITEGIC>MOL_PROPERTY
VdW6
SciTegic.value.DoubleValue
-7.672

@<SCITEGIC>MOL_PROPERTY
VdW12
SciTegic.value.DoubleValue
7.979

@<SCITEGIC>MOL_PROPERTY
Bond
SciTegic.value.DoubleValue
0.217

@<SCITEGIC>MOL_PROPERTY
Angle
SciTegic.value.DoubleValue
1.470

@<SCITEGIC>MOL_PROPERTY
Pdih
SciTegic.value.DoubleValue
4.098

@<SCITEGIC>MOL_PROPERTY
Idih
SciTegic.value.DoubleValue
0.000

@<SCITEGIC>MOL_PROPERTY
Tether
SciTegic.value.DoubleValue
0.000

@<TRIPOS>MOLECULE
guest-2_confgen4.mol2 : confsearch ligand conformer 672
          23          22           1
SMALL
USER_CHARGES
 
@<TRIPOS>ATOM
       1    N1      19.340614   20.216377   20.978170 N.4        1 MOL1        -0.5940
       2    H1      19.930805   21.036067   20.802678 H          1 MOL1         0.3649
       3    H2      18.797907   20.050496   20.123621 H          1 MOL1         0.3649
       4    H3      19.963650   19.412749   21.107329 H          1 MOL1         0.3649
       5    C1      18.443848   20.418858   22.184183 C.3        1 MOL1         0.0207
       6    H4      17.792847   19.546655   22.287083 H          1 MOL1         0.0950
       7    H5      17.815317   21.288105   21.972362 H          1 MOL1         0.0950
       8    C2      19.209076   20.660069   23.501363 C.3        1 MOL1        -0.1415
       9    H6      20.039425   21.356905   23.325825 H          1 MOL1         0.0976
      10    H7      18.528886   21.174712   24.192971 H          1 MOL1         0.0976
      11    C3      19.726451   19.379792   24.210819 C.3        1 MOL1        -0.1375
      12    H8      18.878808   18.744885   24.503845 H          1 MOL1         0.0976
      13    H9      20.196990   19.693889   25.152859 H          1 MOL1         0.0976
      14    C4      20.762980   18.550697   23.409899 C.3        1 MOL1        -0.1375
      15    H10     21.335940   19.205276   22.739849 H          1 MOL1         0.0976
      16    H11     21.496445   18.134610   24.114625 H          1 MOL1         0.0976
      17    C5      20.129974   17.371264   22.631860 C.3        1 MOL1        -0.1350
      18    H12     19.288041   17.710005   22.016485 H          1 MOL1         0.0976
      19    H13     19.710771   16.649338   23.346861 H          1 MOL1         0.0976
      20    C6      21.165114   16.656310   21.737906 C.3        1 MOL1        -0.2365
      21    H14     21.583067   17.339506   20.987355 H          1 MOL1         0.0987
      22    H15     20.702326   15.814645   21.206299 H          1 MOL1         0.0987
      23    H16     21.995159   16.259378   22.336936 H          1 MOL1         0.0987
@<TRIPOS>BOND
    1     1     2    1
    2     1     3    1
    3     1     4    1
    4     1     5    1
    5     5     6    1
    6     5     7    1
    7     5     8    1
    8     8     9    1
    9     8    10    1
   10     8    11    1
   11    11    12    1
   12    11    13    1
   13    11    14    1
   14    14    15    1
   15    14    16    1
   16    14    17    1
   17    17    18    1
   18    17    19    1
   19    17    20    1
   20    20    21    1
   21    20    22    1
   22    20    23    1
@<TRIPOS>SUBSTRUCTURE
       1 MOL1            1 RESIDUE      1      MOL     
@<SCITEGIC>MOL_PROPERTY
VConf Rank
SciTegic.value.IntegerValue
672

@<SCITEGIC>MOL_PROPERTY
Conf_Id
SciTegic.value.IntegerValue
5

@<SCITEGIC>MOL_PROPERTY
Delta U+W
SciTegic.value.DoubleValue
6.087

@<SCITEGIC>MOL_PROPERTY
U+W
SciTegic.value.DoubleValue
-2.295

@<SCITEGIC>MOL_PROPERTY
Grad RMS
SciTegic.value.DoubleValue
0.000000

@<SCITEGIC>MOL_PROPERTY
U
SciTegic.value.DoubleValue
52.836

@<SCITEGIC>MOL_PROPERTY
W
SciTegic.value.DoubleValue
-55.131

@<SCITEGIC>MOL_PROPERTY
W(PB)
SciTegic.value.DoubleValue
-57.202

@<SCITEGIC>MOL_PROPERTY
W(SA)
SciTegic.value.DoubleValue
2.071

@<SCITEGIC>MOL_PROPERTY
Valence
SciTegic.value.DoubleValue
5.785

@<SCITEGIC>MOL_PROPERTY
Coulomb
SciTegic.value.DoubleValue
46.744

@<SCITEGIC>MOL_PROPERTY
VdW
SciTegic.value.DoubleValue
0.307

@<SCITEGIC>MOL_PROPERTY
VdW6
SciTegic.value.DoubleValue
-7.672

@<SCITEGIC>MOL_PROPERTY
VdW12
SciTegic.value.DoubleValue
7.980

@<SCITEGIC>MOL_PROPERTY
Bond
SciTegic.value.DoubleValue
0.217

@<SCITEGIC>MOL_PROPERTY
Angle
SciTegic.value.DoubleValue
1.470

@<SCITEGIC>MOL_PROPERTY
Pdih
SciTegic.value.DoubleValue
4.098

@<SCITEGIC>MOL_PROPERTY
Idih
SciTegic.value.DoubleValue
0.000

@<SCITEGIC>MOL_PROPERTY
Tether
SciTegic.value.DoubleValue
0.000

@<TRIPOS>MOLECULE
guest-2_confgen4.mol2 : confsearch ligand conformer 673
          23          22           1
SMALL
USER_CHARGES
 
@<TRIPOS>ATOM
       1    N1      22.275749   16.758595   24.450916 N.4        1 MOL1        -0.5940
       2    H1      21.608175   16.019561   24.693938 H          1 MOL1         0.3649
       3    H2      22.957908   16.806951   25.215386 H          1 MOL1         0.3649
       4    H3      22.783858   16.444035   23.617993 H          1 MOL1         0.3649
       5    C1      21.588330   18.089876   24.224989 C.3        1 MOL1         0.0207
       6    H4      22.358015   18.833352   24.000657 H          1 MOL1         0.0950
       7    H5      21.094356   18.377115   25.157180 H          1 MOL1         0.0950
       8    C2      20.557295   18.050858   23.083052 C.3        1 MOL1        -0.1415
       9    H6      21.054661   17.746239   22.152496 H          1 MOL1         0.0976
      10    H7      19.795520   17.291528   23.304897 H          1 MOL1         0.0976
      11    C3      19.880106   19.425097   22.885395 C.3        1 MOL1        -0.1375
      12    H8      20.646004   20.182951   22.668926 H          1 MOL1         0.0976
      13    H9      19.388172   19.728687   23.820081 H          1 MOL1         0.0976
      14    C4      18.842220   19.397387   21.740394 C.3        1 MOL1        -0.1375
      15    H10     19.333974   19.093986   20.805708 H          1 MOL1         0.0976
      16    H11     18.076322   18.639675   21.956696 H          1 MOL1         0.0976
      17    C5      18.165081   20.771904   21.543049 C.3        1 MOL1        -0.1350
      18    H12     18.927064   21.533055   21.323954 H          1 MOL1         0.0976
      19    H13     17.669515   21.078774   22.474831 H          1 MOL1         0.0976
      20    C6      17.129435   20.740344   20.398956 C.3        1 MOL1        -0.2365
      21    H14     16.659619   21.724582   20.274079 H          1 MOL1         0.0987
      22    H15     16.334792   20.011637   20.605737 H          1 MOL1         0.0987
      23    H16     17.602160   20.469440   19.445871 H          1 MOL1         0.0987
@<TRIPOS>BOND
    1     1     2    1
    2     1     3    1
    3     1     4    1
    4     1     5    1
    5     5     6    1
    6     5     7    1
    7     5     8    1
    8     8     9    1
    9     8    10    1
   10     8    11    1
   11    11    12    1
   12    11    13    1
   13    11    14    1
   14    14    15    1
   15    14    16    1
   16    14    17    1
   17    17    18    1
   18    17    19    1
   19    17    20    1
   20    20    21    1
   21    20    22    1
   22    20    23    1
@<TRIPOS>SUBSTRUCTURE
       1 MOL1            1 RESIDUE      1      MOL     
@<SCITEGIC>MOL_PROPERTY
VConf Rank
SciTegic.value.IntegerValue
673

@<SCITEGIC>MOL_PROPERTY
Conf_Id
SciTegic.value.IntegerValue
40

@<SCITEGIC>MOL_PROPERTY
Delta U+W
SciTegic.value.DoubleValue
0.000

@<SCITEGIC>MOL_PROPERTY
U+W
SciTegic.value.DoubleValue
-8.382

@<SCITEGIC>MOL_PROPERTY
Grad RMS
SciTegic.value.DoubleValue
0.000000

@<SCITEGIC>MOL_PROPERTY
U
SciTegic.value.DoubleValue
46.604

@<SCITEGIC>MOL_PROPERTY
W
SciTegic.value.DoubleValue
-54.986

@<SCITEGIC>MOL_PROPERTY
W(PB)
SciTegic.value.DoubleValue
-57.162

@<SCITEGIC>MOL_PROPERTY
W(SA)
SciTegic.value.DoubleValue
2.176

@<SCITEGIC>MOL_PROPERTY
Valence
SciTegic.value.DoubleValue
1.727

@<SCITEGIC>MOL_PROPERTY
Coulomb
SciTegic.value.DoubleValue
44.434

@<SCITEGIC>MOL_PROPERTY
VdW
SciTegic.value.DoubleValue
0.443

@<SCITEGIC>MOL_PROPERTY
VdW6
SciTegic.value.DoubleValue
-4.623

@<SCITEGIC>MOL_PROPERTY
VdW12
SciTegic.value.DoubleValue
5.066

@<SCITEGIC>MOL_PROPERTY
Bond
SciTegic.value.DoubleValue
0.112

@<SCITEGIC>MOL_PROPERTY
Angle
SciTegic.value.DoubleValue
0.386

@<SCITEGIC>MOL_PROPERTY
Pdih
SciTegic.value.DoubleValue
1.228

@<SCITEGIC>MOL_PROPERTY
Idih
SciTegic.value.DoubleValue
0.000

@<SCITEGIC>MOL_PROPERTY
Tether
SciTegic.value.DoubleValue
0.000

@<TRIPOS>MOLECULE
guest-2_confgen4.mol2 : confsearch ligand conformer 674
          23          22           1
SMALL
USER_CHARGES
 
@<TRIPOS>ATOM
       1    N1      22.389617   16.806932   21.616962 N.4        1 MOL1        -0.5940
       2    H1      22.440176   16.750502   20.594661 H          1 MOL1         0.3649
       3    H2      21.952967   15.939631   21.945536 H          1 MOL1         0.3649
       4    H3      23.354997   16.804484   21.963465 H          1 MOL1         0.3649
       5    C1      21.628816   18.033245   22.078612 C.3        1 MOL1         0.0207
       6    H4      22.162908   18.916923   21.719070 H          1 MOL1         0.0950
       7    H5      21.642308   18.043761   23.171419 H          1 MOL1         0.0950
       8    C2      20.173863   18.066168   21.573480 C.3        1 MOL1        -0.1415
       9    H6      20.174921   18.006985   20.476920 H          1 MOL1         0.0976
      10    H7      19.636569   17.179395   21.935325 H          1 MOL1         0.0976
      11    C3      19.417224   19.344766   22.005109 C.3        1 MOL1        -0.1375
      12    H8      18.435538   19.344931   21.513932 H          1 MOL1         0.0976
      13    H9      19.951856   20.229865   21.633438 H          1 MOL1         0.0976
      14    C4      19.230519   19.452030   23.540105 C.3        1 MOL1        -0.1375
      15    H10     18.677645   18.576775   23.908182 H          1 MOL1         0.0976
      16    H11     20.211695   19.426919   24.032211 H          1 MOL1         0.0976
      17    C5      18.503505   20.744937   23.983238 C.3        1 MOL1        -0.1350
      18    H12     19.057985   21.624253   23.626650 H          1 MOL1         0.0976
      19    H13     18.517581   20.797762   25.080911 H          1 MOL1         0.0976
      20    C6      17.036827   20.824049   23.501586 C.3        1 MOL1        -0.2365
      21    H14     16.973842   20.901634   22.409218 H          1 MOL1         0.0987
      22    H15     16.541666   21.708373   23.923170 H          1 MOL1         0.0987
      23    H16     16.468971   19.939353   23.817597 H          1 MOL1         0.0987
@<TRIPOS>BOND
    1     1     2    1
    2     1     3    1
    3     1     4    1
    4     1     5    1
    5     5     6    1
    6     5     7    1
    7     5     8    1
    8     8     9    1
    9     8    10    1
   10     8    11    1
   11    11    12    1
   12    11    13    1
   13    11    14    1
   14    14    15    1
   15    14    16    1
   16    14    17    1
   17    17    18    1
   18    17    19    1
   19    17    20    1
   20    20    21    1
   21    20    22    1
   22    20    23    1
@<TRIPOS>SUBSTRUCTURE
       1 MOL1            1 RESIDUE      1      MOL     
@<SCITEGIC>MOL_PROPERTY
VConf Rank
SciTegic.value.IntegerValue
674

@<SCITEGIC>MOL_PROPERTY
Conf_Id
SciTegic.value.IntegerValue
65

@<SCITEGIC>MOL_PROPERTY
Delta U+W
SciTegic.value.DoubleValue
1.004

@<SCITEGIC>MOL_PROPERTY
U+W
SciTegic.value.DoubleValue
-7.378

@<SCITEGIC>MOL_PROPERTY
Grad RMS
SciTegic.value.DoubleValue
0.000000

@<SCITEGIC>MOL_PROPERTY
U
SciTegic.value.DoubleValue
48.047

@<SCITEGIC>MOL_PROPERTY
W
SciTegic.value.DoubleValue
-55.425

@<SCITEGIC>MOL_PROPERTY
W(PB)
SciTegic.value.DoubleValue
-57.542

@<SCITEGIC>MOL_PROPERTY
W(SA)
SciTegic.value.DoubleValue
2.116

@<SCITEGIC>MOL_PROPERTY
Valence
SciTegic.value.DoubleValue
2.583

@<SCITEGIC>MOL_PROPERTY
Coulomb
SciTegic.value.DoubleValue
44.791

@<SCITEGIC>MOL_PROPERTY
VdW
SciTegic.value.DoubleValue
0.673

@<SCITEGIC>MOL_PROPERTY
VdW6
SciTegic.value.DoubleValue
-5.788

@<SCITEGIC>MOL_PROPERTY
VdW12
SciTegic.value.DoubleValue
6.462

@<SCITEGIC>MOL_PROPERTY
Bond
SciTegic.value.DoubleValue
0.177

@<SCITEGIC>MOL_PROPERTY
Angle
SciTegic.value.DoubleValue
0.787

@<SCITEGIC>MOL_PROPERTY
Pdih
SciTegic.value.DoubleValue
1.619

@<SCITEGIC>MOL_PROPERTY
Idih
SciTegic.value.DoubleValue
0.000

@<SCITEGIC>MOL_PROPERTY
Tether
SciTegic.value.DoubleValue
0.000

@<TRIPOS>MOLECULE
guest-2_confgen4.mol2 : confsearch ligand conformer 675
          23          22           1
SMALL
USER_CHARGES
 
@<TRIPOS>ATOM
       1    N1      19.190358   15.761476   23.959836 N.4        1 MOL1        -0.5940
       2    H1      20.034134   15.185760   23.873625 H          1 MOL1         0.3649
       3    H2      18.390841   15.149068   23.765524 H          1 MOL1         0.3649
       4    H3      19.117291   16.044020   24.942517 H          1 MOL1         0.3649
       5    C1      19.223636   16.956426   23.028835 C.3        1 MOL1         0.0207
       6    H4      18.285167   17.502894   23.151993 H          1 MOL1         0.0950
       7    H5      19.272699   16.583223   22.002325 H          1 MOL1         0.0950
       8    C2      20.414684   17.896242   23.295824 C.3        1 MOL1        -0.1415
       9    H6      20.365261   18.272349   24.326400 H          1 MOL1         0.0976
      10    H7      21.347582   17.322515   23.215300 H          1 MOL1         0.0976
      11    C3      20.472621   19.087090   22.309853 C.3        1 MOL1        -0.1375
      12    H8      20.531931   18.707708   21.280327 H          1 MOL1         0.0976
      13    H9      21.403817   19.638889   22.492486 H          1 MOL1         0.0976
      14    C4      19.263896   20.047968   22.445028 C.3        1 MOL1        -0.1375
      15    H10     18.331572   19.490140   22.286576 H          1 MOL1         0.0976
      16    H11     19.217396   20.443118   23.469193 H          1 MOL1         0.0976
      17    C5      19.296906   21.224462   21.439399 C.3        1 MOL1        -0.1350
      18    H12     18.354941   21.784551   21.522307 H          1 MOL1         0.0976
      19    H13     19.332849   20.834957   20.412368 H          1 MOL1         0.0976
      20    C6      20.475051   22.198674   21.668033 C.3        1 MOL1        -0.2365
      21    H14     21.441178   21.717347   21.472636 H          1 MOL1         0.0987
      22    H15     20.480598   22.576958   22.698509 H          1 MOL1         0.0987
      23    H16     20.395479   23.061815   20.994533 H          1 MOL1         0.0987
@<TRIPOS>BOND
    1     1     2    1
    2     1     3    1
    3     1     4    1
    4     1     5    1
    5     5     6    1
    6     5     7    1
    7     5     8    1
    8     8     9    1
    9     8    10    1
   10     8    11    1
   11    11    12    1
   12    11    13    1
   13    11    14    1
   14    14    15    1
   15    14    16    1
   16    14    17    1
   17    17    18    1
   18    17    19    1
   19    17    20    1
   20    20    21    1
   21    20    22    1
   22    20    23    1
@<TRIPOS>SUBSTRUCTURE
       1 MOL1            1 RESIDUE      1      MOL     
@<SCITEGIC>MOL_PROPERTY
VConf Rank
SciTegic.value.IntegerValue
675

@<SCITEGIC>MOL_PROPERTY
Conf_Id
SciTegic.value.IntegerValue
92

@<SCITEGIC>MOL_PROPERTY
Delta U+W
SciTegic.value.DoubleValue
0.973

@<SCITEGIC>MOL_PROPERTY
U+W
SciTegic.value.DoubleValue
-7.409

@<SCITEGIC>MOL_PROPERTY
Grad RMS
SciTegic.value.DoubleValue
0.000000

@<SCITEGIC>MOL_PROPERTY
U
SciTegic.value.DoubleValue
48.047

@<SCITEGIC>MOL_PROPERTY
W
SciTegic.value.DoubleValue
-55.456

@<SCITEGIC>MOL_PROPERTY
W(PB)
SciTegic.value.DoubleValue
-57.595

@<SCITEGIC>MOL_PROPERTY
W(SA)
SciTegic.value.DoubleValue
2.138

@<SCITEGIC>MOL_PROPERTY
Valence
SciTegic.value.DoubleValue
2.583

@<SCITEGIC>MOL_PROPERTY
Coulomb
SciTegic.value.DoubleValue
44.791

@<SCITEGIC>MOL_PROPERTY
VdW
SciTegic.value.DoubleValue
0.674

@<SCITEGIC>MOL_PROPERTY
VdW6
SciTegic.value.DoubleValue
-5.789

@<SCITEGIC>MOL_PROPERTY
VdW12
SciTegic.value.DoubleValue
6.462

@<SCITEGIC>MOL_PROPERTY
Bond
SciTegic.value.DoubleValue
0.177

@<SCITEGIC>MOL_PROPERTY
Angle
SciTegic.value.DoubleValue
0.787

@<SCITEGIC>MOL_PROPERTY
Pdih
SciTegic.value.DoubleValue
1.619

@<SCITEGIC>MOL_PROPERTY
Idih
SciTegic.value.DoubleValue
0.000

@<SCITEGIC>MOL_PROPERTY
Tether
SciTegic.value.DoubleValue
0.000

@<TRIPOS>MOLECULE
guest-2_confgen4.mol2 : confsearch ligand conformer 676
          23          22           1
SMALL
USER_CHARGES
 
@<TRIPOS>ATOM
       1    N1      16.824974   20.585271   23.763818 N.4        1 MOL1        -0.5940
       2    H1      15.905135   20.137339   23.691107 H          1 MOL1         0.3649
       3    H2      16.702920   21.563206   23.481686 H          1 MOL1         0.3649
       4    H3      17.077565   20.587437   24.757313 H          1 MOL1         0.3649
       5    C1      17.864069   19.878149   22.917628 C.3        1 MOL1         0.0207
       6    H4      17.518440   19.888140   21.880391 H          1 MOL1         0.0950
       7    H5      17.918272   18.839083   23.252437 H          1 MOL1         0.0950
       8    C2      19.257879   20.528091   23.005527 C.3        1 MOL1        -0.1415
       9    H6      19.181105   21.582752   22.709314 H          1 MOL1         0.0976
      10    H7      19.604601   20.518769   24.047493 H          1 MOL1         0.0976
      11    C3      20.302041   19.828315   22.103823 C.3        1 MOL1        -0.1375
      12    H8      21.240980   20.397641   22.145195 H          1 MOL1         0.0976
      13    H9      19.964557   19.861825   21.058533 H          1 MOL1         0.0976
      14    C4      20.577414   18.362418   22.517078 C.3        1 MOL1        -0.1375
      15    H10     20.882714   18.329430   23.572123 H          1 MOL1         0.0976
      16    H11     19.656933   17.769315   22.433406 H          1 MOL1         0.0976
      17    C5      21.676391   17.716996   21.643893 C.3        1 MOL1        -0.1350
      18    H12     22.605646   18.298042   21.726555 H          1 MOL1         0.0976
      19    H13     21.376348   17.747938   20.587014 H          1 MOL1         0.0976
      20    C6      21.949233   16.254702   22.055982 C.3        1 MOL1        -0.2365
      21    H14     22.283945   16.194607   23.099813 H          1 MOL1         0.0987
      22    H15     22.732225   15.813927   21.425359 H          1 MOL1         0.0987
      23    H16     21.046011   15.639634   21.950611 H          1 MOL1         0.0987
@<TRIPOS>BOND
    1     1     2    1
    2     1     3    1
    3     1     4    1
    4     1     5    1
    5     5     6    1
    6     5     7    1
    7     5     8    1
    8     8     9    1
    9     8    10    1
   10     8    11    1
   11    11    12    1
   12    11    13    1
   13    11    14    1
   14    14    15    1
   15    14    16    1
   16    14    17    1
   17    17    18    1
   18    17    19    1
   19    17    20    1
   20    20    21    1
   21    20    22    1
   22    20    23    1
@<TRIPOS>SUBSTRUCTURE
       1 MOL1            1 RESIDUE      1      MOL     
@<SCITEGIC>MOL_PROPERTY
VConf Rank
SciTegic.value.IntegerValue
676

@<SCITEGIC>MOL_PROPERTY
Conf_Id
SciTegic.value.IntegerValue
42

@<SCITEGIC>MOL_PROPERTY
Delta U+W
SciTegic.value.DoubleValue
0.365

@<SCITEGIC>MOL_PROPERTY
U+W
SciTegic.value.DoubleValue
-8.017

@<SCITEGIC>MOL_PROPERTY
Grad RMS
SciTegic.value.DoubleValue
0.000000

@<SCITEGIC>MOL_PROPERTY
U
SciTegic.value.DoubleValue
47.375

@<SCITEGIC>MOL_PROPERTY
W
SciTegic.value.DoubleValue
-55.392

@<SCITEGIC>MOL_PROPERTY
W(PB)
SciTegic.value.DoubleValue
-57.543

@<SCITEGIC>MOL_PROPERTY
W(SA)
SciTegic.value.DoubleValue
2.152

@<SCITEGIC>MOL_PROPERTY
Valence
SciTegic.value.DoubleValue
2.032

@<SCITEGIC>MOL_PROPERTY
Coulomb
SciTegic.value.DoubleValue
44.843

@<SCITEGIC>MOL_PROPERTY
VdW
SciTegic.value.DoubleValue
0.499

@<SCITEGIC>MOL_PROPERTY
VdW6
SciTegic.value.DoubleValue
-5.218

@<SCITEGIC>MOL_PROPERTY
VdW12
SciTegic.value.DoubleValue
5.717

@<SCITEGIC>MOL_PROPERTY
Bond
SciTegic.value.DoubleValue
0.135

@<SCITEGIC>MOL_PROPERTY
Angle
SciTegic.value.DoubleValue
0.514

@<SCITEGIC>MOL_PROPERTY
Pdih
SciTegic.value.DoubleValue
1.383

@<SCITEGIC>MOL_PROPERTY
Idih
SciTegic.value.DoubleValue
0.000

@<SCITEGIC>MOL_PROPERTY
Tether
SciTegic.value.DoubleValue
0.000

@<TRIPOS>MOLECULE
guest-2_confgen4.mol2 : confsearch ligand conformer 677
          23          22           1
SMALL
USER_CHARGES
 
@<TRIPOS>ATOM
       1    N1      17.158303   20.713191   23.221793 N.4        1 MOL1        -0.5940
       2    H1      16.616276   19.899065   23.528450 H          1 MOL1         0.3649
       3    H2      16.487003   21.465530   23.033937 H          1 MOL1         0.3649
       4    H3      17.729398   21.013902   24.017296 H          1 MOL1         0.3649
       5    C1      18.006958   20.399651   22.004805 C.3        1 MOL1         0.0207
       6    H4      18.538002   21.310816   21.716374 H          1 MOL1         0.0950
       7    H5      17.329036   20.128810   21.190779 H          1 MOL1         0.0950
       8    C2      19.017963   19.257808   22.226830 C.3        1 MOL1        -0.1415
       9    H6      18.484924   18.351451   22.543116 H          1 MOL1         0.0976
      10    H7      19.486932   19.033116   21.261067 H          1 MOL1         0.0976
      11    C3      20.113501   19.620570   23.258821 C.3        1 MOL1        -0.1375
      12    H8      19.640468   19.946113   24.194552 H          1 MOL1         0.0976
      13    H9      20.688409   20.481914   22.891433 H          1 MOL1         0.0976
      14    C4      21.084830   18.459312   23.595063 C.3        1 MOL1        -0.1375
      15    H10     21.780831   18.823431   24.363494 H          1 MOL1         0.0976
      16    H11     20.535396   17.631165   24.063593 H          1 MOL1         0.0976
      17    C5      21.919920   17.938939   22.396615 C.3        1 MOL1        -0.1350
      18    H12     22.919842   17.663316   22.760151 H          1 MOL1         0.0976
      19    H13     22.076758   18.741495   21.662513 H          1 MOL1         0.0976
      20    C6      21.303293   16.696402   21.712412 C.3        1 MOL1        -0.2365
      21    H14     21.212946   15.863466   22.421717 H          1 MOL1         0.0987
      22    H15     21.939064   16.359511   20.883428 H          1 MOL1         0.0987
      23    H16     20.307204   16.900846   21.304821 H          1 MOL1         0.0987
@<TRIPOS>BOND
    1     1     2    1
    2     1     3    1
    3     1     4    1
    4     1     5    1
    5     5     6    1
    6     5     7    1
    7     5     8    1
    8     8     9    1
    9     8    10    1
   10     8    11    1
   11    11    12    1
   12    11    13    1
   13    11    14    1
   14    14    15    1
   15    14    16    1
   16    14    17    1
   17    17    18    1
   18    17    19    1
   19    17    20    1
   20    20    21    1
   21    20    22    1
   22    20    23    1
@<TRIPOS>SUBSTRUCTURE
       1 MOL1            1 RESIDUE      1      MOL     
@<SCITEGIC>MOL_PROPERTY
VConf Rank
SciTegic.value.IntegerValue
677

@<SCITEGIC>MOL_PROPERTY
Conf_Id
SciTegic.value.IntegerValue
3

@<SCITEGIC>MOL_PROPERTY
Delta U+W
SciTegic.value.DoubleValue
3.283

@<SCITEGIC>MOL_PROPERTY
U+W
SciTegic.value.DoubleValue
-5.099

@<SCITEGIC>MOL_PROPERTY
Grad RMS
SciTegic.value.DoubleValue
0.000000

@<SCITEGIC>MOL_PROPERTY
U
SciTegic.value.DoubleValue
50.701

@<SCITEGIC>MOL_PROPERTY
W
SciTegic.value.DoubleValue
-55.800

@<SCITEGIC>MOL_PROPERTY
W(PB)
SciTegic.value.DoubleValue
-57.867

@<SCITEGIC>MOL_PROPERTY
W(SA)
SciTegic.value.DoubleValue
2.067

@<SCITEGIC>MOL_PROPERTY
Valence
SciTegic.value.DoubleValue
4.880

@<SCITEGIC>MOL_PROPERTY
Coulomb
SciTegic.value.DoubleValue
45.095

@<SCITEGIC>MOL_PROPERTY
VdW
SciTegic.value.DoubleValue
0.726

@<SCITEGIC>MOL_PROPERTY
VdW6
SciTegic.value.DoubleValue
-6.620

@<SCITEGIC>MOL_PROPERTY
VdW12
SciTegic.value.DoubleValue
7.346

@<SCITEGIC>MOL_PROPERTY
Bond
SciTegic.value.DoubleValue
0.222

@<SCITEGIC>MOL_PROPERTY
Angle
SciTegic.value.DoubleValue
1.260

@<SCITEGIC>MOL_PROPERTY
Pdih
SciTegic.value.DoubleValue
3.398

@<SCITEGIC>MOL_PROPERTY
Idih
SciTegic.value.DoubleValue
0.000

@<SCITEGIC>MOL_PROPERTY
Tether
SciTegic.value.DoubleValue
0.000

@<TRIPOS>MOLECULE
guest-2_confgen4.mol2 : confsearch ligand conformer 678
          23          22           1
SMALL
USER_CHARGES
 
@<TRIPOS>ATOM
       1    N1      18.927685   16.340519   22.051151 N.4        1 MOL1        -0.5940
       2    H1      18.279178   16.264617   21.261067 H          1 MOL1         0.3649
       3    H2      19.100741   15.387730   22.388907 H          1 MOL1         0.3649
       4    H3      19.815309   16.694782   21.682070 H          1 MOL1         0.3649
       5    C1      18.379786   17.235416   23.145344 C.3        1 MOL1         0.0207
       6    H4      19.101483   17.248477   23.965998 H          1 MOL1         0.0950
       7    H5      17.456075   16.781686   23.514686 H          1 MOL1         0.0950
       8    C2      18.090276   18.677346   22.680265 C.3        1 MOL1        -0.1415
       9    H6      17.326303   18.652304   21.891899 H          1 MOL1         0.0976
      10    H7      17.647980   19.235086   23.516423 H          1 MOL1         0.0976
      11    C3      19.335771   19.439202   22.160683 C.3        1 MOL1        -0.1375
      12    H8      19.010052   20.430686   21.820476 H          1 MOL1         0.0976
      13    H9      19.742968   18.931309   21.276385 H          1 MOL1         0.0976
      14    C4      20.444779   19.597603   23.231869 C.3        1 MOL1        -0.1375
      15    H10     20.043037   20.130478   24.104690 H          1 MOL1         0.0976
      16    H11     20.754199   18.607099   23.590357 H          1 MOL1         0.0976
      17    C5      21.702918   20.334455   22.711694 C.3        1 MOL1        -0.1350
      18    H12     22.115681   19.799670   21.844885 H          1 MOL1         0.0976
      19    H13     22.477555   20.300282   23.490561 H          1 MOL1         0.0976
      20    C6      21.442052   21.811021   22.336132 C.3        1 MOL1        -0.2365
      21    H14     20.997824   22.359848   23.176642 H          1 MOL1         0.0987
      22    H15     20.768216   21.895935   21.474748 H          1 MOL1         0.0987
      23    H16     22.382094   22.310818   22.068815 H          1 MOL1         0.0987
@<TRIPOS>BOND
    1     1     2    1
    2     1     3    1
    3     1     4    1
    4     1     5    1
    5     5     6    1
    6     5     7    1
    7     5     8    1
    8     8     9    1
    9     8    10    1
   10     8    11    1
   11    11    12    1
   12    11    13    1
   13    11    14    1
   14    14    15    1
   15    14    16    1
   16    14    17    1
   17    17    18    1
   18    17    19    1
   19    17    20    1
   20    20    21    1
   21    20    22    1
   22    20    23    1
@<TRIPOS>SUBSTRUCTURE
       1 MOL1            1 RESIDUE      1      MOL     
@<SCITEGIC>MOL_PROPERTY
VConf Rank
SciTegic.value.IntegerValue
678

@<SCITEGIC>MOL_PROPERTY
Conf_Id
SciTegic.value.IntegerValue
83

@<SCITEGIC>MOL_PROPERTY
Delta U+W
SciTegic.value.DoubleValue
1.229

@<SCITEGIC>MOL_PROPERTY
U+W
SciTegic.value.DoubleValue
-7.154

@<SCITEGIC>MOL_PROPERTY
Grad RMS
SciTegic.value.DoubleValue
0.000000

@<SCITEGIC>MOL_PROPERTY
U
SciTegic.value.DoubleValue
48.727

@<SCITEGIC>MOL_PROPERTY
W
SciTegic.value.DoubleValue
-55.880

@<SCITEGIC>MOL_PROPERTY
W(PB)
SciTegic.value.DoubleValue
-57.960

@<SCITEGIC>MOL_PROPERTY
W(SA)
SciTegic.value.DoubleValue
2.080

@<SCITEGIC>MOL_PROPERTY
Valence
SciTegic.value.DoubleValue
2.671

@<SCITEGIC>MOL_PROPERTY
Coulomb
SciTegic.value.DoubleValue
45.371

@<SCITEGIC>MOL_PROPERTY
VdW
SciTegic.value.DoubleValue
0.684

@<SCITEGIC>MOL_PROPERTY
VdW6
SciTegic.value.DoubleValue
-6.511

@<SCITEGIC>MOL_PROPERTY
VdW12
SciTegic.value.DoubleValue
7.195

@<SCITEGIC>MOL_PROPERTY
Bond
SciTegic.value.DoubleValue
0.203

@<SCITEGIC>MOL_PROPERTY
Angle
SciTegic.value.DoubleValue
0.915

@<SCITEGIC>MOL_PROPERTY
Pdih
SciTegic.value.DoubleValue
1.554

@<SCITEGIC>MOL_PROPERTY
Idih
SciTegic.value.DoubleValue
0.000

@<SCITEGIC>MOL_PROPERTY
Tether
SciTegic.value.DoubleValue
0.000

@<TRIPOS>MOLECULE
guest-2_confgen4.mol2 : confsearch ligand conformer 679
          23          22           1
SMALL
USER_CHARGES
 
@<TRIPOS>ATOM
       1    N1      20.926243   18.190447   25.084746 N.4        1 MOL1        -0.5940
       2    H1      21.879448   18.543227   25.217033 H          1 MOL1         0.3649
       3    H2      20.939445   17.582669   24.260105 H          1 MOL1         0.3649
       4    H3      20.711965   17.596746   25.893102 H          1 MOL1         0.3649
       5    C1      19.924549   19.318165   24.932573 C.3        1 MOL1         0.0207
       6    H4      19.938516   19.902368   25.856715 H          1 MOL1         0.0950
       7    H5      18.930329   18.876759   24.826846 H          1 MOL1         0.0950
       8    C2      20.214195   20.247664   23.736156 C.3        1 MOL1        -0.1415
       9    H6      19.476517   21.061107   23.735355 H          1 MOL1         0.0976
      10    H7      21.193130   20.723407   23.881616 H          1 MOL1         0.0976
      11    C3      20.191294   19.536596   22.359382 C.3        1 MOL1        -0.1375
      12    H8      20.976855   18.770324   22.321036 H          1 MOL1         0.0976
      13    H9      20.448658   20.276549   21.590547 H          1 MOL1         0.0976
      14    C4      18.818958   18.898274   22.025214 C.3        1 MOL1        -0.1375
      15    H10     18.549312   18.175604   22.806491 H          1 MOL1         0.0976
      16    H11     18.038386   19.671412   22.036759 H          1 MOL1         0.0976
      17    C5      18.796862   18.163146   20.663031 C.3        1 MOL1        -0.1350
      18    H12     17.833306   17.644927   20.558761 H          1 MOL1         0.0976
      19    H13     19.568796   17.381055   20.649620 H          1 MOL1         0.0976
      20    C6      18.987881   19.103562   19.451225 C.3        1 MOL1        -0.2365
      21    H14     18.247920   19.914357   19.459923 H          1 MOL1         0.0987
      22    H15     18.866138   18.548693   18.511952 H          1 MOL1         0.0987
      23    H16     19.989234   19.551257   19.441018 H          1 MOL1         0.0987
@<TRIPOS>BOND
    1     1     2    1
    2     1     3    1
    3     1     4    1
    4     1     5    1
    5     5     6    1
    6     5     7    1
    7     5     8    1
    8     8     9    1
    9     8    10    1
   10     8    11    1
   11    11    12    1
   12    11    13    1
   13    11    14    1
   14    14    15    1
   15    14    16    1
   16    14    17    1
   17    17    18    1
   18    17    19    1
   19    17    20    1
   20    20    21    1
   21    20    22    1
   22    20    23    1
@<TRIPOS>SUBSTRUCTURE
       1 MOL1            1 RESIDUE      1      MOL     
@<SCITEGIC>MOL_PROPERTY
VConf Rank
SciTegic.value.IntegerValue
679

@<SCITEGIC>MOL_PROPERTY
Conf_Id
SciTegic.value.IntegerValue
50

@<SCITEGIC>MOL_PROPERTY
Delta U+W
SciTegic.value.DoubleValue
1.252

@<SCITEGIC>MOL_PROPERTY
U+W
SciTegic.value.DoubleValue
-7.130

@<SCITEGIC>MOL_PROPERTY
Grad RMS
SciTegic.value.DoubleValue
0.000000

@<SCITEGIC>MOL_PROPERTY
U
SciTegic.value.DoubleValue
48.727

@<SCITEGIC>MOL_PROPERTY
W
SciTegic.value.DoubleValue
-55.857

@<SCITEGIC>MOL_PROPERTY
W(PB)
SciTegic.value.DoubleValue
-57.937

@<SCITEGIC>MOL_PROPERTY
W(SA)
SciTegic.value.DoubleValue
2.080

@<SCITEGIC>MOL_PROPERTY
Valence
SciTegic.value.DoubleValue
2.671

@<SCITEGIC>MOL_PROPERTY
Coulomb
SciTegic.value.DoubleValue
45.371

@<SCITEGIC>MOL_PROPERTY
VdW
SciTegic.value.DoubleValue
0.684

@<SCITEGIC>MOL_PROPERTY
VdW6
SciTegic.value.DoubleValue
-6.511

@<SCITEGIC>MOL_PROPERTY
VdW12
SciTegic.value.DoubleValue
7.196

@<SCITEGIC>MOL_PROPERTY
Bond
SciTegic.value.DoubleValue
0.203

@<SCITEGIC>MOL_PROPERTY
Angle
SciTegic.value.DoubleValue
0.915

@<SCITEGIC>MOL_PROPERTY
Pdih
SciTegic.value.DoubleValue
1.554

@<SCITEGIC>MOL_PROPERTY
Idih
SciTegic.value.DoubleValue
0.000

@<SCITEGIC>MOL_PROPERTY
Tether
SciTegic.value.DoubleValue
0.000

@<TRIPOS>MOLECULE
guest-2_confgen4.mol2 : confsearch ligand conformer 680
          23          22           1
SMALL
USER_CHARGES
 
@<TRIPOS>ATOM
       1    N1      22.058693   20.191326   20.713398 N.4        1 MOL1        -0.5940
       2    H1      22.019887   19.202608   20.447949 H          1 MOL1         0.3649
       3    H2      23.036356   20.487710   20.622505 H          1 MOL1         0.3649
       4    H3      21.521791   20.714309   20.014220 H          1 MOL1         0.3649
       5    C1      21.529835   20.418673   22.116204 C.3        1 MOL1         0.0207
       6    H4      21.640355   21.482482   22.343513 H          1 MOL1         0.0950
       7    H5      22.158060   19.855038   22.811230 H          1 MOL1         0.0950
       8    C2      20.055998   20.007840   22.299996 C.3        1 MOL1        -0.1415
       9    H6      19.738635   20.310437   23.304176 H          1 MOL1         0.0976
      10    H7      19.429982   20.572618   21.596507 H          1 MOL1         0.0976
      11    C3      19.830752   18.487156   22.101352 C.3        1 MOL1        -0.1375
      12    H8      20.521361   17.912311   22.733783 H          1 MOL1         0.0976
      13    H9      20.082247   18.230010   21.063752 H          1 MOL1         0.0976
      14    C4      18.369285   18.041554   22.369038 C.3        1 MOL1        -0.1375
      15    H10     17.672981   18.861138   22.144013 H          1 MOL1         0.0976
      16    H11     18.120621   17.239673   21.660063 H          1 MOL1         0.0976
      17    C5      18.108789   17.497410   23.797064 C.3        1 MOL1        -0.1350
      18    H12     18.738193   16.614288   23.975163 H          1 MOL1         0.0976
      19    H13     17.069139   17.145313   23.851543 H          1 MOL1         0.0976
      20    C6      18.341826   18.527735   24.923633 C.3        1 MOL1        -0.2365
      21    H14     17.770382   19.447515   24.743936 H          1 MOL1         0.0987
      22    H15     19.403916   18.786913   25.013438 H          1 MOL1         0.0987
      23    H16     18.022156   18.117589   25.890318 H          1 MOL1         0.0987
@<TRIPOS>BOND
    1     1     2    1
    2     1     3    1
    3     1     4    1
    4     1     5    1
    5     5     6    1
    6     5     7    1
    7     5     8    1
    8     8     9    1
    9     8    10    1
   10     8    11    1
   11    11    12    1
   12    11    13    1
   13    11    14    1
   14    14    15    1
   15    14    16    1
   16    14    17    1
   17    17    18    1
   18    17    19    1
   19    17    20    1
   20    20    21    1
   21    20    22    1
   22    20    23    1
@<TRIPOS>SUBSTRUCTURE
       1 MOL1            1 RESIDUE      1      MOL     
@<SCITEGIC>MOL_PROPERTY
VConf Rank
SciTegic.value.IntegerValue
680

@<SCITEGIC>MOL_PROPERTY
Conf_Id
SciTegic.value.IntegerValue
55

@<SCITEGIC>MOL_PROPERTY
Delta U+W
SciTegic.value.DoubleValue
3.232

@<SCITEGIC>MOL_PROPERTY
U+W
SciTegic.value.DoubleValue
-5.150

@<SCITEGIC>MOL_PROPERTY
Grad RMS
SciTegic.value.DoubleValue
0.000000

@<SCITEGIC>MOL_PROPERTY
U
SciTegic.value.DoubleValue
50.625

@<SCITEGIC>MOL_PROPERTY
W
SciTegic.value.DoubleValue
-55.776

@<SCITEGIC>MOL_PROPERTY
W(PB)
SciTegic.value.DoubleValue
-57.839

@<SCITEGIC>MOL_PROPERTY
W(SA)
SciTegic.value.DoubleValue
2.064

@<SCITEGIC>MOL_PROPERTY
Valence
SciTegic.value.DoubleValue
4.837

@<SCITEGIC>MOL_PROPERTY
Coulomb
SciTegic.value.DoubleValue
45.097

@<SCITEGIC>MOL_PROPERTY
VdW
SciTegic.value.DoubleValue
0.692

@<SCITEGIC>MOL_PROPERTY
VdW6
SciTegic.value.DoubleValue
-6.655

@<SCITEGIC>MOL_PROPERTY
VdW12
SciTegic.value.DoubleValue
7.347

@<SCITEGIC>MOL_PROPERTY
Bond
SciTegic.value.DoubleValue
0.223

@<SCITEGIC>MOL_PROPERTY
Angle
SciTegic.value.DoubleValue
1.167

@<SCITEGIC>MOL_PROPERTY
Pdih
SciTegic.value.DoubleValue
3.447

@<SCITEGIC>MOL_PROPERTY
Idih
SciTegic.value.DoubleValue
0.000

@<SCITEGIC>MOL_PROPERTY
Tether
SciTegic.value.DoubleValue
0.000

@<TRIPOS>MOLECULE
guest-2_confgen4.mol2 : confsearch ligand conformer 681
          23          22           1
SMALL
USER_CHARGES
 
@<TRIPOS>ATOM
       1    N1      22.537798   19.452672   24.152603 N.4        1 MOL1        -0.5940
       2    H1      22.610977   19.319583   25.166389 H          1 MOL1         0.3649
       3    H2      23.164529   20.226891   23.908081 H          1 MOL1         0.3649
       4    H3      22.918129   18.609995   23.709884 H          1 MOL1         0.3649
       5    C1      21.111424   19.724469   23.719900 C.3        1 MOL1         0.0207
       6    H4      21.116321   19.890987   22.641203 H          1 MOL1         0.0950
       7    H5      20.783117   20.647400   24.205507 H          1 MOL1         0.0950
       8    C2      20.144015   18.580036   24.080698 C.3        1 MOL1        -0.1415
       9    H6      20.486944   17.635629   23.637575 H          1 MOL1         0.0976
      10    H7      20.173415   18.440180   25.169548 H          1 MOL1         0.0976
      11    C3      18.680142   18.865613   23.660001 C.3        1 MOL1        -0.1375
      12    H8      18.445832   19.928661   23.810436 H          1 MOL1         0.0976
      13    H9      18.015729   18.316027   24.341182 H          1 MOL1         0.0976
      14    C4      18.320341   18.440035   22.212624 C.3        1 MOL1        -0.1375
      15    H10     18.459496   17.355461   22.104796 H          1 MOL1         0.0976
      16    H11     17.248347   18.625881   22.058577 H          1 MOL1         0.0976
      17    C5      19.118618   19.171468   21.108875 C.3        1 MOL1        -0.1350
      18    H12     20.174112   18.872977   21.150702 H          1 MOL1         0.0976
      19    H13     19.079372   20.256930   21.275939 H          1 MOL1         0.0976
      20    C6      18.570571   18.849957   19.702121 C.3        1 MOL1        -0.2365
      21    H14     17.524850   19.168988   19.602619 H          1 MOL1         0.0987
      22    H15     18.620584   17.772815   19.495933 H          1 MOL1         0.0987
      23    H16     19.154974   19.368132   18.930759 H          1 MOL1         0.0987
@<TRIPOS>BOND
    1     1     2    1
    2     1     3    1
    3     1     4    1
    4     1     5    1
    5     5     6    1
    6     5     7    1
    7     5     8    1
    8     8     9    1
    9     8    10    1
   10     8    11    1
   11    11    12    1
   12    11    13    1
   13    11    14    1
   14    14    15    1
   15    14    16    1
   16    14    17    1
   17    17    18    1
   18    17    19    1
   19    17    20    1
   20    20    21    1
   21    20    22    1
   22    20    23    1
@<TRIPOS>SUBSTRUCTURE
       1 MOL1            1 RESIDUE      1      MOL     
@<SCITEGIC>MOL_PROPERTY
VConf Rank
SciTegic.value.IntegerValue
681

@<SCITEGIC>MOL_PROPERTY
Conf_Id
SciTegic.value.IntegerValue
93

@<SCITEGIC>MOL_PROPERTY
Delta U+W
SciTegic.value.DoubleValue
2.589

@<SCITEGIC>MOL_PROPERTY
U+W
SciTegic.value.DoubleValue
-5.793

@<SCITEGIC>MOL_PROPERTY
Grad RMS
SciTegic.value.DoubleValue
0.000000

@<SCITEGIC>MOL_PROPERTY
U
SciTegic.value.DoubleValue
50.122

@<SCITEGIC>MOL_PROPERTY
W
SciTegic.value.DoubleValue
-55.915

@<SCITEGIC>MOL_PROPERTY
W(PB)
SciTegic.value.DoubleValue
-58.031

@<SCITEGIC>MOL_PROPERTY
W(SA)
SciTegic.value.DoubleValue
2.115

@<SCITEGIC>MOL_PROPERTY
Valence
SciTegic.value.DoubleValue
4.132

@<SCITEGIC>MOL_PROPERTY
Coulomb
SciTegic.value.DoubleValue
45.536

@<SCITEGIC>MOL_PROPERTY
VdW
SciTegic.value.DoubleValue
0.454

@<SCITEGIC>MOL_PROPERTY
VdW6
SciTegic.value.DoubleValue
-6.262

@<SCITEGIC>MOL_PROPERTY
VdW12
SciTegic.value.DoubleValue
6.715

@<SCITEGIC>MOL_PROPERTY
Bond
SciTegic.value.DoubleValue
0.182

@<SCITEGIC>MOL_PROPERTY
Angle
SciTegic.value.DoubleValue
1.157

@<SCITEGIC>MOL_PROPERTY
Pdih
SciTegic.value.DoubleValue
2.794

@<SCITEGIC>MOL_PROPERTY
Idih
SciTegic.value.DoubleValue
0.000

@<SCITEGIC>MOL_PROPERTY
Tether
SciTegic.value.DoubleValue
0.000

@<TRIPOS>MOLECULE
guest-2_confgen4.mol2 : confsearch ligand conformer 682
          23          22           1
SMALL
USER_CHARGES
 
@<TRIPOS>ATOM
       1    N1      19.222252   16.010200   23.525585 N.4        1 MOL1        -0.5940
       2    H1      18.441548   15.939350   22.865103 H          1 MOL1         0.3649
       3    H2      18.843545   15.810532   24.457633 H          1 MOL1         0.3649
       4    H3      19.875983   15.253013   23.301683 H          1 MOL1         0.3649
       5    C1      19.890322   17.368891   23.468265 C.3        1 MOL1         0.0207
       6    H4      20.689411   17.382088   24.214376 H          1 MOL1         0.0950
       7    H5      19.148209   18.117448   23.751587 H          1 MOL1         0.0950
       8    C2      20.476011   17.694105   22.080103 C.3        1 MOL1        -0.1415
       9    H6      21.210417   16.916840   21.830053 H          1 MOL1         0.0976
      10    H7      19.692847   17.638987   21.312328 H          1 MOL1         0.0976
      11    C3      21.180298   19.073383   22.024993 C.3        1 MOL1        -0.1375
      12    H8      21.957429   19.029177   21.249357 H          1 MOL1         0.0976
      13    H9      21.712393   19.262250   22.967759 H          1 MOL1         0.0976
      14    C4      20.251897   20.269206   21.688014 C.3        1 MOL1        -0.1375
      15    H10     20.873288   21.171922   21.607916 H          1 MOL1         0.0976
      16    H11     19.806020   20.117907   20.695243 H          1 MOL1         0.0976
      17    C5      19.129634   20.524300   22.720465 C.3        1 MOL1        -0.1350
      18    H12     19.554795   20.562997   23.733094 H          1 MOL1         0.0976
      19    H13     18.408479   19.696975   22.700900 H          1 MOL1         0.0976
      20    C6      18.377809   21.840837   22.430341 C.3        1 MOL1        -0.2365
      21    H14     17.578341   22.000682   23.165412 H          1 MOL1         0.0987
      22    H15     17.919568   21.821895   21.432891 H          1 MOL1         0.0987
      23    H16     19.056199   22.702616   22.478699 H          1 MOL1         0.0987
@<TRIPOS>BOND
    1     1     2    1
    2     1     3    1
    3     1     4    1
    4     1     5    1
    5     5     6    1
    6     5     7    1
    7     5     8    1
    8     8     9    1
    9     8    10    1
   10     8    11    1
   11    11    12    1
   12    11    13    1
   13    11    14    1
   14    14    15    1
   15    14    16    1
   16    14    17    1
   17    17    18    1
   18    17    19    1
   19    17    20    1
   20    20    21    1
   21    20    22    1
   22    20    23    1
@<TRIPOS>SUBSTRUCTURE
       1 MOL1            1 RESIDUE      1      MOL     
@<SCITEGIC>MOL_PROPERTY
VConf Rank
SciTegic.value.IntegerValue
682

@<SCITEGIC>MOL_PROPERTY
Conf_Id
SciTegic.value.IntegerValue
70

@<SCITEGIC>MOL_PROPERTY
Delta U+W
SciTegic.value.DoubleValue
2.599

@<SCITEGIC>MOL_PROPERTY
U+W
SciTegic.value.DoubleValue
-5.783

@<SCITEGIC>MOL_PROPERTY
Grad RMS
SciTegic.value.DoubleValue
0.000000

@<SCITEGIC>MOL_PROPERTY
U
SciTegic.value.DoubleValue
50.122

@<SCITEGIC>MOL_PROPERTY
W
SciTegic.value.DoubleValue
-55.906

@<SCITEGIC>MOL_PROPERTY
W(PB)
SciTegic.value.DoubleValue
-58.010

@<SCITEGIC>MOL_PROPERTY
W(SA)
SciTegic.value.DoubleValue
2.105

@<SCITEGIC>MOL_PROPERTY
Valence
SciTegic.value.DoubleValue
4.132

@<SCITEGIC>MOL_PROPERTY
Coulomb
SciTegic.value.DoubleValue
45.536

@<SCITEGIC>MOL_PROPERTY
VdW
SciTegic.value.DoubleValue
0.454

@<SCITEGIC>MOL_PROPERTY
VdW6
SciTegic.value.DoubleValue
-6.262

@<SCITEGIC>MOL_PROPERTY
VdW12
SciTegic.value.DoubleValue
6.715

@<SCITEGIC>MOL_PROPERTY
Bond
SciTegic.value.DoubleValue
0.182

@<SCITEGIC>MOL_PROPERTY
Angle
SciTegic.value.DoubleValue
1.157

@<SCITEGIC>MOL_PROPERTY
Pdih
SciTegic.value.DoubleValue
2.794

@<SCITEGIC>MOL_PROPERTY
Idih
SciTegic.value.DoubleValue
0.000

@<SCITEGIC>MOL_PROPERTY
Tether
SciTegic.value.DoubleValue
0.000

@<TRIPOS>MOLECULE
guest-2_confgen4.mol2 : confsearch ligand conformer 683
          23          22           1
SMALL
USER_CHARGES
 
@<TRIPOS>ATOM
       1    N1      17.124110   18.523216   23.386660 N.4        1 MOL1        -0.5940
       2    H1      16.435302   18.001266   22.835644 H          1 MOL1         0.3649
       3    H2      16.610070   18.997457   24.136741 H          1 MOL1         0.3649
       4    H3      17.739961   17.835811   23.831260 H          1 MOL1         0.3649
       5    C1      17.903915   19.502172   22.531216 C.3        1 MOL1         0.0207
       6    H4      18.593382   20.047108   23.181311 H          1 MOL1         0.0950
       7    H5      17.192443   20.219600   22.113364 H          1 MOL1         0.0950
       8    C2      18.688938   18.832437   21.385364 C.3        1 MOL1        -0.1415
       9    H6      17.983401   18.317454   20.719989 H          1 MOL1         0.0976
      10    H7      19.159530   19.613445   20.774638 H          1 MOL1         0.0976
      11    C3      19.766240   17.824066   21.864545 C.3        1 MOL1        -0.1375
      12    H8      20.297752   17.430488   20.987165 H          1 MOL1         0.0976
      13    H9      19.272104   16.957869   22.324724 H          1 MOL1         0.0976
      14    C4      20.800618   18.400308   22.865948 C.3        1 MOL1        -0.1375
      15    H10     20.296834   18.713064   23.790219 H          1 MOL1         0.0976
      16    H11     21.488982   17.594060   23.154836 H          1 MOL1         0.0976
      17    C5      21.621634   19.580761   22.295549 C.3        1 MOL1        -0.1350
      18    H12     20.959852   20.426405   22.065616 H          1 MOL1         0.0976
      19    H13     22.095603   19.280632   21.350568 H          1 MOL1         0.0976
      20    C6      22.707787   20.050134   23.286681 C.3        1 MOL1        -0.2365
      21    H14     23.278569   20.888924   22.867570 H          1 MOL1         0.0987
      22    H15     23.414708   19.240662   23.510762 H          1 MOL1         0.0987
      23    H16     22.261080   20.385419   24.231795 H          1 MOL1         0.0987
@<TRIPOS>BOND
    1     1     2    1
    2     1     3    1
    3     1     4    1
    4     1     5    1
    5     5     6    1
    6     5     7    1
    7     5     8    1
    8     8     9    1
    9     8    10    1
   10     8    11    1
   11    11    12    1
   12    11    13    1
   13    11    14    1
   14    14    15    1
   15    14    16    1
   16    14    17    1
   17    17    18    1
   18    17    19    1
   19    17    20    1
   20    20    21    1
   21    20    22    1
   22    20    23    1
@<TRIPOS>SUBSTRUCTURE
       1 MOL1            1 RESIDUE      1      MOL     
@<SCITEGIC>MOL_PROPERTY
VConf Rank
SciTegic.value.IntegerValue
683

@<SCITEGIC>MOL_PROPERTY
Conf_Id
SciTegic.value.IntegerValue
72

@<SCITEGIC>MOL_PROPERTY
Delta U+W
SciTegic.value.DoubleValue
1.051

@<SCITEGIC>MOL_PROPERTY
U+W
SciTegic.value.DoubleValue
-7.331

@<SCITEGIC>MOL_PROPERTY
Grad RMS
SciTegic.value.DoubleValue
0.000000

@<SCITEGIC>MOL_PROPERTY
U
SciTegic.value.DoubleValue
48.590

@<SCITEGIC>MOL_PROPERTY
W
SciTegic.value.DoubleValue
-55.922

@<SCITEGIC>MOL_PROPERTY
W(PB)
SciTegic.value.DoubleValue
-58.012

@<SCITEGIC>MOL_PROPERTY
W(SA)
SciTegic.value.DoubleValue
2.090

@<SCITEGIC>MOL_PROPERTY
Valence
SciTegic.value.DoubleValue
2.601

@<SCITEGIC>MOL_PROPERTY
Coulomb
SciTegic.value.DoubleValue
45.520

@<SCITEGIC>MOL_PROPERTY
VdW
SciTegic.value.DoubleValue
0.469

@<SCITEGIC>MOL_PROPERTY
VdW6
SciTegic.value.DoubleValue
-6.867

@<SCITEGIC>MOL_PROPERTY
VdW12
SciTegic.value.DoubleValue
7.336

@<SCITEGIC>MOL_PROPERTY
Bond
SciTegic.value.DoubleValue
0.205

@<SCITEGIC>MOL_PROPERTY
Angle
SciTegic.value.DoubleValue
0.962

@<SCITEGIC>MOL_PROPERTY
Pdih
SciTegic.value.DoubleValue
1.434

@<SCITEGIC>MOL_PROPERTY
Idih
SciTegic.value.DoubleValue
0.000

@<SCITEGIC>MOL_PROPERTY
Tether
SciTegic.value.DoubleValue
0.000

@<TRIPOS>MOLECULE
guest-2_confgen4.mol2 : confsearch ligand conformer 684
          23          22           1
SMALL
USER_CHARGES
 
@<TRIPOS>ATOM
       1    N1      17.357593   18.567847   24.596258 N.4        1 MOL1        -0.5940
       2    H1      16.665697   19.243442   24.938031 H          1 MOL1         0.3649
       3    H2      17.532465   17.908229   25.361182 H          1 MOL1         0.3649
       4    H3      16.910710   18.040434   23.839427 H          1 MOL1         0.3649
       5    C1      18.630118   19.249454   24.136118 C.3        1 MOL1         0.0207
       6    H4      19.035737   19.813544   24.980289 H          1 MOL1         0.0950
       7    H5      18.365591   19.956112   23.345173 H          1 MOL1         0.0950
       8    C2      19.690708   18.261222   23.616152 C.3        1 MOL1        -0.1415
       9    H6      19.921455   17.533658   24.405541 H          1 MOL1         0.0976
      10    H7      19.280214   17.685259   22.776990 H          1 MOL1         0.0976
      11    C3      21.002017   18.963927   23.185179 C.3        1 MOL1        -0.1375
      12    H8      21.721241   18.205933   22.847376 H          1 MOL1         0.0976
      13    H9      21.459354   19.433151   24.067212 H          1 MOL1         0.0976
      14    C4      20.830539   20.044134   22.083132 C.3        1 MOL1        -0.1375
      15    H10     20.244380   20.882804   22.482321 H          1 MOL1         0.0976
      16    H11     21.818455   20.462031   21.845318 H          1 MOL1         0.0976
      17    C5      20.168669   19.549194   20.771957 C.3        1 MOL1        -0.1350
      18    H12     20.089524   20.397515   20.077855 H          1 MOL1         0.0976
      19    H13     19.138154   19.222992   20.966247 H          1 MOL1         0.0976
      20    C6      20.954297   18.412276   20.080060 C.3        1 MOL1        -0.2365
      21    H14     21.992656   18.711330   19.886882 H          1 MOL1         0.0987
      22    H15     20.493566   18.157067   19.117024 H          1 MOL1         0.0987
      23    H16     20.967021   17.501787   20.691947 H          1 MOL1         0.0987
@<TRIPOS>BOND
    1     1     2    1
    2     1     3    1
    3     1     4    1
    4     1     5    1
    5     5     6    1
    6     5     7    1
    7     5     8    1
    8     8     9    1
    9     8    10    1
   10     8    11    1
   11    11    12    1
   12    11    13    1
   13    11    14    1
   14    14    15    1
   15    14    16    1
   16    14    17    1
   17    17    18    1
   18    17    19    1
   19    17    20    1
   20    20    21    1
   21    20    22    1
   22    20    23    1
@<TRIPOS>SUBSTRUCTURE
       1 MOL1            1 RESIDUE      1      MOL     
@<SCITEGIC>MOL_PROPERTY
VConf Rank
SciTegic.value.IntegerValue
684

@<SCITEGIC>MOL_PROPERTY
Conf_Id
SciTegic.value.IntegerValue
26

@<SCITEGIC>MOL_PROPERTY
Delta U+W
SciTegic.value.DoubleValue
1.076

@<SCITEGIC>MOL_PROPERTY
U+W
SciTegic.value.DoubleValue
-7.306

@<SCITEGIC>MOL_PROPERTY
Grad RMS
SciTegic.value.DoubleValue
0.000000

@<SCITEGIC>MOL_PROPERTY
U
SciTegic.value.DoubleValue
48.641

@<SCITEGIC>MOL_PROPERTY
W
SciTegic.value.DoubleValue
-55.947

@<SCITEGIC>MOL_PROPERTY
W(PB)
SciTegic.value.DoubleValue
-58.031

@<SCITEGIC>MOL_PROPERTY
W(SA)
SciTegic.value.DoubleValue
2.084

@<SCITEGIC>MOL_PROPERTY
Valence
SciTegic.value.DoubleValue
2.922

@<SCITEGIC>MOL_PROPERTY
Coulomb
SciTegic.value.DoubleValue
45.269

@<SCITEGIC>MOL_PROPERTY
VdW
SciTegic.value.DoubleValue
0.449

@<SCITEGIC>MOL_PROPERTY
VdW6
SciTegic.value.DoubleValue
-7.045

@<SCITEGIC>MOL_PROPERTY
VdW12
SciTegic.value.DoubleValue
7.494

@<SCITEGIC>MOL_PROPERTY
Bond
SciTegic.value.DoubleValue
0.220

@<SCITEGIC>MOL_PROPERTY
Angle
SciTegic.value.DoubleValue
1.205

@<SCITEGIC>MOL_PROPERTY
Pdih
SciTegic.value.DoubleValue
1.497

@<SCITEGIC>MOL_PROPERTY
Idih
SciTegic.value.DoubleValue
0.000

@<SCITEGIC>MOL_PROPERTY
Tether
SciTegic.value.DoubleValue
0.000

@<TRIPOS>MOLECULE
guest-2_confgen4.mol2 : confsearch ligand conformer 685
          23          22           1
SMALL
USER_CHARGES
 
@<TRIPOS>ATOM
       1    N1      21.846723   20.884442   21.163193 N.4        1 MOL1        -0.5940
       2    H1      21.725133   21.883508   21.357783 H          1 MOL1         0.3649
       3    H2      22.262658   20.811630   20.228498 H          1 MOL1         0.3649
       4    H3      22.542363   20.530250   21.827494 H          1 MOL1         0.3649
       5    C1      20.537743   20.127237   21.257245 C.3        1 MOL1         0.0207
       6    H4      20.736222   19.081186   21.009622 H          1 MOL1         0.0950
       7    H5      19.856267   20.535548   20.506098 H          1 MOL1         0.0950
       8    C2      19.886853   20.216644   22.650144 C.3        1 MOL1        -0.1415
       9    H6      20.575291   19.819006   23.406695 H          1 MOL1         0.0976
      10    H7      19.726185   21.272684   22.904495 H          1 MOL1         0.0976
      11    C3      18.530482   19.472510   22.724873 C.3        1 MOL1        -0.1375
      12    H8      17.818752   19.963541   22.046904 H          1 MOL1         0.0976
      13    H9      18.110061   19.592720   23.732220 H          1 MOL1         0.0976
      14    C4      18.594751   17.963234   22.366107 C.3        1 MOL1        -0.1375
      15    H10     17.587690   17.535764   22.467426 H          1 MOL1         0.0976
      16    H11     18.856865   17.851168   21.305428 H          1 MOL1         0.0976
      17    C5      19.581499   17.124489   23.217610 C.3        1 MOL1        -0.1350
      18    H12     20.611943   17.466088   23.051430 H          1 MOL1         0.0976
      19    H13     19.549650   16.083630   22.866484 H          1 MOL1         0.0976
      20    C6      19.260823   17.149324   24.729254 C.3        1 MOL1        -0.2365
      21    H14     19.386580   18.154355   25.150748 H          1 MOL1         0.0987
      22    H15     19.932451   16.474997   25.276100 H          1 MOL1         0.0987
      23    H16     18.229988   16.823309   24.919085 H          1 MOL1         0.0987
@<TRIPOS>BOND
    1     1     2    1
    2     1     3    1
    3     1     4    1
    4     1     5    1
    5     5     6    1
    6     5     7    1
    7     5     8    1
    8     8     9    1
    9     8    10    1
   10     8    11    1
   11    11    12    1
   12    11    13    1
   13    11    14    1
   14    14    15    1
   15    14    16    1
   16    14    17    1
   17    17    18    1
   18    17    19    1
   19    17    20    1
   20    20    21    1
   21    20    22    1
   22    20    23    1
@<TRIPOS>SUBSTRUCTURE
       1 MOL1            1 RESIDUE      1      MOL     
@<SCITEGIC>MOL_PROPERTY
VConf Rank
SciTegic.value.IntegerValue
685

@<SCITEGIC>MOL_PROPERTY
Conf_Id
SciTegic.value.IntegerValue
90

@<SCITEGIC>MOL_PROPERTY
Delta U+W
SciTegic.value.DoubleValue
1.131

@<SCITEGIC>MOL_PROPERTY
U+W
SciTegic.value.DoubleValue
-7.251

@<SCITEGIC>MOL_PROPERTY
Grad RMS
SciTegic.value.DoubleValue
0.000000

@<SCITEGIC>MOL_PROPERTY
U
SciTegic.value.DoubleValue
48.641

@<SCITEGIC>MOL_PROPERTY
W
SciTegic.value.DoubleValue
-55.892

@<SCITEGIC>MOL_PROPERTY
W(PB)
SciTegic.value.DoubleValue
-57.962

@<SCITEGIC>MOL_PROPERTY
W(SA)
SciTegic.value.DoubleValue
2.070

@<SCITEGIC>MOL_PROPERTY
Valence
SciTegic.value.DoubleValue
2.922

@<SCITEGIC>MOL_PROPERTY
Coulomb
SciTegic.value.DoubleValue
45.269

@<SCITEGIC>MOL_PROPERTY
VdW
SciTegic.value.DoubleValue
0.450

@<SCITEGIC>MOL_PROPERTY
VdW6
SciTegic.value.DoubleValue
-7.045

@<SCITEGIC>MOL_PROPERTY
VdW12
SciTegic.value.DoubleValue
7.495

@<SCITEGIC>MOL_PROPERTY
Bond
SciTegic.value.DoubleValue
0.220

@<SCITEGIC>MOL_PROPERTY
Angle
SciTegic.value.DoubleValue
1.205

@<SCITEGIC>MOL_PROPERTY
Pdih
SciTegic.value.DoubleValue
1.497

@<SCITEGIC>MOL_PROPERTY
Idih
SciTegic.value.DoubleValue
0.000

@<SCITEGIC>MOL_PROPERTY
Tether
SciTegic.value.DoubleValue
0.000

@<TRIPOS>MOLECULE
guest-2_confgen4.mol2 : confsearch ligand conformer 686
          23          22           1
SMALL
USER_CHARGES
 
@<TRIPOS>ATOM
       1    N1      19.434167   19.640246   25.112469 N.4        1 MOL1        -0.5940
       2    H1      19.558343   20.488358   25.675619 H          1 MOL1         0.3649
       3    H2      20.331708   19.446110   24.658208 H          1 MOL1         0.3649
       4    H3      19.251660   18.871628   25.765531 H          1 MOL1         0.3649
       5    C1      18.317031   19.795309   24.099376 C.3        1 MOL1         0.0207
       6    H4      18.557734   20.646305   23.457049 H          1 MOL1         0.0950
       7    H5      17.401148   20.032808   24.647346 H          1 MOL1         0.0950
       8    C2      18.085156   18.538877   23.235372 C.3        1 MOL1        -0.1415
       9    H6      17.798028   17.702563   23.886468 H          1 MOL1         0.0976
      10    H7      17.227393   18.719798   22.574045 H          1 MOL1         0.0976
      11    C3      19.310692   18.126622   22.381738 C.3        1 MOL1        -0.1375
      12    H8      19.054784   17.219401   21.817315 H          1 MOL1         0.0976
      13    H9      20.141548   17.850961   23.043397 H          1 MOL1         0.0976
      14    C4      19.759613   19.231044   21.391690 C.3        1 MOL1        -0.1375
      15    H10     18.893435   19.552834   20.797170 H          1 MOL1         0.0976
      16    H11     20.103409   20.116797   21.942306 H          1 MOL1         0.0976
      17    C5      20.876252   18.770509   20.424004 C.3        1 MOL1        -0.1350
      18    H12     21.060070   19.569227   19.691819 H          1 MOL1         0.0976
      19    H13     20.533899   17.899188   19.848353 H          1 MOL1         0.0976
      20    C6      22.205353   18.433104   21.137295 C.3        1 MOL1        -0.2365
      21    H14     22.555617   19.280023   21.741431 H          1 MOL1         0.0987
      22    H15     22.986750   18.199710   20.402529 H          1 MOL1         0.0987
      23    H16     22.100455   17.560980   21.794415 H          1 MOL1         0.0987
@<TRIPOS>BOND
    1     1     2    1
    2     1     3    1
    3     1     4    1
    4     1     5    1
    5     5     6    1
    6     5     7    1
    7     5     8    1
    8     8     9    1
    9     8    10    1
   10     8    11    1
   11    11    12    1
   12    11    13    1
   13    11    14    1
   14    14    15    1
   15    14    16    1
   16    14    17    1
   17    17    18    1
   18    17    19    1
   19    17    20    1
   20    20    21    1
   21    20    22    1
   22    20    23    1
@<TRIPOS>SUBSTRUCTURE
       1 MOL1            1 RESIDUE      1      MOL     
@<SCITEGIC>MOL_PROPERTY
VConf Rank
SciTegic.value.IntegerValue
686

@<SCITEGIC>MOL_PROPERTY
Conf_Id
SciTegic.value.IntegerValue
85

@<SCITEGIC>MOL_PROPERTY
Delta U+W
SciTegic.value.DoubleValue
1.193

@<SCITEGIC>MOL_PROPERTY
U+W
SciTegic.value.DoubleValue
-7.189

@<SCITEGIC>MOL_PROPERTY
Grad RMS
SciTegic.value.DoubleValue
0.000000

@<SCITEGIC>MOL_PROPERTY
U
SciTegic.value.DoubleValue
48.775

@<SCITEGIC>MOL_PROPERTY
W
SciTegic.value.DoubleValue
-55.965

@<SCITEGIC>MOL_PROPERTY
W(PB)
SciTegic.value.DoubleValue
-58.038

@<SCITEGIC>MOL_PROPERTY
W(SA)
SciTegic.value.DoubleValue
2.073

@<SCITEGIC>MOL_PROPERTY
Valence
SciTegic.value.DoubleValue
2.602

@<SCITEGIC>MOL_PROPERTY
Coulomb
SciTegic.value.DoubleValue
45.581

@<SCITEGIC>MOL_PROPERTY
VdW
SciTegic.value.DoubleValue
0.592

@<SCITEGIC>MOL_PROPERTY
VdW6
SciTegic.value.DoubleValue
-6.616

@<SCITEGIC>MOL_PROPERTY
VdW12
SciTegic.value.DoubleValue
7.208

@<SCITEGIC>MOL_PROPERTY
Bond
SciTegic.value.DoubleValue
0.196

@<SCITEGIC>MOL_PROPERTY
Angle
SciTegic.value.DoubleValue
0.832

@<SCITEGIC>MOL_PROPERTY
Pdih
SciTegic.value.DoubleValue
1.574

@<SCITEGIC>MOL_PROPERTY
Idih
SciTegic.value.DoubleValue
0.000

@<SCITEGIC>MOL_PROPERTY
Tether
SciTegic.value.DoubleValue
0.000

@<TRIPOS>MOLECULE
guest-2_confgen4.mol2 : confsearch ligand conformer 687
          23          22           1
SMALL
USER_CHARGES
 
@<TRIPOS>ATOM
       1    N1      20.688017   20.676063   21.994524 N.4        1 MOL1        -0.5940
       2    H1      20.928393   19.679756   22.010748 H          1 MOL1         0.3649
       3    H2      21.478194   21.189662   22.399665 H          1 MOL1         0.3649
       4    H3      20.620778   20.958674   21.011354 H          1 MOL1         0.3649
       5    C1      19.397839   20.944784   22.744787 C.3        1 MOL1         0.0207
       6    H4      19.209697   22.020008   22.681494 H          1 MOL1         0.0950
       7    H5      19.544433   20.687542   23.797148 H          1 MOL1         0.0950
       8    C2      18.177098   20.186427   22.184962 C.3        1 MOL1        -0.1415
       9    H6      17.274774   20.724799   22.504031 H          1 MOL1         0.0976
      10    H7      18.181206   20.235016   21.087923 H          1 MOL1         0.0976
      11    C3      18.040357   18.712962   22.654336 C.3        1 MOL1        -0.1375
      12    H8      17.107550   18.317983   22.228461 H          1 MOL1         0.0976
      13    H9      17.903231   18.677684   23.744025 H          1 MOL1         0.0976
      14    C4      19.197296   17.771991   22.230866 C.3        1 MOL1        -0.1375
      15    H10     18.777230   16.781368   22.007373 H          1 MOL1         0.0976
      16    H11     19.645566   18.121274   21.291302 H          1 MOL1         0.0976
      17    C5      20.272425   17.594738   23.330765 C.3        1 MOL1        -0.1350
      18    H12     19.824047   17.088090   24.197021 H          1 MOL1         0.0976
      19    H13     20.625644   18.565440   23.698531 H          1 MOL1         0.0976
      20    C6      21.474044   16.768046   22.826265 C.3        1 MOL1        -0.2365
      21    H14     21.155653   15.769001   22.500835 H          1 MOL1         0.0987
      22    H15     22.218227   16.640154   23.623143 H          1 MOL1         0.0987
      23    H16     21.969106   17.260377   21.979335 H          1 MOL1         0.0987
@<TRIPOS>BOND
    1     1     2    1
    2     1     3    1
    3     1     4    1
    4     1     5    1
    5     5     6    1
    6     5     7    1
    7     5     8    1
    8     8     9    1
    9     8    10    1
   10     8    11    1
   11    11    12    1
   12    11    13    1
   13    11    14    1
   14    14    15    1
   15    14    16    1
   16    14    17    1
   17    17    18    1
   18    17    19    1
   19    17    20    1
   20    20    21    1
   21    20    22    1
   22    20    23    1
@<TRIPOS>SUBSTRUCTURE
       1 MOL1            1 RESIDUE      1      MOL     
@<SCITEGIC>MOL_PROPERTY
VConf Rank
SciTegic.value.IntegerValue
687

@<SCITEGIC>MOL_PROPERTY
Conf_Id
SciTegic.value.IntegerValue
82

@<SCITEGIC>MOL_PROPERTY
Delta U+W
SciTegic.value.DoubleValue
5.994

@<SCITEGIC>MOL_PROPERTY
U+W
SciTegic.value.DoubleValue
-2.388

@<SCITEGIC>MOL_PROPERTY
Grad RMS
SciTegic.value.DoubleValue
0.000000

@<SCITEGIC>MOL_PROPERTY
U
SciTegic.value.DoubleValue
52.836

@<SCITEGIC>MOL_PROPERTY
W
SciTegic.value.DoubleValue
-55.224

@<SCITEGIC>MOL_PROPERTY
W(PB)
SciTegic.value.DoubleValue
-57.261

@<SCITEGIC>MOL_PROPERTY
W(SA)
SciTegic.value.DoubleValue
2.037

@<SCITEGIC>MOL_PROPERTY
Valence
SciTegic.value.DoubleValue
5.785

@<SCITEGIC>MOL_PROPERTY
Coulomb
SciTegic.value.DoubleValue
46.744

@<SCITEGIC>MOL_PROPERTY
VdW
SciTegic.value.DoubleValue
0.307

@<SCITEGIC>MOL_PROPERTY
VdW6
SciTegic.value.DoubleValue
-7.672

@<SCITEGIC>MOL_PROPERTY
VdW12
SciTegic.value.DoubleValue
7.979

@<SCITEGIC>MOL_PROPERTY
Bond
SciTegic.value.DoubleValue
0.217

@<SCITEGIC>MOL_PROPERTY
Angle
SciTegic.value.DoubleValue
1.470

@<SCITEGIC>MOL_PROPERTY
Pdih
SciTegic.value.DoubleValue
4.098

@<SCITEGIC>MOL_PROPERTY
Idih
SciTegic.value.DoubleValue
0.000

@<SCITEGIC>MOL_PROPERTY
Tether
SciTegic.value.DoubleValue
0.000

@<TRIPOS>MOLECULE
guest-2_confgen4.mol2 : confsearch ligand conformer 688
          23          22           1
SMALL
USER_CHARGES
 
@<TRIPOS>ATOM
       1    N1      19.838264   20.331747   24.132938 N.4        1 MOL1        -0.5940
       2    H1      20.658059   20.354237   24.748117 H          1 MOL1         0.3649
       3    H2      19.326690   21.207849   24.284724 H          1 MOL1         0.3649
       4    H3      20.180460   20.339189   23.166749 H          1 MOL1         0.3649
       5    C1      18.968947   19.118488   24.401168 C.3        1 MOL1         0.0207
       6    H4      18.080121   19.177326   23.767406 H          1 MOL1         0.0950
       7    H5      18.646597   19.180946   25.444097 H          1 MOL1         0.0950
       8    C2      19.685294   17.771386   24.175600 C.3        1 MOL1        -0.1415
       9    H6      20.696528   17.812961   24.601688 H          1 MOL1         0.0976
      10    H7      19.149053   17.007365   24.754007 H          1 MOL1         0.0976
      11    C3      19.746128   17.292452   22.700122 C.3        1 MOL1        -0.1375
      12    H8      18.729586   17.124525   22.318136 H          1 MOL1         0.0976
      13    H9      20.228122   16.304949   22.695121 H          1 MOL1         0.0976
      14    C4      20.533577   18.215548   21.735196 C.3        1 MOL1        -0.1375
      15    H10     21.318879   18.754066   22.282027 H          1 MOL1         0.0976
      16    H11     21.060790   17.587154   21.003825 H          1 MOL1         0.0976
      17    C5      19.625672   19.195358   20.952391 C.3        1 MOL1        -0.1350
      18    H12     18.966233   19.750535   21.630035 H          1 MOL1         0.0976
      19    H13     18.963465   18.622794   20.287721 H          1 MOL1         0.0976
      20    C6      20.452164   20.189998   20.110114 C.3        1 MOL1        -0.2365
      21    H14     21.103784   20.804375   20.744701 H          1 MOL1         0.0987
      22    H15     19.792229   20.866079   19.551025 H          1 MOL1         0.0987
      23    H16     21.083800   19.661260   19.384276 H          1 MOL1         0.0987
@<TRIPOS>BOND
    1     1     2    1
    2     1     3    1
    3     1     4    1
    4     1     5    1
    5     5     6    1
    6     5     7    1
    7     5     8    1
    8     8     9    1
    9     8    10    1
   10     8    11    1
   11    11    12    1
   12    11    13    1
   13    11    14    1
   14    14    15    1
   15    14    16    1
   16    14    17    1
   17    17    18    1
   18    17    19    1
   19    17    20    1
   20    20    21    1
   21    20    22    1
   22    20    23    1
@<TRIPOS>SUBSTRUCTURE
       1 MOL1            1 RESIDUE      1      MOL     
@<SCITEGIC>MOL_PROPERTY
VConf Rank
SciTegic.value.IntegerValue
688

@<SCITEGIC>MOL_PROPERTY
Conf_Id
SciTegic.value.IntegerValue
5

@<SCITEGIC>MOL_PROPERTY
Delta U+W
SciTegic.value.DoubleValue
6.087

@<SCITEGIC>MOL_PROPERTY
U+W
SciTegic.value.DoubleValue
-2.295

@<SCITEGIC>MOL_PROPERTY
Grad RMS
SciTegic.value.DoubleValue
0.000000

@<SCITEGIC>MOL_PROPERTY
U
SciTegic.value.DoubleValue
52.836

@<SCITEGIC>MOL_PROPERTY
W
SciTegic.value.DoubleValue
-55.131

@<SCITEGIC>MOL_PROPERTY
W(PB)
SciTegic.value.DoubleValue
-57.202

@<SCITEGIC>MOL_PROPERTY
W(SA)
SciTegic.value.DoubleValue
2.071

@<SCITEGIC>MOL_PROPERTY
Valence
SciTegic.value.DoubleValue
5.785

@<SCITEGIC>MOL_PROPERTY
Coulomb
SciTegic.value.DoubleValue
46.744

@<SCITEGIC>MOL_PROPERTY
VdW
SciTegic.value.DoubleValue
0.307

@<SCITEGIC>MOL_PROPERTY
VdW6
SciTegic.value.DoubleValue
-7.672

@<SCITEGIC>MOL_PROPERTY
VdW12
SciTegic.value.DoubleValue
7.980

@<SCITEGIC>MOL_PROPERTY
Bond
SciTegic.value.DoubleValue
0.217

@<SCITEGIC>MOL_PROPERTY
Angle
SciTegic.value.DoubleValue
1.470

@<SCITEGIC>MOL_PROPERTY
Pdih
SciTegic.value.DoubleValue
4.098

@<SCITEGIC>MOL_PROPERTY
Idih
SciTegic.value.DoubleValue
0.000

@<SCITEGIC>MOL_PROPERTY
Tether
SciTegic.value.DoubleValue
0.000

@<TRIPOS>MOLECULE
guest-2_confgen4.mol2 : confsearch ligand conformer 689
          23          22           1
SMALL
USER_CHARGES
 
@<TRIPOS>ATOM
       1    N1      17.436556   17.393893   25.190585 N.4        1 MOL1        -0.5940
       2    H1      18.108457   17.390982   25.964810 H          1 MOL1         0.3649
       3    H2      16.847478   16.561937   25.304292 H          1 MOL1         0.3649
       4    H3      16.828936   18.209062   25.321665 H          1 MOL1         0.3649
       5    C1      18.127391   17.414312   23.842168 C.3        1 MOL1         0.0207
       6    H4      17.356322   17.386217   23.067469 H          1 MOL1         0.0950
       7    H5      18.731598   16.506858   23.758754 H          1 MOL1         0.0950
       8    C2      19.020148   18.651500   23.639861 C.3        1 MOL1        -0.1415
       9    H6      18.412317   19.560616   23.740607 H          1 MOL1         0.0976
      10    H7      19.782674   18.684409   24.429526 H          1 MOL1         0.0976
      11    C3      19.705141   18.634270   22.255422 C.3        1 MOL1        -0.1375
      12    H8      18.939096   18.595970   21.468333 H          1 MOL1         0.0976
      13    H9      20.308022   17.720727   22.156551 H          1 MOL1         0.0976
      14    C4      20.604640   19.872861   22.041421 C.3        1 MOL1        -0.1375
      15    H10     20.001942   20.786387   22.140107 H          1 MOL1         0.0976
      16    H11     21.370670   19.911294   22.828335 H          1 MOL1         0.0976
      17    C5      21.289626   19.855265   20.656775 C.3        1 MOL1        -0.1350
      18    H12     20.527253   19.819280   19.865911 H          1 MOL1         0.0976
      19    H13     21.895866   18.944276   20.554087 H          1 MOL1         0.0976
      20    C6      22.186906   21.093521   20.446727 C.3        1 MOL1        -0.2365
      21    H14     22.664317   21.063207   19.458695 H          1 MOL1         0.0987
      22    H15     22.981136   21.138471   21.203302 H          1 MOL1         0.0987
      23    H16     21.601835   22.020314   20.509778 H          1 MOL1         0.0987
@<TRIPOS>BOND
    1     1     2    1
    2     1     3    1
    3     1     4    1
    4     1     5    1
    5     5     6    1
    6     5     7    1
    7     5     8    1
    8     8     9    1
    9     8    10    1
   10     8    11    1
   11    11    12    1
   12    11    13    1
   13    11    14    1
   14    14    15    1
   15    14    16    1
   16    14    17    1
   17    17    18    1
   18    17    19    1
   19    17    20    1
   20    20    21    1
   21    20    22    1
   22    20    23    1
@<TRIPOS>SUBSTRUCTURE
       1 MOL1            1 RESIDUE      1      MOL     
@<SCITEGIC>MOL_PROPERTY
VConf Rank
SciTegic.value.IntegerValue
689

@<SCITEGIC>MOL_PROPERTY
Conf_Id
SciTegic.value.IntegerValue
40

@<SCITEGIC>MOL_PROPERTY
Delta U+W
SciTegic.value.DoubleValue
0.000

@<SCITEGIC>MOL_PROPERTY
U+W
SciTegic.value.DoubleValue
-8.382

@<SCITEGIC>MOL_PROPERTY
Grad RMS
SciTegic.value.DoubleValue
0.000000

@<SCITEGIC>MOL_PROPERTY
U
SciTegic.value.DoubleValue
46.604

@<SCITEGIC>MOL_PROPERTY
W
SciTegic.value.DoubleValue
-54.986

@<SCITEGIC>MOL_PROPERTY
W(PB)
SciTegic.value.DoubleValue
-57.162

@<SCITEGIC>MOL_PROPERTY
W(SA)
SciTegic.value.DoubleValue
2.176

@<SCITEGIC>MOL_PROPERTY
Valence
SciTegic.value.DoubleValue
1.727

@<SCITEGIC>MOL_PROPERTY
Coulomb
SciTegic.value.DoubleValue
44.434

@<SCITEGIC>MOL_PROPERTY
VdW
SciTegic.value.DoubleValue
0.443

@<SCITEGIC>MOL_PROPERTY
VdW6
SciTegic.value.DoubleValue
-4.623

@<SCITEGIC>MOL_PROPERTY
VdW12
SciTegic.value.DoubleValue
5.066

@<SCITEGIC>MOL_PROPERTY
Bond
SciTegic.value.DoubleValue
0.112

@<SCITEGIC>MOL_PROPERTY
Angle
SciTegic.value.DoubleValue
0.386

@<SCITEGIC>MOL_PROPERTY
Pdih
SciTegic.value.DoubleValue
1.228

@<SCITEGIC>MOL_PROPERTY
Idih
SciTegic.value.DoubleValue
0.000

@<SCITEGIC>MOL_PROPERTY
Tether
SciTegic.value.DoubleValue
0.000

@<TRIPOS>MOLECULE
guest-2_confgen4.mol2 : confsearch ligand conformer 690
          23          22           1
SMALL
USER_CHARGES
 
@<TRIPOS>ATOM
       1    N1      20.998490   15.859362   23.735335 N.4        1 MOL1        -0.5940
       2    H1      20.261889   15.148684   23.678795 H          1 MOL1         0.3649
       3    H2      21.100623   16.109684   24.724142 H          1 MOL1         0.3649
       4    H3      21.873033   15.405106   23.450984 H          1 MOL1         0.3649
       5    C1      20.685995   17.067231   22.875579 C.3        1 MOL1         0.0207
       6    H4      20.619550   16.733742   21.836454 H          1 MOL1         0.0950
       7    H5      21.523522   17.764257   22.960566 H          1 MOL1         0.0950
       8    C2      19.376597   17.771856   23.278212 C.3        1 MOL1        -0.1415
       9    H6      18.552646   17.047231   23.233825 H          1 MOL1         0.0976
      10    H7      19.443225   18.108118   24.321511 H          1 MOL1         0.0976
      11    C3      19.036160   18.973593   22.365222 C.3        1 MOL1        -0.1375
      12    H8      18.041683   19.345470   22.643943 H          1 MOL1         0.0976
      13    H9      18.960628   18.632356   21.323481 H          1 MOL1         0.0976
      14    C4      20.068729   20.125257   22.465451 C.3        1 MOL1        -0.1375
      15    H10     20.128527   20.479994   23.503626 H          1 MOL1         0.0976
      16    H11     21.067291   19.746652   22.210425 H          1 MOL1         0.0976
      17    C5      19.753657   21.318044   21.530296 C.3        1 MOL1        -0.1350
      18    H12     19.703005   20.970826   20.488820 H          1 MOL1         0.0976
      19    H13     20.588973   22.030822   21.575773 H          1 MOL1         0.0976
      20    C6      18.447832   22.060219   21.895522 C.3        1 MOL1        -0.2365
      21    H14     17.566249   21.425289   21.744092 H          1 MOL1         0.0987
      22    H15     18.323713   22.950839   21.265969 H          1 MOL1         0.0987
      23    H16     18.459979   22.389041   22.942775 H          1 MOL1         0.0987
@<TRIPOS>BOND
    1     1     2    1
    2     1     3    1
    3     1     4    1
    4     1     5    1
    5     5     6    1
    6     5     7    1
    7     5     8    1
    8     8     9    1
    9     8    10    1
   10     8    11    1
   11    11    12    1
   12    11    13    1
   13    11    14    1
   14    14    15    1
   15    14    16    1
   16    14    17    1
   17    17    18    1
   18    17    19    1
   19    17    20    1
   20    20    21    1
   21    20    22    1
   22    20    23    1
@<TRIPOS>SUBSTRUCTURE
       1 MOL1            1 RESIDUE      1      MOL     
@<SCITEGIC>MOL_PROPERTY
VConf Rank
SciTegic.value.IntegerValue
690

@<SCITEGIC>MOL_PROPERTY
Conf_Id
SciTegic.value.IntegerValue
65

@<SCITEGIC>MOL_PROPERTY
Delta U+W
SciTegic.value.DoubleValue
1.004

@<SCITEGIC>MOL_PROPERTY
U+W
SciTegic.value.DoubleValue
-7.378

@<SCITEGIC>MOL_PROPERTY
Grad RMS
SciTegic.value.DoubleValue
0.000000

@<SCITEGIC>MOL_PROPERTY
U
SciTegic.value.DoubleValue
48.047

@<SCITEGIC>MOL_PROPERTY
W
SciTegic.value.DoubleValue
-55.425

@<SCITEGIC>MOL_PROPERTY
W(PB)
SciTegic.value.DoubleValue
-57.542

@<SCITEGIC>MOL_PROPERTY
W(SA)
SciTegic.value.DoubleValue
2.116

@<SCITEGIC>MOL_PROPERTY
Valence
SciTegic.value.DoubleValue
2.583

@<SCITEGIC>MOL_PROPERTY
Coulomb
SciTegic.value.DoubleValue
44.791

@<SCITEGIC>MOL_PROPERTY
VdW
SciTegic.value.DoubleValue
0.673

@<SCITEGIC>MOL_PROPERTY
VdW6
SciTegic.value.DoubleValue
-5.788

@<SCITEGIC>MOL_PROPERTY
VdW12
SciTegic.value.DoubleValue
6.462

@<SCITEGIC>MOL_PROPERTY
Bond
SciTegic.value.DoubleValue
0.177

@<SCITEGIC>MOL_PROPERTY
Angle
SciTegic.value.DoubleValue
0.787

@<SCITEGIC>MOL_PROPERTY
Pdih
SciTegic.value.DoubleValue
1.619

@<SCITEGIC>MOL_PROPERTY
Idih
SciTegic.value.DoubleValue
0.000

@<SCITEGIC>MOL_PROPERTY
Tether
SciTegic.value.DoubleValue
0.000

@<TRIPOS>MOLECULE
guest-2_confgen4.mol2 : confsearch ligand conformer 691
          23          22           1
SMALL
USER_CHARGES
 
@<TRIPOS>ATOM
       1    N1      19.344936   21.537854   25.114207 N.4        1 MOL1        -0.5940
       2    H1      19.449863   22.470879   24.702755 H          1 MOL1         0.3649
       3    H2      19.791885   21.567292   26.036919 H          1 MOL1         0.3649
       4    H3      18.343163   21.389335   25.273035 H          1 MOL1         0.3649
       5    C1      19.943548   20.460606   24.232745 C.3        1 MOL1         0.0207
       6    H4      19.823478   19.503171   24.745991 H          1 MOL1         0.0950
       7    H5      21.012778   20.664410   24.129677 H          1 MOL1         0.0950
       8    C2      19.292616   20.391394   22.838245 C.3        1 MOL1        -0.1415
       9    H6      18.218828   20.185522   22.941114 H          1 MOL1         0.0976
      10    H7      19.379164   21.373403   22.354392 H          1 MOL1         0.0976
      11    C3      19.941551   19.324387   21.925012 C.3        1 MOL1        -0.1375
      12    H8      21.013747   19.538609   21.816032 H          1 MOL1         0.0976
      13    H9      19.502167   19.416836   20.923335 H          1 MOL1         0.0976
      14    C4      19.746940   17.877777   22.446569 C.3        1 MOL1        -0.1375
      15    H10     20.164736   17.792679   23.458355 H          1 MOL1         0.0976
      16    H11     18.674270   17.657138   22.535546 H          1 MOL1         0.0976
      17    C5      20.421713   16.806093   21.556235 C.3        1 MOL1        -0.1350
      18    H12     20.337458   15.830476   22.055179 H          1 MOL1         0.0976
      19    H13     21.497235   17.015838   21.472227 H          1 MOL1         0.0976
      20    C6      19.801040   16.696657   20.144790 C.3        1 MOL1        -0.2365
      21    H14     19.970761   17.607129   19.557004 H          1 MOL1         0.0987
      22    H15     18.719147   16.519767   20.201607 H          1 MOL1         0.0987
      23    H16     20.248866   15.860401   19.592457 H          1 MOL1         0.0987
@<TRIPOS>BOND
    1     1     2    1
    2     1     3    1
    3     1     4    1
    4     1     5    1
    5     5     6    1
    6     5     7    1
    7     5     8    1
    8     8     9    1
    9     8    10    1
   10     8    11    1
   11    11    12    1
   12    11    13    1
   13    11    14    1
   14    14    15    1
   15    14    16    1
   16    14    17    1
   17    17    18    1
   18    17    19    1
   19    17    20    1
   20    20    21    1
   21    20    22    1
   22    20    23    1
@<TRIPOS>SUBSTRUCTURE
       1 MOL1            1 RESIDUE      1      MOL     
@<SCITEGIC>MOL_PROPERTY
VConf Rank
SciTegic.value.IntegerValue
691

@<SCITEGIC>MOL_PROPERTY
Conf_Id
SciTegic.value.IntegerValue
92

@<SCITEGIC>MOL_PROPERTY
Delta U+W
SciTegic.value.DoubleValue
0.973

@<SCITEGIC>MOL_PROPERTY
U+W
SciTegic.value.DoubleValue
-7.409

@<SCITEGIC>MOL_PROPERTY
Grad RMS
SciTegic.value.DoubleValue
0.000000

@<SCITEGIC>MOL_PROPERTY
U
SciTegic.value.DoubleValue
48.047

@<SCITEGIC>MOL_PROPERTY
W
SciTegic.value.DoubleValue
-55.456

@<SCITEGIC>MOL_PROPERTY
W(PB)
SciTegic.value.DoubleValue
-57.595

@<SCITEGIC>MOL_PROPERTY
W(SA)
SciTegic.value.DoubleValue
2.138

@<SCITEGIC>MOL_PROPERTY
Valence
SciTegic.value.DoubleValue
2.583

@<SCITEGIC>MOL_PROPERTY
Coulomb
SciTegic.value.DoubleValue
44.791

@<SCITEGIC>MOL_PROPERTY
VdW
SciTegic.value.DoubleValue
0.674

@<SCITEGIC>MOL_PROPERTY
VdW6
SciTegic.value.DoubleValue
-5.789

@<SCITEGIC>MOL_PROPERTY
VdW12
SciTegic.value.DoubleValue
6.462

@<SCITEGIC>MOL_PROPERTY
Bond
SciTegic.value.DoubleValue
0.177

@<SCITEGIC>MOL_PROPERTY
Angle
SciTegic.value.DoubleValue
0.787

@<SCITEGIC>MOL_PROPERTY
Pdih
SciTegic.value.DoubleValue
1.619

@<SCITEGIC>MOL_PROPERTY
Idih
SciTegic.value.DoubleValue
0.000

@<SCITEGIC>MOL_PROPERTY
Tether
SciTegic.value.DoubleValue
0.000

@<TRIPOS>MOLECULE
guest-2_confgen4.mol2 : confsearch ligand conformer 692
          23          22           1
SMALL
USER_CHARGES
 
@<TRIPOS>ATOM
       1    N1      21.753373   19.716795   19.790191 N.4        1 MOL1        -0.5940
       2    H1      21.532069   19.337784   18.863149 H          1 MOL1         0.3649
       3    H2      22.766224   19.621796   19.916530 H          1 MOL1         0.3649
       4    H3      21.546303   20.720282   19.758955 H          1 MOL1         0.3649
       5    C1      20.978471   19.013259   20.885791 C.3        1 MOL1         0.0207
       6    H4      21.224199   17.948743   20.842878 H          1 MOL1         0.0950
       7    H5      19.913197   19.129615   20.670505 H          1 MOL1         0.0950
       8    C2      21.289515   19.560474   22.291730 C.3        1 MOL1        -0.1415
       9    H6      22.368703   19.478643   22.477747 H          1 MOL1         0.0976
      10    H7      21.043458   20.629877   22.334503 H          1 MOL1         0.0976
      11    C3      20.529226   18.806942   23.408504 C.3        1 MOL1        -0.1375
      12    H8      20.868272   19.185760   24.382669 H          1 MOL1         0.0976
      13    H9      20.797113   17.741558   23.379471 H          1 MOL1         0.0976
      14    C4      18.992488   18.962038   23.309295 C.3        1 MOL1        -0.1375
      15    H10     18.730554   20.029180   23.305273 H          1 MOL1         0.0976
      16    H11     18.633107   18.542519   22.360134 H          1 MOL1         0.0976
      17    C5      18.268287   18.259764   24.479388 C.3        1 MOL1        -0.1350
      18    H12     18.614305   18.677912   25.435100 H          1 MOL1         0.0976
      19    H13     18.527396   17.191702   24.488544 H          1 MOL1         0.0976
      20    C6      16.735750   18.413897   24.378707 C.3        1 MOL1        -0.2365
      21    H14     16.443067   19.471756   24.401027 H          1 MOL1         0.0987
      22    H15     16.239480   17.909407   25.217903 H          1 MOL1         0.0987
      23    H16     16.354837   17.973326   23.448103 H          1 MOL1         0.0987
@<TRIPOS>BOND
    1     1     2    1
    2     1     3    1
    3     1     4    1
    4     1     5    1
    5     5     6    1
    6     5     7    1
    7     5     8    1
    8     8     9    1
    9     8    10    1
   10     8    11    1
   11    11    12    1
   12    11    13    1
   13    11    14    1
   14    14    15    1
   15    14    16    1
   16    14    17    1
   17    17    18    1
   18    17    19    1
   19    17    20    1
   20    20    21    1
   21    20    22    1
   22    20    23    1
@<TRIPOS>SUBSTRUCTURE
       1 MOL1            1 RESIDUE      1      MOL     
@<SCITEGIC>MOL_PROPERTY
VConf Rank
SciTegic.value.IntegerValue
692

@<SCITEGIC>MOL_PROPERTY
Conf_Id
SciTegic.value.IntegerValue
42

@<SCITEGIC>MOL_PROPERTY
Delta U+W
SciTegic.value.DoubleValue
0.365

@<SCITEGIC>MOL_PROPERTY
U+W
SciTegic.value.DoubleValue
-8.017

@<SCITEGIC>MOL_PROPERTY
Grad RMS
SciTegic.value.DoubleValue
0.000000

@<SCITEGIC>MOL_PROPERTY
U
SciTegic.value.DoubleValue
47.375

@<SCITEGIC>MOL_PROPERTY
W
SciTegic.value.DoubleValue
-55.392

@<SCITEGIC>MOL_PROPERTY
W(PB)
SciTegic.value.DoubleValue
-57.543

@<SCITEGIC>MOL_PROPERTY
W(SA)
SciTegic.value.DoubleValue
2.152

@<SCITEGIC>MOL_PROPERTY
Valence
SciTegic.value.DoubleValue
2.032

@<SCITEGIC>MOL_PROPERTY
Coulomb
SciTegic.value.DoubleValue
44.843

@<SCITEGIC>MOL_PROPERTY
VdW
SciTegic.value.DoubleValue
0.499

@<SCITEGIC>MOL_PROPERTY
VdW6
SciTegic.value.DoubleValue
-5.218

@<SCITEGIC>MOL_PROPERTY
VdW12
SciTegic.value.DoubleValue
5.717

@<SCITEGIC>MOL_PROPERTY
Bond
SciTegic.value.DoubleValue
0.135

@<SCITEGIC>MOL_PROPERTY
Angle
SciTegic.value.DoubleValue
0.514

@<SCITEGIC>MOL_PROPERTY
Pdih
SciTegic.value.DoubleValue
1.383

@<SCITEGIC>MOL_PROPERTY
Idih
SciTegic.value.DoubleValue
0.000

@<SCITEGIC>MOL_PROPERTY
Tether
SciTegic.value.DoubleValue
0.000

@<TRIPOS>MOLECULE
guest-2_confgen4.mol2 : confsearch ligand conformer 693
          23          22           1
SMALL
USER_CHARGES
 
@<TRIPOS>ATOM
       1    N1      22.158494   20.826057   23.584837 N.4        1 MOL1        -0.5940
       2    H1      22.850488   20.317052   23.025649 H          1 MOL1         0.3649
       3    H2      22.679243   21.374961   24.277277 H          1 MOL1         0.3649
       4    H3      21.696384   21.493763   22.960316 H          1 MOL1         0.3649
       5    C1      21.164792   19.888119   24.242417 C.3        1 MOL1         0.0207
       6    H4      20.473449   20.488982   24.839435 H          1 MOL1         0.0950
       7    H5      21.723924   19.238122   24.920980 H          1 MOL1         0.0950
       8    C2      20.371304   19.021317   23.245289 C.3        1 MOL1        -0.1415
       9    H6      21.068705   18.439521   22.628203 H          1 MOL1         0.0976
      10    H7      19.779015   18.302082   23.824091 H          1 MOL1         0.0976
      11    C3      19.429429   19.856236   22.343853 C.3        1 MOL1        -0.1375
      12    H8      20.006846   20.644452   21.843217 H          1 MOL1         0.0976
      13    H9      18.688546   20.371654   22.970626 H          1 MOL1         0.0976
      14    C4      18.696831   19.035359   21.250913 C.3        1 MOL1        -0.1375
      15    H10     18.099586   19.739076   20.654619 H          1 MOL1         0.0976
      16    H11     19.425642   18.601683   20.552354 H          1 MOL1         0.0976
      17    C5      17.747638   17.933325   21.788497 C.3        1 MOL1        -0.1350
      18    H12     16.871480   17.873092   21.127671 H          1 MOL1         0.0976
      19    H13     17.360000   18.211838   22.778328 H          1 MOL1         0.0976
      20    C6      18.401173   16.532465   21.840882 C.3        1 MOL1        -0.2365
      21    H14     18.723812   16.213472   20.841279 H          1 MOL1         0.0987
      22    H15     17.684747   15.788263   22.212111 H          1 MOL1         0.0987
      23    H16     19.275727   16.508930   22.500217 H          1 MOL1         0.0987
@<TRIPOS>BOND
    1     1     2    1
    2     1     3    1
    3     1     4    1
    4     1     5    1
    5     5     6    1
    6     5     7    1
    7     5     8    1
    8     8     9    1
    9     8    10    1
   10     8    11    1
   11    11    12    1
   12    11    13    1
   13    11    14    1
   14    14    15    1
   15    14    16    1
   16    14    17    1
   17    17    18    1
   18    17    19    1
   19    17    20    1
   20    20    21    1
   21    20    22    1
   22    20    23    1
@<TRIPOS>SUBSTRUCTURE
       1 MOL1            1 RESIDUE      1      MOL     
@<SCITEGIC>MOL_PROPERTY
VConf Rank
SciTegic.value.IntegerValue
693

@<SCITEGIC>MOL_PROPERTY
Conf_Id
SciTegic.value.IntegerValue
3

@<SCITEGIC>MOL_PROPERTY
Delta U+W
SciTegic.value.DoubleValue
3.283

@<SCITEGIC>MOL_PROPERTY
U+W
SciTegic.value.DoubleValue
-5.099

@<SCITEGIC>MOL_PROPERTY
Grad RMS
SciTegic.value.DoubleValue
0.000000

@<SCITEGIC>MOL_PROPERTY
U
SciTegic.value.DoubleValue
50.701

@<SCITEGIC>MOL_PROPERTY
W
SciTegic.value.DoubleValue
-55.800

@<SCITEGIC>MOL_PROPERTY
W(PB)
SciTegic.value.DoubleValue
-57.867

@<SCITEGIC>MOL_PROPERTY
W(SA)
SciTegic.value.DoubleValue
2.067

@<SCITEGIC>MOL_PROPERTY
Valence
SciTegic.value.DoubleValue
4.880

@<SCITEGIC>MOL_PROPERTY
Coulomb
SciTegic.value.DoubleValue
45.095

@<SCITEGIC>MOL_PROPERTY
VdW
SciTegic.value.DoubleValue
0.726

@<SCITEGIC>MOL_PROPERTY
VdW6
SciTegic.value.DoubleValue
-6.620

@<SCITEGIC>MOL_PROPERTY
VdW12
SciTegic.value.DoubleValue
7.346

@<SCITEGIC>MOL_PROPERTY
Bond
SciTegic.value.DoubleValue
0.222

@<SCITEGIC>MOL_PROPERTY
Angle
SciTegic.value.DoubleValue
1.260

@<SCITEGIC>MOL_PROPERTY
Pdih
SciTegic.value.DoubleValue
3.398

@<SCITEGIC>MOL_PROPERTY
Idih
SciTegic.value.DoubleValue
0.000

@<SCITEGIC>MOL_PROPERTY
Tether
SciTegic.value.DoubleValue
0.000

@<TRIPOS>MOLECULE
guest-2_confgen4.mol2 : confsearch ligand conformer 694
          23          22           1
SMALL
USER_CHARGES
 
@<TRIPOS>ATOM
       1    N1      22.017458   19.309937   20.720426 N.4        1 MOL1        -0.5940
       2    H1      21.934967   18.698619   19.901867 H          1 MOL1         0.3649
       3    H2      22.870874   19.864692   20.594879 H          1 MOL1         0.3649
       4    H3      21.227848   19.962126   20.692764 H          1 MOL1         0.3649
       5    C1      22.044694   18.518951   22.013443 C.3        1 MOL1         0.0207
       6    H4      22.164526   19.223990   22.839911 H          1 MOL1         0.0950
       7    H5      22.926539   17.872957   21.989622 H          1 MOL1         0.0950
       8    C2      20.785797   17.656804   22.239622 C.3        1 MOL1        -0.1415
       9    H6      20.706846   16.919640   21.429586 H          1 MOL1         0.0976
      10    H7      20.915160   17.080496   23.165362 H          1 MOL1         0.0976
      11    C3      19.467560   18.467322   22.323043 C.3        1 MOL1        -0.1375
      12    H8      18.639117   17.757172   22.442400 H          1 MOL1         0.0976
      13    H9      19.288437   18.988926   21.373521 H          1 MOL1         0.0976
      14    C4      19.450049   19.484904   23.492080 C.3        1 MOL1        -0.1375
      15    H10     19.601807   18.957762   24.444056 H          1 MOL1         0.0976
      16    H11     20.292657   20.180803   23.386762 H          1 MOL1         0.0976
      17    C5      18.146602   20.316852   23.565133 C.3        1 MOL1        -0.1350
      18    H12     17.995177   20.855208   22.619105 H          1 MOL1         0.0976
      19    H13     18.263818   21.086608   24.340762 H          1 MOL1         0.0976
      20    C6      16.893129   19.472582   23.889721 C.3        1 MOL1        -0.2365
      21    H14     17.032374   18.898279   24.814813 H          1 MOL1         0.0987
      22    H15     16.658209   18.770342   23.080451 H          1 MOL1         0.0987
      23    H16     16.018317   20.121392   24.026416 H          1 MOL1         0.0987
@<TRIPOS>BOND
    1     1     2    1
    2     1     3    1
    3     1     4    1
    4     1     5    1
    5     5     6    1
    6     5     7    1
    7     5     8    1
    8     8     9    1
    9     8    10    1
   10     8    11    1
   11    11    12    1
   12    11    13    1
   13    11    14    1
   14    14    15    1
   15    14    16    1
   16    14    17    1
   17    17    18    1
   18    17    19    1
   19    17    20    1
   20    20    21    1
   21    20    22    1
   22    20    23    1
@<TRIPOS>SUBSTRUCTURE
       1 MOL1            1 RESIDUE      1      MOL     
@<SCITEGIC>MOL_PROPERTY
VConf Rank
SciTegic.value.IntegerValue
694

@<SCITEGIC>MOL_PROPERTY
Conf_Id
SciTegic.value.IntegerValue
83

@<SCITEGIC>MOL_PROPERTY
Delta U+W
SciTegic.value.DoubleValue
1.229

@<SCITEGIC>MOL_PROPERTY
U+W
SciTegic.value.DoubleValue
-7.154

@<SCITEGIC>MOL_PROPERTY
Grad RMS
SciTegic.value.DoubleValue
0.000000

@<SCITEGIC>MOL_PROPERTY
U
SciTegic.value.DoubleValue
48.727

@<SCITEGIC>MOL_PROPERTY
W
SciTegic.value.DoubleValue
-55.880

@<SCITEGIC>MOL_PROPERTY
W(PB)
SciTegic.value.DoubleValue
-57.960

@<SCITEGIC>MOL_PROPERTY
W(SA)
SciTegic.value.DoubleValue
2.080

@<SCITEGIC>MOL_PROPERTY
Valence
SciTegic.value.DoubleValue
2.671

@<SCITEGIC>MOL_PROPERTY
Coulomb
SciTegic.value.DoubleValue
45.371

@<SCITEGIC>MOL_PROPERTY
VdW
SciTegic.value.DoubleValue
0.684

@<SCITEGIC>MOL_PROPERTY
VdW6
SciTegic.value.DoubleValue
-6.511

@<SCITEGIC>MOL_PROPERTY
VdW12
SciTegic.value.DoubleValue
7.195

@<SCITEGIC>MOL_PROPERTY
Bond
SciTegic.value.DoubleValue
0.203

@<SCITEGIC>MOL_PROPERTY
Angle
SciTegic.value.DoubleValue
0.915

@<SCITEGIC>MOL_PROPERTY
Pdih
SciTegic.value.DoubleValue
1.554

@<SCITEGIC>MOL_PROPERTY
Idih
SciTegic.value.DoubleValue
0.000

@<SCITEGIC>MOL_PROPERTY
Tether
SciTegic.value.DoubleValue
0.000

@<TRIPOS>MOLECULE
guest-2_confgen4.mol2 : confsearch ligand conformer 695
          23          22           1
SMALL
USER_CHARGES
 
@<TRIPOS>ATOM
       1    N1      22.265419   19.552451   21.283635 N.4        1 MOL1        -0.5940
       2    H1      22.319460   19.192517   20.325470 H          1 MOL1         0.3649
       3    H2      22.141265   18.746536   21.903866 H          1 MOL1         0.3649
       4    H3      23.180050   19.962117   21.501485 H          1 MOL1         0.3649
       5    C1      21.144066   20.559959   21.444231 C.3        1 MOL1         0.0207
       6    H4      21.357918   21.403862   20.782703 H          1 MOL1         0.0950
       7    H5      21.161163   20.925194   22.474184 H          1 MOL1         0.0950
       8    C2      19.748416   19.992455   21.113506 C.3        1 MOL1        -0.1415
       9    H6      19.009550   20.799875   21.203000 H          1 MOL1         0.0976
      10    H7      19.730460   19.677370   20.061744 H          1 MOL1         0.0976
      11    C3      19.317142   18.804327   22.010168 C.3        1 MOL1        -0.1375
      12    H8      20.007139   17.961437   21.871645 H          1 MOL1         0.0976
      13    H9      18.335736   18.455781   21.663425 H          1 MOL1         0.0976
      14    C4      19.234449   19.173087   23.513368 C.3        1 MOL1        -0.1375
      15    H10     20.209306   19.544808   23.855173 H          1 MOL1         0.0976
      16    H11     18.522684   19.998264   23.653527 H          1 MOL1         0.0976
      17    C5      18.830131   17.983749   24.418048 C.3        1 MOL1        -0.1350
      18    H12     18.909195   18.298048   25.468204 H          1 MOL1         0.0976
      19    H13     19.545011   17.158949   24.290070 H          1 MOL1         0.0976
      20    C6      17.394337   17.472561   24.160125 C.3        1 MOL1        -0.2365
      21    H14     16.663220   18.286490   24.249546 H          1 MOL1         0.0987
      22    H15     17.125487   16.698707   24.890745 H          1 MOL1         0.0987
      23    H16     17.296336   17.029772   23.161338 H          1 MOL1         0.0987
@<TRIPOS>BOND
    1     1     2    1
    2     1     3    1
    3     1     4    1
    4     1     5    1
    5     5     6    1
    6     5     7    1
    7     5     8    1
    8     8     9    1
    9     8    10    1
   10     8    11    1
   11    11    12    1
   12    11    13    1
   13    11    14    1
   14    14    15    1
   15    14    16    1
   16    14    17    1
   17    17    18    1
   18    17    19    1
   19    17    20    1
   20    20    21    1
   21    20    22    1
   22    20    23    1
@<TRIPOS>SUBSTRUCTURE
       1 MOL1            1 RESIDUE      1      MOL     
@<SCITEGIC>MOL_PROPERTY
VConf Rank
SciTegic.value.IntegerValue
695

@<SCITEGIC>MOL_PROPERTY
Conf_Id
SciTegic.value.IntegerValue
50

@<SCITEGIC>MOL_PROPERTY
Delta U+W
SciTegic.value.DoubleValue
1.252

@<SCITEGIC>MOL_PROPERTY
U+W
SciTegic.value.DoubleValue
-7.130

@<SCITEGIC>MOL_PROPERTY
Grad RMS
SciTegic.value.DoubleValue
0.000000

@<SCITEGIC>MOL_PROPERTY
U
SciTegic.value.DoubleValue
48.727

@<SCITEGIC>MOL_PROPERTY
W
SciTegic.value.DoubleValue
-55.857

@<SCITEGIC>MOL_PROPERTY
W(PB)
SciTegic.value.DoubleValue
-57.937

@<SCITEGIC>MOL_PROPERTY
W(SA)
SciTegic.value.DoubleValue
2.080

@<SCITEGIC>MOL_PROPERTY
Valence
SciTegic.value.DoubleValue
2.671

@<SCITEGIC>MOL_PROPERTY
Coulomb
SciTegic.value.DoubleValue
45.371

@<SCITEGIC>MOL_PROPERTY
VdW
SciTegic.value.DoubleValue
0.684

@<SCITEGIC>MOL_PROPERTY
VdW6
SciTegic.value.DoubleValue
-6.511

@<SCITEGIC>MOL_PROPERTY
VdW12
SciTegic.value.DoubleValue
7.196

@<SCITEGIC>MOL_PROPERTY
Bond
SciTegic.value.DoubleValue
0.203

@<SCITEGIC>MOL_PROPERTY
Angle
SciTegic.value.DoubleValue
0.915

@<SCITEGIC>MOL_PROPERTY
Pdih
SciTegic.value.DoubleValue
1.554

@<SCITEGIC>MOL_PROPERTY
Idih
SciTegic.value.DoubleValue
0.000

@<SCITEGIC>MOL_PROPERTY
Tether
SciTegic.value.DoubleValue
0.000

@<TRIPOS>MOLECULE
guest-2_confgen4.mol2 : confsearch ligand conformer 696
          23          22           1
SMALL
USER_CHARGES
 
@<TRIPOS>ATOM
       1    N1      18.308980   16.250592   22.909271 N.4        1 MOL1        -0.5940
       2    H1      19.290101   15.998082   23.061500 H          1 MOL1         0.3649
       3    H2      17.868496   15.461711   22.423916 H          1 MOL1         0.3649
       4    H3      17.866740   16.318490   23.831463 H          1 MOL1         0.3649
       5    C1      18.175155   17.540449   22.123396 C.3        1 MOL1         0.0207
       6    H4      17.108720   17.722805   21.965168 H          1 MOL1         0.0950
       7    H5      18.643847   17.392948   21.146674 H          1 MOL1         0.0950
       8    C2      18.804015   18.762334   22.820742 C.3        1 MOL1        -0.1415
       9    H6      18.560767   19.654826   22.233416 H          1 MOL1         0.0976
      10    H7      18.333792   18.903142   23.803000 H          1 MOL1         0.0976
      11    C3      20.339589   18.630727   22.986171 C.3        1 MOL1        -0.1375
      12    H8      20.809484   18.394945   22.021308 H          1 MOL1         0.0976
      13    H9      20.547511   17.775745   23.643258 H          1 MOL1         0.0976
      14    C4      21.001659   19.889014   23.606238 C.3        1 MOL1        -0.1375
      15    H10     20.294020   20.405038   24.269684 H          1 MOL1         0.0976
      16    H11     21.825897   19.558383   24.253390 H          1 MOL1         0.0976
      17    C5      21.590497   20.886131   22.575590 C.3        1 MOL1        -0.1350
      18    H12     22.370604   20.386704   21.984168 H          1 MOL1         0.0976
      19    H13     22.095064   21.695038   23.122303 H          1 MOL1         0.0976
      20    C6      20.546201   21.508937   21.623440 C.3        1 MOL1        -0.2365
      21    H14     19.721141   21.966259   22.184661 H          1 MOL1         0.0987
      22    H15     20.131321   20.757583   20.940347 H          1 MOL1         0.0987
      23    H16     21.007636   22.291764   21.007690 H          1 MOL1         0.0987
@<TRIPOS>BOND
    1     1     2    1
    2     1     3    1
    3     1     4    1
    4     1     5    1
    5     5     6    1
    6     5     7    1
    7     5     8    1
    8     8     9    1
    9     8    10    1
   10     8    11    1
   11    11    12    1
   12    11    13    1
   13    11    14    1
   14    14    15    1
   15    14    16    1
   16    14    17    1
   17    17    18    1
   18    17    19    1
   19    17    20    1
   20    20    21    1
   21    20    22    1
   22    20    23    1
@<TRIPOS>SUBSTRUCTURE
       1 MOL1            1 RESIDUE      1      MOL     
@<SCITEGIC>MOL_PROPERTY
VConf Rank
SciTegic.value.IntegerValue
696

@<SCITEGIC>MOL_PROPERTY
Conf_Id
SciTegic.value.IntegerValue
55

@<SCITEGIC>MOL_PROPERTY
Delta U+W
SciTegic.value.DoubleValue
3.232

@<SCITEGIC>MOL_PROPERTY
U+W
SciTegic.value.DoubleValue
-5.150

@<SCITEGIC>MOL_PROPERTY
Grad RMS
SciTegic.value.DoubleValue
0.000000

@<SCITEGIC>MOL_PROPERTY
U
SciTegic.value.DoubleValue
50.625

@<SCITEGIC>MOL_PROPERTY
W
SciTegic.value.DoubleValue
-55.776

@<SCITEGIC>MOL_PROPERTY
W(PB)
SciTegic.value.DoubleValue
-57.839

@<SCITEGIC>MOL_PROPERTY
W(SA)
SciTegic.value.DoubleValue
2.064

@<SCITEGIC>MOL_PROPERTY
Valence
SciTegic.value.DoubleValue
4.837

@<SCITEGIC>MOL_PROPERTY
Coulomb
SciTegic.value.DoubleValue
45.097

@<SCITEGIC>MOL_PROPERTY
VdW
SciTegic.value.DoubleValue
0.692

@<SCITEGIC>MOL_PROPERTY
VdW6
SciTegic.value.DoubleValue
-6.655

@<SCITEGIC>MOL_PROPERTY
VdW12
SciTegic.value.DoubleValue
7.347

@<SCITEGIC>MOL_PROPERTY
Bond
SciTegic.value.DoubleValue
0.223

@<SCITEGIC>MOL_PROPERTY
Angle
SciTegic.value.DoubleValue
1.167

@<SCITEGIC>MOL_PROPERTY
Pdih
SciTegic.value.DoubleValue
3.447

@<SCITEGIC>MOL_PROPERTY
Idih
SciTegic.value.DoubleValue
0.000

@<SCITEGIC>MOL_PROPERTY
Tether
SciTegic.value.DoubleValue
0.000

@<TRIPOS>MOLECULE
guest-2_confgen4.mol2 : confsearch ligand conformer 697
          23          22           1
SMALL
USER_CHARGES
 
@<TRIPOS>ATOM
       1    N1      22.923322   19.357453   22.098883 N.4        1 MOL1        -0.5940
       2    H1      23.474593   20.090691   22.556367 H          1 MOL1         0.3649
       3    H2      23.316752   19.231328   21.160105 H          1 MOL1         0.3649
       4    H3      23.093906   18.487216   22.613028 H          1 MOL1         0.3649
       5    C1      21.449647   19.706056   22.049841 C.3        1 MOL1         0.0207
       6    H4      20.934500   18.902573   21.520333 H          1 MOL1         0.0950
       7    H5      21.340753   20.623671   21.465439 H          1 MOL1         0.0950
       8    C2      20.831738   19.908728   23.447302 C.3        1 MOL1        -0.1415
       9    H6      20.974754   19.010383   24.062433 H          1 MOL1         0.0976
      10    H7      21.380401   20.717683   23.947881 H          1 MOL1         0.0976
      11    C3      19.330024   20.288205   23.399159 C.3        1 MOL1        -0.1375
      12    H8      19.137591   20.955768   22.547730 H          1 MOL1         0.0976
      13    H9      19.097916   20.877842   24.296908 H          1 MOL1         0.0976
      14    C4      18.351823   19.085113   23.365030 C.3        1 MOL1        -0.1375
      15    H10     18.481915   18.481790   24.274079 H          1 MOL1         0.0976
      16    H11     17.326265   19.477660   23.404766 H          1 MOL1         0.0976
      17    C5      18.491831   18.176143   22.122181 C.3        1 MOL1        -0.1350
      18    H12     19.455881   17.651930   22.149042 H          1 MOL1         0.0976
      19    H13     18.477570   18.786869   21.208678 H          1 MOL1         0.0976
      20    C6      17.361691   17.126936   22.054130 C.3        1 MOL1        -0.2365
      21    H14     16.377830   17.609227   21.986112 H          1 MOL1         0.0987
      22    H15     17.366456   16.483703   22.943781 H          1 MOL1         0.0987
      23    H16     17.482478   16.483818   21.172745 H          1 MOL1         0.0987
@<TRIPOS>BOND
    1     1     2    1
    2     1     3    1
    3     1     4    1
    4     1     5    1
    5     5     6    1
    6     5     7    1
    7     5     8    1
    8     8     9    1
    9     8    10    1
   10     8    11    1
   11    11    12    1
   12    11    13    1
   13    11    14    1
   14    14    15    1
   15    14    16    1
   16    14    17    1
   17    17    18    1
   18    17    19    1
   19    17    20    1
   20    20    21    1
   21    20    22    1
   22    20    23    1
@<TRIPOS>SUBSTRUCTURE
       1 MOL1            1 RESIDUE      1      MOL     
@<SCITEGIC>MOL_PROPERTY
VConf Rank
SciTegic.value.IntegerValue
697

@<SCITEGIC>MOL_PROPERTY
Conf_Id
SciTegic.value.IntegerValue
93

@<SCITEGIC>MOL_PROPERTY
Delta U+W
SciTegic.value.DoubleValue
2.589

@<SCITEGIC>MOL_PROPERTY
U+W
SciTegic.value.DoubleValue
-5.793

@<SCITEGIC>MOL_PROPERTY
Grad RMS
SciTegic.value.DoubleValue
0.000000

@<SCITEGIC>MOL_PROPERTY
U
SciTegic.value.DoubleValue
50.122

@<SCITEGIC>MOL_PROPERTY
W
SciTegic.value.DoubleValue
-55.915

@<SCITEGIC>MOL_PROPERTY
W(PB)
SciTegic.value.DoubleValue
-58.031

@<SCITEGIC>MOL_PROPERTY
W(SA)
SciTegic.value.DoubleValue
2.115

@<SCITEGIC>MOL_PROPERTY
Valence
SciTegic.value.DoubleValue
4.132

@<SCITEGIC>MOL_PROPERTY
Coulomb
SciTegic.value.DoubleValue
45.536

@<SCITEGIC>MOL_PROPERTY
VdW
SciTegic.value.DoubleValue
0.454

@<SCITEGIC>MOL_PROPERTY
VdW6
SciTegic.value.DoubleValue
-6.262

@<SCITEGIC>MOL_PROPERTY
VdW12
SciTegic.value.DoubleValue
6.715

@<SCITEGIC>MOL_PROPERTY
Bond
SciTegic.value.DoubleValue
0.182

@<SCITEGIC>MOL_PROPERTY
Angle
SciTegic.value.DoubleValue
1.157

@<SCITEGIC>MOL_PROPERTY
Pdih
SciTegic.value.DoubleValue
2.794

@<SCITEGIC>MOL_PROPERTY
Idih
SciTegic.value.DoubleValue
0.000

@<SCITEGIC>MOL_PROPERTY
Tether
SciTegic.value.DoubleValue
0.000

@<TRIPOS>MOLECULE
guest-2_confgen4.mol2 : confsearch ligand conformer 698
          23          22           1
SMALL
USER_CHARGES
 
@<TRIPOS>ATOM
       1    N1      21.640194   21.434656   22.676489 N.4        1 MOL1        -0.5940
       2    H1      21.422786   21.626717   21.693330 H          1 MOL1         0.3649
       3    H2      22.655551   21.302909   22.737258 H          1 MOL1         0.3649
       4    H3      21.418285   22.284121   23.205634 H          1 MOL1         0.3649
       5    C1      20.883684   20.230089   23.198367 C.3        1 MOL1         0.0207
       6    H4      21.184797   20.068362   24.236912 H          1 MOL1         0.0950
       7    H5      21.195649   19.362066   22.614796 H          1 MOL1         0.0950
       8    C2      19.353646   20.402051   23.126259 C.3        1 MOL1        -0.1415
       9    H6      19.082360   21.286385   23.718184 H          1 MOL1         0.0976
      10    H7      19.040742   20.611651   22.094744 H          1 MOL1         0.0976
      11    C3      18.577485   19.180845   23.680960 C.3        1 MOL1        -0.1375
      12    H8      17.607740   19.534923   24.057419 H          1 MOL1         0.0976
      13    H9      19.101326   18.766691   24.553697 H          1 MOL1         0.0976
      14    C4      18.295708   18.059822   22.646849 C.3        1 MOL1        -0.1375
      15    H10     17.683664   17.289647   23.136413 H          1 MOL1         0.0976
      16    H11     17.681567   18.462037   21.829325 H          1 MOL1         0.0976
      17    C5      19.560721   17.393989   22.057858 C.3        1 MOL1        -0.1350
      18    H12     20.236085   17.090385   22.869883 H          1 MOL1         0.0976
      19    H13     20.105193   18.113350   21.432569 H          1 MOL1         0.0976
      20    C6      19.207463   16.161573   21.198184 C.3        1 MOL1        -0.2365
      21    H14     20.115201   15.708107   20.779366 H          1 MOL1         0.0987
      22    H15     18.552495   16.438604   20.361810 H          1 MOL1         0.0987
      23    H16     18.694356   15.396621   21.795497 H          1 MOL1         0.0987
@<TRIPOS>BOND
    1     1     2    1
    2     1     3    1
    3     1     4    1
    4     1     5    1
    5     5     6    1
    6     5     7    1
    7     5     8    1
    8     8     9    1
    9     8    10    1
   10     8    11    1
   11    11    12    1
   12    11    13    1
   13    11    14    1
   14    14    15    1
   15    14    16    1
   16    14    17    1
   17    17    18    1
   18    17    19    1
   19    17    20    1
   20    20    21    1
   21    20    22    1
   22    20    23    1
@<TRIPOS>SUBSTRUCTURE
       1 MOL1            1 RESIDUE      1      MOL     
@<SCITEGIC>MOL_PROPERTY
VConf Rank
SciTegic.value.IntegerValue
698

@<SCITEGIC>MOL_PROPERTY
Conf_Id
SciTegic.value.IntegerValue
70

@<SCITEGIC>MOL_PROPERTY
Delta U+W
SciTegic.value.DoubleValue
2.599

@<SCITEGIC>MOL_PROPERTY
U+W
SciTegic.value.DoubleValue
-5.783

@<SCITEGIC>MOL_PROPERTY
Grad RMS
SciTegic.value.DoubleValue
0.000000

@<SCITEGIC>MOL_PROPERTY
U
SciTegic.value.DoubleValue
50.122

@<SCITEGIC>MOL_PROPERTY
W
SciTegic.value.DoubleValue
-55.906

@<SCITEGIC>MOL_PROPERTY
W(PB)
SciTegic.value.DoubleValue
-58.010

@<SCITEGIC>MOL_PROPERTY
W(SA)
SciTegic.value.DoubleValue
2.105

@<SCITEGIC>MOL_PROPERTY
Valence
SciTegic.value.DoubleValue
4.132

@<SCITEGIC>MOL_PROPERTY
Coulomb
SciTegic.value.DoubleValue
45.536

@<SCITEGIC>MOL_PROPERTY
VdW
SciTegic.value.DoubleValue
0.454

@<SCITEGIC>MOL_PROPERTY
VdW6
SciTegic.value.DoubleValue
-6.262

@<SCITEGIC>MOL_PROPERTY
VdW12
SciTegic.value.DoubleValue
6.715

@<SCITEGIC>MOL_PROPERTY
Bond
SciTegic.value.DoubleValue
0.182

@<SCITEGIC>MOL_PROPERTY
Angle
SciTegic.value.DoubleValue
1.157

@<SCITEGIC>MOL_PROPERTY
Pdih
SciTegic.value.DoubleValue
2.794

@<SCITEGIC>MOL_PROPERTY
Idih
SciTegic.value.DoubleValue
0.000

@<SCITEGIC>MOL_PROPERTY
Tether
SciTegic.value.DoubleValue
0.000

@<TRIPOS>MOLECULE
guest-2_confgen4.mol2 : confsearch ligand conformer 699
          23          22           1
SMALL
USER_CHARGES
 
@<TRIPOS>ATOM
       1    N1      22.241527   17.781406   21.729989 N.4        1 MOL1        -0.5940
       2    H1      23.168220   18.207920   21.829149 H          1 MOL1         0.3649
       3    H2      22.347479   16.978148   21.101250 H          1 MOL1         0.3649
       4    H3      21.978121   17.412390   22.648635 H          1 MOL1         0.3649
       5    C1      21.218519   18.772550   21.211025 C.3        1 MOL1         0.0207
       6    H4      20.265819   18.248898   21.096582 H          1 MOL1         0.0950
       7    H5      21.546080   19.101851   20.221197 H          1 MOL1         0.0950
       8    C2      21.030399   20.001270   22.123517 C.3        1 MOL1        -0.1415
       9    H6      21.984692   20.538553   22.203311 H          1 MOL1         0.0976
      10    H7      20.334686   20.698594   21.639638 H          1 MOL1         0.0976
      11    C3      20.518896   19.656776   23.547137 C.3        1 MOL1        -0.1375
      12    H8      20.377246   20.590915   24.107960 H          1 MOL1         0.0976
      13    H9      21.297895   19.102169   24.087327 H          1 MOL1         0.0976
      14    C4      19.202541   18.838018   23.587701 C.3        1 MOL1        -0.1375
      15    H10     19.352570   17.859180   23.113086 H          1 MOL1         0.0976
      16    H11     18.956526   18.630055   24.638208 H          1 MOL1         0.0976
      17    C5      18.005302   19.559665   22.925330 C.3        1 MOL1        -0.1350
      18    H12     18.200795   19.714499   21.855868 H          1 MOL1         0.0976
      19    H13     17.877896   20.554933   23.373573 H          1 MOL1         0.0976
      20    C6      16.697427   18.755486   23.083889 C.3        1 MOL1        -0.2365
      21    H14     15.859585   19.280038   22.606520 H          1 MOL1         0.0987
      22    H15     16.446318   18.614238   24.143222 H          1 MOL1         0.0987
      23    H16     16.784276   17.765203   22.618054 H          1 MOL1         0.0987
@<TRIPOS>BOND
    1     1     2    1
    2     1     3    1
    3     1     4    1
    4     1     5    1
    5     5     6    1
    6     5     7    1
    7     5     8    1
    8     8     9    1
    9     8    10    1
   10     8    11    1
   11    11    12    1
   12    11    13    1
   13    11    14    1
   14    14    15    1
   15    14    16    1
   16    14    17    1
   17    17    18    1
   18    17    19    1
   19    17    20    1
   20    20    21    1
   21    20    22    1
   22    20    23    1
@<TRIPOS>SUBSTRUCTURE
       1 MOL1            1 RESIDUE      1      MOL     
@<SCITEGIC>MOL_PROPERTY
VConf Rank
SciTegic.value.IntegerValue
699

@<SCITEGIC>MOL_PROPERTY
Conf_Id
SciTegic.value.IntegerValue
72

@<SCITEGIC>MOL_PROPERTY
Delta U+W
SciTegic.value.DoubleValue
1.051

@<SCITEGIC>MOL_PROPERTY
U+W
SciTegic.value.DoubleValue
-7.331

@<SCITEGIC>MOL_PROPERTY
Grad RMS
SciTegic.value.DoubleValue
0.000000

@<SCITEGIC>MOL_PROPERTY
U
SciTegic.value.DoubleValue
48.590

@<SCITEGIC>MOL_PROPERTY
W
SciTegic.value.DoubleValue
-55.922

@<SCITEGIC>MOL_PROPERTY
W(PB)
SciTegic.value.DoubleValue
-58.012

@<SCITEGIC>MOL_PROPERTY
W(SA)
SciTegic.value.DoubleValue
2.090

@<SCITEGIC>MOL_PROPERTY
Valence
SciTegic.value.DoubleValue
2.601

@<SCITEGIC>MOL_PROPERTY
Coulomb
SciTegic.value.DoubleValue
45.520

@<SCITEGIC>MOL_PROPERTY
VdW
SciTegic.value.DoubleValue
0.469

@<SCITEGIC>MOL_PROPERTY
VdW6
SciTegic.value.DoubleValue
-6.867

@<SCITEGIC>MOL_PROPERTY
VdW12
SciTegic.value.DoubleValue
7.336

@<SCITEGIC>MOL_PROPERTY
Bond
SciTegic.value.DoubleValue
0.205

@<SCITEGIC>MOL_PROPERTY
Angle
SciTegic.value.DoubleValue
0.962

@<SCITEGIC>MOL_PROPERTY
Pdih
SciTegic.value.DoubleValue
1.434

@<SCITEGIC>MOL_PROPERTY
Idih
SciTegic.value.DoubleValue
0.000

@<SCITEGIC>MOL_PROPERTY
Tether
SciTegic.value.DoubleValue
0.000

@<TRIPOS>MOLECULE
guest-2_confgen4.mol2 : confsearch ligand conformer 700
          23          22           1
SMALL
USER_CHARGES
 
@<TRIPOS>ATOM
       1    N1      17.978923   21.218382   21.346668 N.4        1 MOL1        -0.5940
       2    H1      17.484338   21.241195   20.448435 H          1 MOL1         0.3649
       3    H2      18.290755   22.175739   21.539056 H          1 MOL1         0.3649
       4    H3      17.286020   20.977277   22.062501 H          1 MOL1         0.3649
       5    C1      19.136097   20.240522   21.327297 C.3        1 MOL1         0.0207
       6    H4      19.817828   20.539322   20.526477 H          1 MOL1         0.0950
       7    H5      18.736321   19.251662   21.087992 H          1 MOL1         0.0950
       8    C2      19.900268   20.182337   22.663139 C.3        1 MOL1        -0.1415
       9    H6      20.265187   21.187552   22.912348 H          1 MOL1         0.0976
      10    H7      19.214046   19.895080   23.469994 H          1 MOL1         0.0976
      11    C3      21.104808   19.209533   22.620724 C.3        1 MOL1        -0.1375
      12    H8      21.618002   19.231048   23.591352 H          1 MOL1         0.0976
      13    H9      21.836595   19.582798   21.891017 H          1 MOL1         0.0976
      14    C4      20.745883   17.743643   22.255898 C.3        1 MOL1        -0.1375
      15    H10     20.385256   17.703468   21.219251 H          1 MOL1         0.0976
      16    H11     21.666005   17.143383   22.271164 H          1 MOL1         0.0976
      17    C5      19.696323   17.072676   23.178095 C.3        1 MOL1        -0.1350
      18    H12     19.515310   16.050689   22.816893 H          1 MOL1         0.0976
      19    H13     18.732937   17.594035   23.099427 H          1 MOL1         0.0976
      20    C6      20.134521   17.006429   24.658673 C.3        1 MOL1        -0.2365
      21    H14     21.102876   16.499720   24.761015 H          1 MOL1         0.0987
      22    H15     19.399171   16.448755   25.252896 H          1 MOL1         0.0987
      23    H16     20.222693   18.008098   25.097357 H          1 MOL1         0.0987
@<TRIPOS>BOND
    1     1     2    1
    2     1     3    1
    3     1     4    1
    4     1     5    1
    5     5     6    1
    6     5     7    1
    7     5     8    1
    8     8     9    1
    9     8    10    1
   10     8    11    1
   11    11    12    1
   12    11    13    1
   13    11    14    1
   14    14    15    1
   15    14    16    1
   16    14    17    1
   17    17    18    1
   18    17    19    1
   19    17    20    1
   20    20    21    1
   21    20    22    1
   22    20    23    1
@<TRIPOS>SUBSTRUCTURE
       1 MOL1            1 RESIDUE      1      MOL     
@<SCITEGIC>MOL_PROPERTY
VConf Rank
SciTegic.value.IntegerValue
700

@<SCITEGIC>MOL_PROPERTY
Conf_Id
SciTegic.value.IntegerValue
26

@<SCITEGIC>MOL_PROPERTY
Delta U+W
SciTegic.value.DoubleValue
1.076

@<SCITEGIC>MOL_PROPERTY
U+W
SciTegic.value.DoubleValue
-7.306

@<SCITEGIC>MOL_PROPERTY
Grad RMS
SciTegic.value.DoubleValue
0.000000

@<SCITEGIC>MOL_PROPERTY
U
SciTegic.value.DoubleValue
48.641

@<SCITEGIC>MOL_PROPERTY
W
SciTegic.value.DoubleValue
-55.947

@<SCITEGIC>MOL_PROPERTY
W(PB)
SciTegic.value.DoubleValue
-58.031

@<SCITEGIC>MOL_PROPERTY
W(SA)
SciTegic.value.DoubleValue
2.084

@<SCITEGIC>MOL_PROPERTY
Valence
SciTegic.value.DoubleValue
2.922

@<SCITEGIC>MOL_PROPERTY
Coulomb
SciTegic.value.DoubleValue
45.269

@<SCITEGIC>MOL_PROPERTY
VdW
SciTegic.value.DoubleValue
0.449

@<SCITEGIC>MOL_PROPERTY
VdW6
SciTegic.value.DoubleValue
-7.045

@<SCITEGIC>MOL_PROPERTY
VdW12
SciTegic.value.DoubleValue
7.494

@<SCITEGIC>MOL_PROPERTY
Bond
SciTegic.value.DoubleValue
0.220

@<SCITEGIC>MOL_PROPERTY
Angle
SciTegic.value.DoubleValue
1.205

@<SCITEGIC>MOL_PROPERTY
Pdih
SciTegic.value.DoubleValue
1.497

@<SCITEGIC>MOL_PROPERTY
Idih
SciTegic.value.DoubleValue
0.000

@<SCITEGIC>MOL_PROPERTY
Tether
SciTegic.value.DoubleValue
0.000

@<TRIPOS>MOLECULE
guest-2_confgen4.mol2 : confsearch ligand conformer 701
          23          22           1
SMALL
USER_CHARGES
 
@<TRIPOS>ATOM
       1    N1      22.175039   20.545225   21.260424 N.4        1 MOL1        -0.5940
       2    H1      23.084796   20.441234   21.721197 H          1 MOL1         0.3649
       3    H2      22.180738   21.458064   20.792824 H          1 MOL1         0.3649
       4    H3      22.126633   19.833501   20.524375 H          1 MOL1         0.3649
       5    C1      21.027403   20.422885   22.242056 C.3        1 MOL1         0.0207
       6    H4      20.095862   20.573465   21.690251 H          1 MOL1         0.0950
       7    H5      21.125136   21.225376   22.978130 H          1 MOL1         0.0950
       8    C2      20.990460   19.061778   22.961667 C.3        1 MOL1        -0.1415
       9    H6      20.905489   18.254632   22.222933 H          1 MOL1         0.0976
      10    H7      21.944686   18.904298   23.481650 H          1 MOL1         0.0976
      11    C3      19.837614   18.961143   23.991172 C.3        1 MOL1        -0.1375
      12    H8      20.007921   19.698761   24.787556 H          1 MOL1         0.0976
      13    H9      19.880069   17.980177   24.482959 H          1 MOL1         0.0976
      14    C4      18.418078   19.186129   23.403758 C.3        1 MOL1        -0.1375
      15    H10     17.682683   19.076575   24.212683 H          1 MOL1         0.0976
      16    H11     18.325708   20.225360   23.060583 H          1 MOL1         0.0976
      17    C5      18.027440   18.237904   22.241651 C.3        1 MOL1        -0.1350
      18    H12     18.685569   18.403969   21.378281 H          1 MOL1         0.0976
      19    H13     17.015169   18.498481   21.902389 H          1 MOL1         0.0976
      20    C6      18.050523   16.743679   22.635704 C.3        1 MOL1        -0.2365
      21    H14     19.066114   16.407288   22.878554 H          1 MOL1         0.0987
      22    H15     17.685271   16.121921   21.808148 H          1 MOL1         0.0987
      23    H16     17.408576   16.555419   23.505994 H          1 MOL1         0.0987
@<TRIPOS>BOND
    1     1     2    1
    2     1     3    1
    3     1     4    1
    4     1     5    1
    5     5     6    1
    6     5     7    1
    7     5     8    1
    8     8     9    1
    9     8    10    1
   10     8    11    1
   11    11    12    1
   12    11    13    1
   13    11    14    1
   14    14    15    1
   15    14    16    1
   16    14    17    1
   17    17    18    1
   18    17    19    1
   19    17    20    1
   20    20    21    1
   21    20    22    1
   22    20    23    1
@<TRIPOS>SUBSTRUCTURE
       1 MOL1            1 RESIDUE      1      MOL     
@<SCITEGIC>MOL_PROPERTY
VConf Rank
SciTegic.value.IntegerValue
701

@<SCITEGIC>MOL_PROPERTY
Conf_Id
SciTegic.value.IntegerValue
90

@<SCITEGIC>MOL_PROPERTY
Delta U+W
SciTegic.value.DoubleValue
1.131

@<SCITEGIC>MOL_PROPERTY
U+W
SciTegic.value.DoubleValue
-7.251

@<SCITEGIC>MOL_PROPERTY
Grad RMS
SciTegic.value.DoubleValue
0.000000

@<SCITEGIC>MOL_PROPERTY
U
SciTegic.value.DoubleValue
48.641

@<SCITEGIC>MOL_PROPERTY
W
SciTegic.value.DoubleValue
-55.892

@<SCITEGIC>MOL_PROPERTY
W(PB)
SciTegic.value.DoubleValue
-57.962

@<SCITEGIC>MOL_PROPERTY
W(SA)
SciTegic.value.DoubleValue
2.070

@<SCITEGIC>MOL_PROPERTY
Valence
SciTegic.value.DoubleValue
2.922

@<SCITEGIC>MOL_PROPERTY
Coulomb
SciTegic.value.DoubleValue
45.269

@<SCITEGIC>MOL_PROPERTY
VdW
SciTegic.value.DoubleValue
0.450

@<SCITEGIC>MOL_PROPERTY
VdW6
SciTegic.value.DoubleValue
-7.045

@<SCITEGIC>MOL_PROPERTY
VdW12
SciTegic.value.DoubleValue
7.495

@<SCITEGIC>MOL_PROPERTY
Bond
SciTegic.value.DoubleValue
0.220

@<SCITEGIC>MOL_PROPERTY
Angle
SciTegic.value.DoubleValue
1.205

@<SCITEGIC>MOL_PROPERTY
Pdih
SciTegic.value.DoubleValue
1.497

@<SCITEGIC>MOL_PROPERTY
Idih
SciTegic.value.DoubleValue
0.000

@<SCITEGIC>MOL_PROPERTY
Tether
SciTegic.value.DoubleValue
0.000

@<TRIPOS>MOLECULE
guest-2_confgen4.mol2 : confsearch ligand conformer 702
          23          22           1
SMALL
USER_CHARGES
 
@<TRIPOS>ATOM
       1    N1      21.644436   17.041174   22.616161 N.4        1 MOL1        -0.5940
       2    H1      21.744719   16.110280   23.034769 H          1 MOL1         0.3649
       3    H2      21.426880   17.691842   23.377032 H          1 MOL1         0.3649
       4    H3      22.563549   17.303191   22.245823 H          1 MOL1         0.3649
       5    C1      20.576924   17.062819   21.539897 C.3        1 MOL1         0.0207
       6    H4      19.633600   16.745553   21.991780 H          1 MOL1         0.0950
       7    H5      20.853948   16.325799   20.781229 H          1 MOL1         0.0950
       8    C2      20.397736   18.441673   20.872406 C.3        1 MOL1        -0.1415
       9    H6      21.337233   18.728562   20.381661 H          1 MOL1         0.0976
      10    H7      19.650473   18.351293   20.072861 H          1 MOL1         0.0976
      11    C3      19.966817   19.563531   21.850325 C.3        1 MOL1        -0.1375
      12    H8      19.880806   20.503679   21.288333 H          1 MOL1         0.0976
      13    H9      20.756883   19.723483   22.594849 H          1 MOL1         0.0976
      14    C4      18.619087   19.268551   22.556075 C.3        1 MOL1        -0.1375
      15    H10     17.862304   19.027619   21.796799 H          1 MOL1         0.0976
      16    H11     18.711773   18.379363   23.193794 H          1 MOL1         0.0976
      17    C5      18.100931   20.452010   23.408326 C.3        1 MOL1        -0.1350
      18    H12     17.098459   20.203754   23.784165 H          1 MOL1         0.0976
      19    H13     17.979631   21.341829   22.774853 H          1 MOL1         0.0976
      20    C6      19.013815   20.788985   24.609253 C.3        1 MOL1        -0.2365
      21    H14     19.172397   19.907908   25.244463 H          1 MOL1         0.0987
      22    H15     18.558552   21.571815   25.229616 H          1 MOL1         0.0987
      23    H16     19.993291   21.157690   24.280477 H          1 MOL1         0.0987
@<TRIPOS>BOND
    1     1     2    1
    2     1     3    1
    3     1     4    1
    4     1     5    1
    5     5     6    1
    6     5     7    1
    7     5     8    1
    8     8     9    1
    9     8    10    1
   10     8    11    1
   11    11    12    1
   12    11    13    1
   13    11    14    1
   14    14    15    1
   15    14    16    1
   16    14    17    1
   17    17    18    1
   18    17    19    1
   19    17    20    1
   20    20    21    1
   21    20    22    1
   22    20    23    1
@<TRIPOS>SUBSTRUCTURE
       1 MOL1            1 RESIDUE      1      MOL     
@<SCITEGIC>MOL_PROPERTY
VConf Rank
SciTegic.value.IntegerValue
702

@<SCITEGIC>MOL_PROPERTY
Conf_Id
SciTegic.value.IntegerValue
85

@<SCITEGIC>MOL_PROPERTY
Delta U+W
SciTegic.value.DoubleValue
1.193

@<SCITEGIC>MOL_PROPERTY
U+W
SciTegic.value.DoubleValue
-7.189

@<SCITEGIC>MOL_PROPERTY
Grad RMS
SciTegic.value.DoubleValue
0.000000

@<SCITEGIC>MOL_PROPERTY
U
SciTegic.value.DoubleValue
48.775

@<SCITEGIC>MOL_PROPERTY
W
SciTegic.value.DoubleValue
-55.965

@<SCITEGIC>MOL_PROPERTY
W(PB)
SciTegic.value.DoubleValue
-58.038

@<SCITEGIC>MOL_PROPERTY
W(SA)
SciTegic.value.DoubleValue
2.073

@<SCITEGIC>MOL_PROPERTY
Valence
SciTegic.value.DoubleValue
2.602

@<SCITEGIC>MOL_PROPERTY
Coulomb
SciTegic.value.DoubleValue
45.581

@<SCITEGIC>MOL_PROPERTY
VdW
SciTegic.value.DoubleValue
0.592

@<SCITEGIC>MOL_PROPERTY
VdW6
SciTegic.value.DoubleValue
-6.616

@<SCITEGIC>MOL_PROPERTY
VdW12
SciTegic.value.DoubleValue
7.208

@<SCITEGIC>MOL_PROPERTY
Bond
SciTegic.value.DoubleValue
0.196

@<SCITEGIC>MOL_PROPERTY
Angle
SciTegic.value.DoubleValue
0.832

@<SCITEGIC>MOL_PROPERTY
Pdih
SciTegic.value.DoubleValue
1.574

@<SCITEGIC>MOL_PROPERTY
Idih
SciTegic.value.DoubleValue
0.000

@<SCITEGIC>MOL_PROPERTY
Tether
SciTegic.value.DoubleValue
0.000

@<TRIPOS>MOLECULE
guest-2_confgen4.mol2 : confsearch ligand conformer 703
          23          22           1
SMALL
USER_CHARGES
 
@<TRIPOS>ATOM
       1    N1      21.741145   19.407517   22.583935 N.4        1 MOL1        -0.5940
       2    H1      21.101091   18.889972   23.194795 H          1 MOL1         0.3649
       3    H2      22.293110   20.035473   23.178333 H          1 MOL1         0.3649
       4    H3      22.394186   18.728583   22.179459 H          1 MOL1         0.3649
       5    C1      20.986088   20.167506   21.510637 C.3        1 MOL1         0.0207
       6    H4      21.731710   20.688365   20.903791 H          1 MOL1         0.0950
       7    H5      20.355212   20.919496   21.991922 H          1 MOL1         0.0950
       8    C2      20.127728   19.271965   20.594153 C.3        1 MOL1        -0.1415
       9    H6      19.959975   19.817934   19.656276 H          1 MOL1         0.0976
      10    H7      20.693930   18.372362   20.318468 H          1 MOL1         0.0976
      11    C3      18.740001   18.875796   21.166321 C.3        1 MOL1        -0.1375
      12    H8      18.220775   18.292066   20.393553 H          1 MOL1         0.0976
      13    H9      18.125991   19.774557   21.316952 H          1 MOL1         0.0976
      14    C4      18.775066   18.029168   22.464494 C.3        1 MOL1        -0.1375
      15    H10     17.950420   17.303553   22.430130 H          1 MOL1         0.0976
      16    H11     19.694296   17.429693   22.501522 H          1 MOL1         0.0976
      17    C5      18.608672   18.876603   23.749510 C.3        1 MOL1        -0.1350
      18    H12     17.607329   19.329801   23.757184 H          1 MOL1         0.0976
      19    H13     19.318223   19.712379   23.766629 H          1 MOL1         0.0976
      20    C6      18.788544   18.023500   25.022965 C.3        1 MOL1        -0.2365
      21    H14     18.053521   17.208709   25.057992 H          1 MOL1         0.0987
      22    H15     18.652378   18.637286   25.922912 H          1 MOL1         0.0987
      23    H16     19.791411   17.579554   25.066961 H          1 MOL1         0.0987
@<TRIPOS>BOND
    1     1     2    1
    2     1     3    1
    3     1     4    1
    4     1     5    1
    5     5     6    1
    6     5     7    1
    7     5     8    1
    8     8     9    1
    9     8    10    1
   10     8    11    1
   11    11    12    1
   12    11    13    1
   13    11    14    1
   14    14    15    1
   15    14    16    1
   16    14    17    1
   17    17    18    1
   18    17    19    1
   19    17    20    1
   20    20    21    1
   21    20    22    1
   22    20    23    1
@<TRIPOS>SUBSTRUCTURE
       1 MOL1            1 RESIDUE      1      MOL     
@<SCITEGIC>MOL_PROPERTY
VConf Rank
SciTegic.value.IntegerValue
703

@<SCITEGIC>MOL_PROPERTY
Conf_Id
SciTegic.value.IntegerValue
82

@<SCITEGIC>MOL_PROPERTY
Delta U+W
SciTegic.value.DoubleValue
5.994

@<SCITEGIC>MOL_PROPERTY
U+W
SciTegic.value.DoubleValue
-2.388

@<SCITEGIC>MOL_PROPERTY
Grad RMS
SciTegic.value.DoubleValue
0.000000

@<SCITEGIC>MOL_PROPERTY
U
SciTegic.value.DoubleValue
52.836

@<SCITEGIC>MOL_PROPERTY
W
SciTegic.value.DoubleValue
-55.224

@<SCITEGIC>MOL_PROPERTY
W(PB)
SciTegic.value.DoubleValue
-57.261

@<SCITEGIC>MOL_PROPERTY
W(SA)
SciTegic.value.DoubleValue
2.037

@<SCITEGIC>MOL_PROPERTY
Valence
SciTegic.value.DoubleValue
5.785

@<SCITEGIC>MOL_PROPERTY
Coulomb
SciTegic.value.DoubleValue
46.744

@<SCITEGIC>MOL_PROPERTY
VdW
SciTegic.value.DoubleValue
0.307

@<SCITEGIC>MOL_PROPERTY
VdW6
SciTegic.value.DoubleValue
-7.672

@<SCITEGIC>MOL_PROPERTY
VdW12
SciTegic.value.DoubleValue
7.979

@<SCITEGIC>MOL_PROPERTY
Bond
SciTegic.value.DoubleValue
0.217

@<SCITEGIC>MOL_PROPERTY
Angle
SciTegic.value.DoubleValue
1.470

@<SCITEGIC>MOL_PROPERTY
Pdih
SciTegic.value.DoubleValue
4.098

@<SCITEGIC>MOL_PROPERTY
Idih
SciTegic.value.DoubleValue
0.000

@<SCITEGIC>MOL_PROPERTY
Tether
SciTegic.value.DoubleValue
0.000

@<TRIPOS>MOLECULE
guest-2_confgen4.mol2 : confsearch ligand conformer 704
          23          22           1
SMALL
USER_CHARGES
 
@<TRIPOS>ATOM
       1    N1      20.053128   16.925905   22.653258 N.4        1 MOL1        -0.5940
       2    H1      20.053119   16.493157   23.582636 H          1 MOL1         0.3649
       3    H2      19.849182   16.181821   21.977205 H          1 MOL1         0.3649
       4    H3      19.272377   17.589446   22.624699 H          1 MOL1         0.3649
       5    C1      21.371899   17.612259   22.354231 C.3        1 MOL1         0.0207
       6    H4      21.342058   17.998252   21.331858 H          1 MOL1         0.0950
       7    H5      22.149616   16.845366   22.404661 H          1 MOL1         0.0950
       8    C2      21.723012   18.750339   23.334134 C.3        1 MOL1        -0.1415
       9    H6      21.501758   18.435814   24.362722 H          1 MOL1         0.0976
      10    H7      22.810118   18.900468   23.295410 H          1 MOL1         0.0976
      11    C3      21.045476   20.114699   23.034832 C.3        1 MOL1        -0.1375
      12    H8      21.374952   20.490339   22.056154 H          1 MOL1         0.0976
      13    H9      21.425356   20.838082   23.769619 H          1 MOL1         0.0976
      14    C4      19.497285   20.117951   23.114561 C.3        1 MOL1        -0.1375
      15    H10     19.152759   19.358077   23.828436 H          1 MOL1         0.0976
      16    H11     19.171351   21.082090   23.529220 H          1 MOL1         0.0976
      17    C5      18.815604   19.939145   21.735996 C.3        1 MOL1        -0.1350
      18    H12     19.213349   19.063879   21.208748 H          1 MOL1         0.0976
      19    H13     19.048699   20.806017   21.101697 H          1 MOL1         0.0976
      20    C6      17.283836   19.806394   21.869753 C.3        1 MOL1        -0.2365
      21    H14     17.010739   18.929860   22.471312 H          1 MOL1         0.0987
      22    H15     16.816850   19.695765   20.882401 H          1 MOL1         0.0987
      23    H16     16.851917   20.695461   22.347640 H          1 MOL1         0.0987
@<TRIPOS>BOND
    1     1     2    1
    2     1     3    1
    3     1     4    1
    4     1     5    1
    5     5     6    1
    6     5     7    1
    7     5     8    1
    8     8     9    1
    9     8    10    1
   10     8    11    1
   11    11    12    1
   12    11    13    1
   13    11    14    1
   14    14    15    1
   15    14    16    1
   16    14    17    1
   17    17    18    1
   18    17    19    1
   19    17    20    1
   20    20    21    1
   21    20    22    1
   22    20    23    1
@<TRIPOS>SUBSTRUCTURE
       1 MOL1            1 RESIDUE      1      MOL     
@<SCITEGIC>MOL_PROPERTY
VConf Rank
SciTegic.value.IntegerValue
704

@<SCITEGIC>MOL_PROPERTY
Conf_Id
SciTegic.value.IntegerValue
5

@<SCITEGIC>MOL_PROPERTY
Delta U+W
SciTegic.value.DoubleValue
6.087

@<SCITEGIC>MOL_PROPERTY
U+W
SciTegic.value.DoubleValue
-2.295

@<SCITEGIC>MOL_PROPERTY
Grad RMS
SciTegic.value.DoubleValue
0.000000

@<SCITEGIC>MOL_PROPERTY
U
SciTegic.value.DoubleValue
52.836

@<SCITEGIC>MOL_PROPERTY
W
SciTegic.value.DoubleValue
-55.131

@<SCITEGIC>MOL_PROPERTY
W(PB)
SciTegic.value.DoubleValue
-57.202

@<SCITEGIC>MOL_PROPERTY
W(SA)
SciTegic.value.DoubleValue
2.071

@<SCITEGIC>MOL_PROPERTY
Valence
SciTegic.value.DoubleValue
5.785

@<SCITEGIC>MOL_PROPERTY
Coulomb
SciTegic.value.DoubleValue
46.744

@<SCITEGIC>MOL_PROPERTY
VdW
SciTegic.value.DoubleValue
0.307

@<SCITEGIC>MOL_PROPERTY
VdW6
SciTegic.value.DoubleValue
-7.672

@<SCITEGIC>MOL_PROPERTY
VdW12
SciTegic.value.DoubleValue
7.980

@<SCITEGIC>MOL_PROPERTY
Bond
SciTegic.value.DoubleValue
0.217

@<SCITEGIC>MOL_PROPERTY
Angle
SciTegic.value.DoubleValue
1.470

@<SCITEGIC>MOL_PROPERTY
Pdih
SciTegic.value.DoubleValue
4.098

@<SCITEGIC>MOL_PROPERTY
Idih
SciTegic.value.DoubleValue
0.000

@<SCITEGIC>MOL_PROPERTY
Tether
SciTegic.value.DoubleValue
0.000

@<TRIPOS>MOLECULE
guest-2_confgen4.mol2 : confsearch ligand conformer 705
          23          22           1
SMALL
USER_CHARGES
 
@<TRIPOS>ATOM
       1    N1      19.874870   17.587128   19.034641 N.4        1 MOL1        -0.5940
       2    H1      20.407812   16.741908   19.263686 H          1 MOL1         0.3649
       3    H2      20.151063   17.865713   18.086905 H          1 MOL1         0.3649
       4    H3      18.886807   17.317695   18.989679 H          1 MOL1         0.3649
       5    C1      20.113659   18.695991   20.039280 C.3        1 MOL1         0.0207
       6    H4      19.541468   19.570817   19.718699 H          1 MOL1         0.0950
       7    H5      21.176344   18.951950   20.013176 H          1 MOL1         0.0950
       8    C2      19.709034   18.309241   21.472905 C.3        1 MOL1        -0.1415
       9    H6      18.645141   18.037392   21.491114 H          1 MOL1         0.0976
      10    H7      20.274178   17.420637   21.784503 H          1 MOL1         0.0976
      11    C3      19.967911   19.464820   22.464773 C.3        1 MOL1        -0.1375
      12    H8      19.404995   20.353470   22.146608 H          1 MOL1         0.0976
      13    H9      21.032296   19.737326   22.439712 H          1 MOL1         0.0976
      14    C4      19.564899   19.087144   23.908360 C.3        1 MOL1        -0.1375
      15    H10     18.500618   18.814781   23.933613 H          1 MOL1         0.0976
      16    H11     20.127681   18.198616   24.226649 H          1 MOL1         0.0976
      17    C5      19.824022   20.243036   24.900090 C.3        1 MOL1        -0.1350
      18    H12     19.261155   21.133720   24.587306 H          1 MOL1         0.0976
      19    H13     20.888070   20.517598   24.880324 H          1 MOL1         0.0976
      20    C6      19.420397   19.862236   26.340433 C.3        1 MOL1        -0.2365
      21    H14     19.611627   20.694998   27.029624 H          1 MOL1         0.0987
      22    H15     19.991952   18.994251   26.694206 H          1 MOL1         0.0987
      23    H16     18.352331   19.615159   26.398895 H          1 MOL1         0.0987
@<TRIPOS>BOND
    1     1     2    1
    2     1     3    1
    3     1     4    1
    4     1     5    1
    5     5     6    1
    6     5     7    1
    7     5     8    1
    8     8     9    1
    9     8    10    1
   10     8    11    1
   11    11    12    1
   12    11    13    1
   13    11    14    1
   14    14    15    1
   15    14    16    1
   16    14    17    1
   17    17    18    1
   18    17    19    1
   19    17    20    1
   20    20    21    1
   21    20    22    1
   22    20    23    1
@<TRIPOS>SUBSTRUCTURE
       1 MOL1            1 RESIDUE      1      MOL     
@<SCITEGIC>MOL_PROPERTY
VConf Rank
SciTegic.value.IntegerValue
705

@<SCITEGIC>MOL_PROPERTY
Conf_Id
SciTegic.value.IntegerValue
40

@<SCITEGIC>MOL_PROPERTY
Delta U+W
SciTegic.value.DoubleValue
0.000

@<SCITEGIC>MOL_PROPERTY
U+W
SciTegic.value.DoubleValue
-8.382

@<SCITEGIC>MOL_PROPERTY
Grad RMS
SciTegic.value.DoubleValue
0.000000

@<SCITEGIC>MOL_PROPERTY
U
SciTegic.value.DoubleValue
46.604

@<SCITEGIC>MOL_PROPERTY
W
SciTegic.value.DoubleValue
-54.986

@<SCITEGIC>MOL_PROPERTY
W(PB)
SciTegic.value.DoubleValue
-57.162

@<SCITEGIC>MOL_PROPERTY
W(SA)
SciTegic.value.DoubleValue
2.176

@<SCITEGIC>MOL_PROPERTY
Valence
SciTegic.value.DoubleValue
1.727

@<SCITEGIC>MOL_PROPERTY
Coulomb
SciTegic.value.DoubleValue
44.434

@<SCITEGIC>MOL_PROPERTY
VdW
SciTegic.value.DoubleValue
0.443

@<SCITEGIC>MOL_PROPERTY
VdW6
SciTegic.value.DoubleValue
-4.623

@<SCITEGIC>MOL_PROPERTY
VdW12
SciTegic.value.DoubleValue
5.066

@<SCITEGIC>MOL_PROPERTY
Bond
SciTegic.value.DoubleValue
0.112

@<SCITEGIC>MOL_PROPERTY
Angle
SciTegic.value.DoubleValue
0.386

@<SCITEGIC>MOL_PROPERTY
Pdih
SciTegic.value.DoubleValue
1.228

@<SCITEGIC>MOL_PROPERTY
Idih
SciTegic.value.DoubleValue
0.000

@<SCITEGIC>MOL_PROPERTY
Tether
SciTegic.value.DoubleValue
0.000

@<TRIPOS>MOLECULE
guest-2_confgen4.mol2 : confsearch ligand conformer 706
          23          22           1
SMALL
USER_CHARGES
 
@<TRIPOS>ATOM
       1    N1      22.820111   19.365421   24.433407 N.4        1 MOL1        -0.5940
       2    H1      22.640135   19.772147   25.356999 H          1 MOL1         0.3649
       3    H2      23.228988   20.104778   23.852886 H          1 MOL1         0.3649
       4    H3      23.544460   18.650176   24.558994 H          1 MOL1         0.3649
       5    C1      21.562524   18.790478   23.813974 C.3        1 MOL1         0.0207
       6    H4      21.198620   17.993017   24.467458 H          1 MOL1         0.0950
       7    H5      21.834801   18.349663   22.851651 H          1 MOL1         0.0950
       8    C2      20.454327   19.841435   23.612671 C.3        1 MOL1        -0.1415
       9    H6      20.225251   20.308829   24.579632 H          1 MOL1         0.0976
      10    H7      20.818885   20.642086   22.955374 H          1 MOL1         0.0976
      11    C3      19.154941   19.239258   23.027349 C.3        1 MOL1        -0.1375
      12    H8      18.385602   20.022237   23.022550 H          1 MOL1         0.0976
      13    H9      18.787381   18.445203   23.691989 H          1 MOL1         0.0976
      14    C4      19.336114   18.679664   21.593262 C.3        1 MOL1        -0.1375
      15    H10     19.683768   19.479262   20.924681 H          1 MOL1         0.0976
      16    H11     20.123049   17.914003   21.594332 H          1 MOL1         0.0976
      17    C5      18.048966   18.045182   21.012565 C.3        1 MOL1        -0.1350
      18    H12     17.702337   17.237316   21.672110 H          1 MOL1         0.0976
      19    H13     18.292811   17.572657   20.050727 H          1 MOL1         0.0976
      20    C6      16.906080   19.061904   20.790125 C.3        1 MOL1        -0.2365
      21    H14     16.538750   19.471039   21.739300 H          1 MOL1         0.0987
      22    H15     16.056448   18.580542   20.288763 H          1 MOL1         0.0987
      23    H16     17.237647   19.897376   20.159998 H          1 MOL1         0.0987
@<TRIPOS>BOND
    1     1     2    1
    2     1     3    1
    3     1     4    1
    4     1     5    1
    5     5     6    1
    6     5     7    1
    7     5     8    1
    8     8     9    1
    9     8    10    1
   10     8    11    1
   11    11    12    1
   12    11    13    1
   13    11    14    1
   14    14    15    1
   15    14    16    1
   16    14    17    1
   17    17    18    1
   18    17    19    1
   19    17    20    1
   20    20    21    1
   21    20    22    1
   22    20    23    1
@<TRIPOS>SUBSTRUCTURE
       1 MOL1            1 RESIDUE      1      MOL     
@<SCITEGIC>MOL_PROPERTY
VConf Rank
SciTegic.value.IntegerValue
706

@<SCITEGIC>MOL_PROPERTY
Conf_Id
SciTegic.value.IntegerValue
65

@<SCITEGIC>MOL_PROPERTY
Delta U+W
SciTegic.value.DoubleValue
1.004

@<SCITEGIC>MOL_PROPERTY
U+W
SciTegic.value.DoubleValue
-7.378

@<SCITEGIC>MOL_PROPERTY
Grad RMS
SciTegic.value.DoubleValue
0.000000

@<SCITEGIC>MOL_PROPERTY
U
SciTegic.value.DoubleValue
48.047

@<SCITEGIC>MOL_PROPERTY
W
SciTegic.value.DoubleValue
-55.425

@<SCITEGIC>MOL_PROPERTY
W(PB)
SciTegic.value.DoubleValue
-57.542

@<SCITEGIC>MOL_PROPERTY
W(SA)
SciTegic.value.DoubleValue
2.116

@<SCITEGIC>MOL_PROPERTY
Valence
SciTegic.value.DoubleValue
2.583

@<SCITEGIC>MOL_PROPERTY
Coulomb
SciTegic.value.DoubleValue
44.791

@<SCITEGIC>MOL_PROPERTY
VdW
SciTegic.value.DoubleValue
0.673

@<SCITEGIC>MOL_PROPERTY
VdW6
SciTegic.value.DoubleValue
-5.788

@<SCITEGIC>MOL_PROPERTY
VdW12
SciTegic.value.DoubleValue
6.462

@<SCITEGIC>MOL_PROPERTY
Bond
SciTegic.value.DoubleValue
0.177

@<SCITEGIC>MOL_PROPERTY
Angle
SciTegic.value.DoubleValue
0.787

@<SCITEGIC>MOL_PROPERTY
Pdih
SciTegic.value.DoubleValue
1.619

@<SCITEGIC>MOL_PROPERTY
Idih
SciTegic.value.DoubleValue
0.000

@<SCITEGIC>MOL_PROPERTY
Tether
SciTegic.value.DoubleValue
0.000

@<TRIPOS>MOLECULE
guest-2_confgen4.mol2 : confsearch ligand conformer 707
          23          22           1
SMALL
USER_CHARGES
 
@<TRIPOS>ATOM
       1    N1      18.326435   15.895612   21.645005 N.4        1 MOL1        -0.5940
       2    H1      18.705157   15.135895   22.219668 H          1 MOL1         0.3649
       3    H2      18.235066   15.530257   20.690964 H          1 MOL1         0.3649
       4    H3      17.377619   16.085419   21.983466 H          1 MOL1         0.3649
       5    C1      19.201808   17.131400   21.693236 C.3        1 MOL1         0.0207
       6    H4      18.755723   17.883336   21.037400 H          1 MOL1         0.0950
       7    H5      20.184045   16.865015   21.293663 H          1 MOL1         0.0950
       8    C2      19.358786   17.704423   23.114551 C.3        1 MOL1        -0.1415
       9    H6      18.372590   17.973277   23.515949 H          1 MOL1         0.0976
      10    H7      19.763169   16.923335   23.772062 H          1 MOL1         0.0976
      11    C3      20.294304   18.935607   23.165621 C.3        1 MOL1        -0.1375
      12    H8      21.282980   18.660978   22.772595 H          1 MOL1         0.0976
      13    H9      20.442891   19.210334   24.217956 H          1 MOL1         0.0976
      14    C4      19.739803   20.153647   22.383648 C.3        1 MOL1        -0.1375
      15    H10     19.568200   19.870937   21.336684 H          1 MOL1         0.0976
      16    H11     18.760490   20.440724   22.790776 H          1 MOL1         0.0976
      17    C5      20.685186   21.379389   22.401751 C.3        1 MOL1        -0.1350
      18    H12     20.275517   22.149429   21.733109 H          1 MOL1         0.0976
      19    H13     21.663470   21.100722   21.985694 H          1 MOL1         0.0976
      20    C6      20.873375   21.992696   23.808104 C.3        1 MOL1        -0.2365
      21    H14     21.396313   21.303742   24.482740 H          1 MOL1         0.0987
      22    H15     19.906380   22.249650   24.259663 H          1 MOL1         0.0987
      23    H16     21.470583   22.911830   23.749122 H          1 MOL1         0.0987
@<TRIPOS>BOND
    1     1     2    1
    2     1     3    1
    3     1     4    1
    4     1     5    1
    5     5     6    1
    6     5     7    1
    7     5     8    1
    8     8     9    1
    9     8    10    1
   10     8    11    1
   11    11    12    1
   12    11    13    1
   13    11    14    1
   14    14    15    1
   15    14    16    1
   16    14    17    1
   17    17    18    1
   18    17    19    1
   19    17    20    1
   20    20    21    1
   21    20    22    1
   22    20    23    1
@<TRIPOS>SUBSTRUCTURE
       1 MOL1            1 RESIDUE      1      MOL     
@<SCITEGIC>MOL_PROPERTY
VConf Rank
SciTegic.value.IntegerValue
707

@<SCITEGIC>MOL_PROPERTY
Conf_Id
SciTegic.value.IntegerValue
92

@<SCITEGIC>MOL_PROPERTY
Delta U+W
SciTegic.value.DoubleValue
0.973

@<SCITEGIC>MOL_PROPERTY
U+W
SciTegic.value.DoubleValue
-7.409

@<SCITEGIC>MOL_PROPERTY
Grad RMS
SciTegic.value.DoubleValue
0.000000

@<SCITEGIC>MOL_PROPERTY
U
SciTegic.value.DoubleValue
48.047

@<SCITEGIC>MOL_PROPERTY
W
SciTegic.value.DoubleValue
-55.456

@<SCITEGIC>MOL_PROPERTY
W(PB)
SciTegic.value.DoubleValue
-57.595

@<SCITEGIC>MOL_PROPERTY
W(SA)
SciTegic.value.DoubleValue
2.138

@<SCITEGIC>MOL_PROPERTY
Valence
SciTegic.value.DoubleValue
2.583

@<SCITEGIC>MOL_PROPERTY
Coulomb
SciTegic.value.DoubleValue
44.791

@<SCITEGIC>MOL_PROPERTY
VdW
SciTegic.value.DoubleValue
0.674

@<SCITEGIC>MOL_PROPERTY
VdW6
SciTegic.value.DoubleValue
-5.789

@<SCITEGIC>MOL_PROPERTY
VdW12
SciTegic.value.DoubleValue
6.462

@<SCITEGIC>MOL_PROPERTY
Bond
SciTegic.value.DoubleValue
0.177

@<SCITEGIC>MOL_PROPERTY
Angle
SciTegic.value.DoubleValue
0.787

@<SCITEGIC>MOL_PROPERTY
Pdih
SciTegic.value.DoubleValue
1.619

@<SCITEGIC>MOL_PROPERTY
Idih
SciTegic.value.DoubleValue
0.000

@<SCITEGIC>MOL_PROPERTY
Tether
SciTegic.value.DoubleValue
0.000

@<TRIPOS>MOLECULE
guest-2_confgen4.mol2 : confsearch ligand conformer 708
          23          22           1
SMALL
USER_CHARGES
 
@<TRIPOS>ATOM
       1    N1      19.464987   19.240622   26.113629 N.4        1 MOL1        -0.5940
       2    H1      20.196070   18.877732   26.734807 H          1 MOL1         0.3649
       3    H2      18.565186   18.965606   26.520541 H          1 MOL1         0.3649
       4    H3      19.516270   20.263442   26.158914 H          1 MOL1         0.3649
       5    C1      19.624839   18.728528   24.696596 C.3        1 MOL1         0.0207
       6    H4      19.589214   17.636163   24.726381 H          1 MOL1         0.0950
       7    H5      20.612871   19.031159   24.340364 H          1 MOL1         0.0950
       8    C2      18.540412   19.256292   23.738295 C.3        1 MOL1        -0.1415
       9    H6      17.551608   18.984041   24.130842 H          1 MOL1         0.0976
      10    H7      18.575713   20.353513   23.709075 H          1 MOL1         0.0976
      11    C3      18.683664   18.693109   22.304651 C.3        1 MOL1        -0.1375
      12    H8      17.829199   19.035780   21.704720 H          1 MOL1         0.0976
      13    H9      18.622262   17.596290   22.334092 H          1 MOL1         0.0976
      14    C4      19.998077   19.124250   21.610463 C.3        1 MOL1        -0.1375
      15    H10     20.071887   20.220592   21.612280 H          1 MOL1         0.0976
      16    H11     20.861799   18.746167   22.173576 H          1 MOL1         0.0976
      17    C5      20.075723   18.606592   20.156925 C.3        1 MOL1        -0.1350
      18    H12     19.219855   18.986001   19.581165 H          1 MOL1         0.0976
      19    H13     20.001663   17.510037   20.149185 H          1 MOL1         0.0976
      20    C6      21.387546   19.035966   19.466041 C.3        1 MOL1        -0.2365
      21    H14     21.474264   20.129718   19.428458 H          1 MOL1         0.0987
      22    H15     21.424037   18.659652   18.435458 H          1 MOL1         0.0987
      23    H16     22.262252   18.641778   19.999638 H          1 MOL1         0.0987
@<TRIPOS>BOND
    1     1     2    1
    2     1     3    1
    3     1     4    1
    4     1     5    1
    5     5     6    1
    6     5     7    1
    7     5     8    1
    8     8     9    1
    9     8    10    1
   10     8    11    1
   11    11    12    1
   12    11    13    1
   13    11    14    1
   14    14    15    1
   15    14    16    1
   16    14    17    1
   17    17    18    1
   18    17    19    1
   19    17    20    1
   20    20    21    1
   21    20    22    1
   22    20    23    1
@<TRIPOS>SUBSTRUCTURE
       1 MOL1            1 RESIDUE      1      MOL     
@<SCITEGIC>MOL_PROPERTY
VConf Rank
SciTegic.value.IntegerValue
708

@<SCITEGIC>MOL_PROPERTY
Conf_Id
SciTegic.value.IntegerValue
42

@<SCITEGIC>MOL_PROPERTY
Delta U+W
SciTegic.value.DoubleValue
0.365

@<SCITEGIC>MOL_PROPERTY
U+W
SciTegic.value.DoubleValue
-8.017

@<SCITEGIC>MOL_PROPERTY
Grad RMS
SciTegic.value.DoubleValue
0.000000

@<SCITEGIC>MOL_PROPERTY
U
SciTegic.value.DoubleValue
47.375

@<SCITEGIC>MOL_PROPERTY
W
SciTegic.value.DoubleValue
-55.392

@<SCITEGIC>MOL_PROPERTY
W(PB)
SciTegic.value.DoubleValue
-57.543

@<SCITEGIC>MOL_PROPERTY
W(SA)
SciTegic.value.DoubleValue
2.152

@<SCITEGIC>MOL_PROPERTY
Valence
SciTegic.value.DoubleValue
2.032

@<SCITEGIC>MOL_PROPERTY
Coulomb
SciTegic.value.DoubleValue
44.843

@<SCITEGIC>MOL_PROPERTY
VdW
SciTegic.value.DoubleValue
0.499

@<SCITEGIC>MOL_PROPERTY
VdW6
SciTegic.value.DoubleValue
-5.218

@<SCITEGIC>MOL_PROPERTY
VdW12
SciTegic.value.DoubleValue
5.717

@<SCITEGIC>MOL_PROPERTY
Bond
SciTegic.value.DoubleValue
0.135

@<SCITEGIC>MOL_PROPERTY
Angle
SciTegic.value.DoubleValue
0.514

@<SCITEGIC>MOL_PROPERTY
Pdih
SciTegic.value.DoubleValue
1.383

@<SCITEGIC>MOL_PROPERTY
Idih
SciTegic.value.DoubleValue
0.000

@<SCITEGIC>MOL_PROPERTY
Tether
SciTegic.value.DoubleValue
0.000

@<TRIPOS>MOLECULE
guest-2_confgen4.mol2 : confsearch ligand conformer 709
          23          22           1
SMALL
USER_CHARGES
 
@<TRIPOS>ATOM
       1    N1      18.165278   21.105013   20.866722 N.4        1 MOL1        -0.5940
       2    H1      17.278532   20.597995   20.951851 H          1 MOL1         0.3649
       3    H2      18.059308   21.763537   20.087578 H          1 MOL1         0.3649
       4    H3      18.277262   21.664275   21.717656 H          1 MOL1         0.3649
       5    C1      19.334706   20.163654   20.652567 C.3        1 MOL1         0.0207
       6    H4      20.241150   20.765730   20.546331 H          1 MOL1         0.0950
       7    H5      19.164746   19.635434   19.710406 H          1 MOL1         0.0950
       8    C2      19.523846   19.136143   21.785563 C.3        1 MOL1        -0.1415
       9    H6      18.602706   18.551361   21.908768 H          1 MOL1         0.0976
      10    H7      20.308830   18.435791   21.475039 H          1 MOL1         0.0976
      11    C3      19.922838   19.793443   23.129277 C.3        1 MOL1        -0.1375
      12    H8      19.190318   20.569134   23.388217 H          1 MOL1         0.0976
      13    H9      20.885340   20.309926   23.009937 H          1 MOL1         0.0976
      14    C4      20.013017   18.806368   24.322009 C.3        1 MOL1        -0.1375
      15    H10     20.257426   19.393350   25.218224 H          1 MOL1         0.0976
      16    H11     19.027660   18.362437   24.520055 H          1 MOL1         0.0976
      17    C5      21.081833   17.693415   24.169007 C.3        1 MOL1        -0.1350
      18    H12     21.523091   17.493852   25.155637 H          1 MOL1         0.0976
      19    H13     21.908386   18.041549   23.534018 H          1 MOL1         0.0976
      20    C6      20.509251   16.363132   23.626091 C.3        1 MOL1        -0.2365
      21    H14     19.733863   15.968597   24.295549 H          1 MOL1         0.0987
      22    H15     21.300862   15.606314   23.551973 H          1 MOL1         0.0987
      23    H16     20.067008   16.479374   22.630586 H          1 MOL1         0.0987
@<TRIPOS>BOND
    1     1     2    1
    2     1     3    1
    3     1     4    1
    4     1     5    1
    5     5     6    1
    6     5     7    1
    7     5     8    1
    8     8     9    1
    9     8    10    1
   10     8    11    1
   11    11    12    1
   12    11    13    1
   13    11    14    1
   14    14    15    1
   15    14    16    1
   16    14    17    1
   17    17    18    1
   18    17    19    1
   19    17    20    1
   20    20    21    1
   21    20    22    1
   22    20    23    1
@<TRIPOS>SUBSTRUCTURE
       1 MOL1            1 RESIDUE      1      MOL     
@<SCITEGIC>MOL_PROPERTY
VConf Rank
SciTegic.value.IntegerValue
709

@<SCITEGIC>MOL_PROPERTY
Conf_Id
SciTegic.value.IntegerValue
3

@<SCITEGIC>MOL_PROPERTY
Delta U+W
SciTegic.value.DoubleValue
3.283

@<SCITEGIC>MOL_PROPERTY
U+W
SciTegic.value.DoubleValue
-5.099

@<SCITEGIC>MOL_PROPERTY
Grad RMS
SciTegic.value.DoubleValue
0.000000

@<SCITEGIC>MOL_PROPERTY
U
SciTegic.value.DoubleValue
50.701

@<SCITEGIC>MOL_PROPERTY
W
SciTegic.value.DoubleValue
-55.800

@<SCITEGIC>MOL_PROPERTY
W(PB)
SciTegic.value.DoubleValue
-57.867

@<SCITEGIC>MOL_PROPERTY
W(SA)
SciTegic.value.DoubleValue
2.067

@<SCITEGIC>MOL_PROPERTY
Valence
SciTegic.value.DoubleValue
4.880

@<SCITEGIC>MOL_PROPERTY
Coulomb
SciTegic.value.DoubleValue
45.095

@<SCITEGIC>MOL_PROPERTY
VdW
SciTegic.value.DoubleValue
0.726

@<SCITEGIC>MOL_PROPERTY
VdW6
SciTegic.value.DoubleValue
-6.620

@<SCITEGIC>MOL_PROPERTY
VdW12
SciTegic.value.DoubleValue
7.346

@<SCITEGIC>MOL_PROPERTY
Bond
SciTegic.value.DoubleValue
0.222

@<SCITEGIC>MOL_PROPERTY
Angle
SciTegic.value.DoubleValue
1.260

@<SCITEGIC>MOL_PROPERTY
Pdih
SciTegic.value.DoubleValue
3.398

@<SCITEGIC>MOL_PROPERTY
Idih
SciTegic.value.DoubleValue
0.000

@<SCITEGIC>MOL_PROPERTY
Tether
SciTegic.value.DoubleValue
0.000

@<TRIPOS>MOLECULE
guest-2_confgen4.mol2 : confsearch ligand conformer 710
          23          22           1
SMALL
USER_CHARGES
 
@<TRIPOS>ATOM
       1    N1      17.750294   18.083261   20.764843 N.4        1 MOL1        -0.5940
       2    H1      17.776566   17.067784   20.628207 H          1 MOL1         0.3649
       3    H2      16.952035   18.437085   20.226861 H          1 MOL1         0.3649
       4    H3      17.544356   18.250973   21.754319 H          1 MOL1         0.3649
       5    C1      19.049480   18.741764   20.344387 C.3        1 MOL1         0.0207
       6    H4      18.944283   19.820406   20.485645 H          1 MOL1         0.0950
       7    H5      19.187810   18.552590   19.276396 H          1 MOL1         0.0950
       8    C2      20.282408   18.230657   21.117649 C.3        1 MOL1        -0.1415
       9    H6      20.405436   17.156609   20.925066 H          1 MOL1         0.0976
      10    H7      21.179200   18.718139   20.712699 H          1 MOL1         0.0976
      11    C3      20.217388   18.471258   22.647201 C.3        1 MOL1        -0.1375
      12    H8      21.118131   18.035273   23.098259 H          1 MOL1         0.0976
      13    H9      19.366330   17.925627   23.075843 H          1 MOL1         0.0976
      14    C4      20.122944   19.971448   23.025276 C.3        1 MOL1        -0.1375
      15    H10     20.989638   20.510888   22.619056 H          1 MOL1         0.0976
      16    H11     19.235357   20.414287   22.554705 H          1 MOL1         0.0976
      17    C5      20.030750   20.217628   24.550839 C.3        1 MOL1        -0.1350
      18    H12     19.158944   19.689084   24.961108 H          1 MOL1         0.0976
      19    H13     19.850120   21.287793   24.723999 H          1 MOL1         0.0976
      20    C6      21.303423   19.798428   25.321500 C.3        1 MOL1        -0.2365
      21    H14     22.194698   20.288345   24.908442 H          1 MOL1         0.0987
      22    H15     21.458876   18.713186   25.285026 H          1 MOL1         0.0987
      23    H16     21.223494   20.083854   26.378419 H          1 MOL1         0.0987
@<TRIPOS>BOND
    1     1     2    1
    2     1     3    1
    3     1     4    1
    4     1     5    1
    5     5     6    1
    6     5     7    1
    7     5     8    1
    8     8     9    1
    9     8    10    1
   10     8    11    1
   11    11    12    1
   12    11    13    1
   13    11    14    1
   14    14    15    1
   15    14    16    1
   16    14    17    1
   17    17    18    1
   18    17    19    1
   19    17    20    1
   20    20    21    1
   21    20    22    1
   22    20    23    1
@<TRIPOS>SUBSTRUCTURE
       1 MOL1            1 RESIDUE      1      MOL     
@<SCITEGIC>MOL_PROPERTY
VConf Rank
SciTegic.value.IntegerValue
710

@<SCITEGIC>MOL_PROPERTY
Conf_Id
SciTegic.value.IntegerValue
83

@<SCITEGIC>MOL_PROPERTY
Delta U+W
SciTegic.value.DoubleValue
1.229

@<SCITEGIC>MOL_PROPERTY
U+W
SciTegic.value.DoubleValue
-7.154

@<SCITEGIC>MOL_PROPERTY
Grad RMS
SciTegic.value.DoubleValue
0.000000

@<SCITEGIC>MOL_PROPERTY
U
SciTegic.value.DoubleValue
48.727

@<SCITEGIC>MOL_PROPERTY
W
SciTegic.value.DoubleValue
-55.880

@<SCITEGIC>MOL_PROPERTY
W(PB)
SciTegic.value.DoubleValue
-57.960

@<SCITEGIC>MOL_PROPERTY
W(SA)
SciTegic.value.DoubleValue
2.080

@<SCITEGIC>MOL_PROPERTY
Valence
SciTegic.value.DoubleValue
2.671

@<SCITEGIC>MOL_PROPERTY
Coulomb
SciTegic.value.DoubleValue
45.371

@<SCITEGIC>MOL_PROPERTY
VdW
SciTegic.value.DoubleValue
0.684

@<SCITEGIC>MOL_PROPERTY
VdW6
SciTegic.value.DoubleValue
-6.511

@<SCITEGIC>MOL_PROPERTY
VdW12
SciTegic.value.DoubleValue
7.195

@<SCITEGIC>MOL_PROPERTY
Bond
SciTegic.value.DoubleValue
0.203

@<SCITEGIC>MOL_PROPERTY
Angle
SciTegic.value.DoubleValue
0.915

@<SCITEGIC>MOL_PROPERTY
Pdih
SciTegic.value.DoubleValue
1.554

@<SCITEGIC>MOL_PROPERTY
Idih
SciTegic.value.DoubleValue
0.000

@<SCITEGIC>MOL_PROPERTY
Tether
SciTegic.value.DoubleValue
0.000

@<TRIPOS>MOLECULE
guest-2_confgen4.mol2 : confsearch ligand conformer 711
          23          22           1
SMALL
USER_CHARGES
 
@<TRIPOS>ATOM
       1    N1      20.625056   16.883767   24.316424 N.4        1 MOL1        -0.5940
       2    H1      21.629547   16.917927   24.517383 H          1 MOL1         0.3649
       3    H2      20.522304   16.740806   23.307164 H          1 MOL1         0.3649
       4    H3      20.255721   16.045945   24.778465 H          1 MOL1         0.3649
       5    C1      19.915328   18.141190   24.778449 C.3        1 MOL1         0.0207
       6    H4      20.036109   18.211887   25.862856 H          1 MOL1         0.0950
       7    H5      18.849722   18.027526   24.563841 H          1 MOL1         0.0950
       8    C2      20.446929   19.430834   24.120045 C.3        1 MOL1        -0.1415
       9    H6      19.917024   20.290655   24.551054 H          1 MOL1         0.0976
      10    H7      21.504402   19.558919   24.386781 H          1 MOL1         0.0976
      11    C3      20.301674   19.462787   22.577473 C.3        1 MOL1        -0.1375
      12    H8      20.890189   18.651195   22.129460 H          1 MOL1         0.0976
      13    H9      20.745457   20.398554   22.213780 H          1 MOL1         0.0976
      14    C4      18.829707   19.368145   22.101251 C.3        1 MOL1        -0.1375
      15    H10     18.377594   18.444137   22.484861 H          1 MOL1         0.0976
      16    H11     18.248424   20.196966   22.528259 H          1 MOL1         0.0976
      17    C5      18.679254   19.372495   20.560540 C.3        1 MOL1        -0.1350
      18    H12     17.625720   19.185491   20.309625 H          1 MOL1         0.0976
      19    H13     19.250127   18.538730   20.128490 H          1 MOL1         0.0976
      20    C6      19.117905   20.700127   19.901509 C.3        1 MOL1        -0.2365
      21    H14     18.584887   21.553770   20.339907 H          1 MOL1         0.0987
      22    H15     18.899513   20.685114   18.825863 H          1 MOL1         0.0987
      23    H16     20.195347   20.871348   20.015726 H          1 MOL1         0.0987
@<TRIPOS>BOND
    1     1     2    1
    2     1     3    1
    3     1     4    1
    4     1     5    1
    5     5     6    1
    6     5     7    1
    7     5     8    1
    8     8     9    1
    9     8    10    1
   10     8    11    1
   11    11    12    1
   12    11    13    1
   13    11    14    1
   14    14    15    1
   15    14    16    1
   16    14    17    1
   17    17    18    1
   18    17    19    1
   19    17    20    1
   20    20    21    1
   21    20    22    1
   22    20    23    1
@<TRIPOS>SUBSTRUCTURE
       1 MOL1            1 RESIDUE      1      MOL     
@<SCITEGIC>MOL_PROPERTY
VConf Rank
SciTegic.value.IntegerValue
711

@<SCITEGIC>MOL_PROPERTY
Conf_Id
SciTegic.value.IntegerValue
50

@<SCITEGIC>MOL_PROPERTY
Delta U+W
SciTegic.value.DoubleValue
1.252

@<SCITEGIC>MOL_PROPERTY
U+W
SciTegic.value.DoubleValue
-7.130

@<SCITEGIC>MOL_PROPERTY
Grad RMS
SciTegic.value.DoubleValue
0.000000

@<SCITEGIC>MOL_PROPERTY
U
SciTegic.value.DoubleValue
48.727

@<SCITEGIC>MOL_PROPERTY
W
SciTegic.value.DoubleValue
-55.857

@<SCITEGIC>MOL_PROPERTY
W(PB)
SciTegic.value.DoubleValue
-57.937

@<SCITEGIC>MOL_PROPERTY
W(SA)
SciTegic.value.DoubleValue
2.080

@<SCITEGIC>MOL_PROPERTY
Valence
SciTegic.value.DoubleValue
2.671

@<SCITEGIC>MOL_PROPERTY
Coulomb
SciTegic.value.DoubleValue
45.371

@<SCITEGIC>MOL_PROPERTY
VdW
SciTegic.value.DoubleValue
0.684

@<SCITEGIC>MOL_PROPERTY
VdW6
SciTegic.value.DoubleValue
-6.511

@<SCITEGIC>MOL_PROPERTY
VdW12
SciTegic.value.DoubleValue
7.196

@<SCITEGIC>MOL_PROPERTY
Bond
SciTegic.value.DoubleValue
0.203

@<SCITEGIC>MOL_PROPERTY
Angle
SciTegic.value.DoubleValue
0.915

@<SCITEGIC>MOL_PROPERTY
Pdih
SciTegic.value.DoubleValue
1.554

@<SCITEGIC>MOL_PROPERTY
Idih
SciTegic.value.DoubleValue
0.000

@<SCITEGIC>MOL_PROPERTY
Tether
SciTegic.value.DoubleValue
0.000

@<TRIPOS>MOLECULE
guest-2_confgen4.mol2 : confsearch ligand conformer 712
          23          22           1
SMALL
USER_CHARGES
 
@<TRIPOS>ATOM
       1    N1      17.730487   16.815898   23.565126 N.4        1 MOL1        -0.5940
       2    H1      17.231336   17.683812   23.782167 H          1 MOL1         0.3649
       3    H2      17.473186   16.133928   24.286681 H          1 MOL1         0.3649
       4    H3      17.357824   16.465799   22.676770 H          1 MOL1         0.3649
       5    C1      19.230329   17.029815   23.502246 C.3        1 MOL1         0.0207
       6    H4      19.695527   16.059345   23.308983 H          1 MOL1         0.0950
       7    H5      19.564846   17.378347   24.483080 H          1 MOL1         0.0950
       8    C2      19.671219   18.032218   22.418011 C.3        1 MOL1        -0.1415
       9    H6      20.766242   18.034280   22.378229 H          1 MOL1         0.0976
      10    H7      19.328574   17.680535   21.435829 H          1 MOL1         0.0976
      11    C3      19.140878   19.465243   22.678500 C.3        1 MOL1        -0.1375
      12    H8      19.398208   19.789233   23.696423 H          1 MOL1         0.0976
      13    H9      18.043816   19.444574   22.633601 H          1 MOL1         0.0976
      14    C4      19.647305   20.505875   21.645679 C.3        1 MOL1        -0.1375
      15    H10     19.834957   20.022306   20.677102 H          1 MOL1         0.0976
      16    H11     18.839646   21.228376   21.463543 H          1 MOL1         0.0976
      17    C5      20.896715   21.307470   22.092476 C.3        1 MOL1        -0.1350
      18    H12     20.665805   21.869027   23.008504 H          1 MOL1         0.0976
      19    H13     21.121339   22.059871   21.323547 H          1 MOL1         0.0976
      20    C6      22.157050   20.445606   22.324371 C.3        1 MOL1        -0.2365
      21    H14     22.381296   19.826981   21.445820 H          1 MOL1         0.0987
      22    H15     22.036046   19.788291   23.194181 H          1 MOL1         0.0987
      23    H16     23.028604   21.084815   22.515928 H          1 MOL1         0.0987
@<TRIPOS>BOND
    1     1     2    1
    2     1     3    1
    3     1     4    1
    4     1     5    1
    5     5     6    1
    6     5     7    1
    7     5     8    1
    8     8     9    1
    9     8    10    1
   10     8    11    1
   11    11    12    1
   12    11    13    1
   13    11    14    1
   14    14    15    1
   15    14    16    1
   16    14    17    1
   17    17    18    1
   18    17    19    1
   19    17    20    1
   20    20    21    1
   21    20    22    1
   22    20    23    1
@<TRIPOS>SUBSTRUCTURE
       1 MOL1            1 RESIDUE      1      MOL     
@<SCITEGIC>MOL_PROPERTY
VConf Rank
SciTegic.value.IntegerValue
712

@<SCITEGIC>MOL_PROPERTY
Conf_Id
SciTegic.value.IntegerValue
55

@<SCITEGIC>MOL_PROPERTY
Delta U+W
SciTegic.value.DoubleValue
3.232

@<SCITEGIC>MOL_PROPERTY
U+W
SciTegic.value.DoubleValue
-5.150

@<SCITEGIC>MOL_PROPERTY
Grad RMS
SciTegic.value.DoubleValue
0.000000

@<SCITEGIC>MOL_PROPERTY
U
SciTegic.value.DoubleValue
50.625

@<SCITEGIC>MOL_PROPERTY
W
SciTegic.value.DoubleValue
-55.776

@<SCITEGIC>MOL_PROPERTY
W(PB)
SciTegic.value.DoubleValue
-57.839

@<SCITEGIC>MOL_PROPERTY
W(SA)
SciTegic.value.DoubleValue
2.064

@<SCITEGIC>MOL_PROPERTY
Valence
SciTegic.value.DoubleValue
4.837

@<SCITEGIC>MOL_PROPERTY
Coulomb
SciTegic.value.DoubleValue
45.097

@<SCITEGIC>MOL_PROPERTY
VdW
SciTegic.value.DoubleValue
0.692

@<SCITEGIC>MOL_PROPERTY
VdW6
SciTegic.value.DoubleValue
-6.655

@<SCITEGIC>MOL_PROPERTY
VdW12
SciTegic.value.DoubleValue
7.347

@<SCITEGIC>MOL_PROPERTY
Bond
SciTegic.value.DoubleValue
0.223

@<SCITEGIC>MOL_PROPERTY
Angle
SciTegic.value.DoubleValue
1.167

@<SCITEGIC>MOL_PROPERTY
Pdih
SciTegic.value.DoubleValue
3.447

@<SCITEGIC>MOL_PROPERTY
Idih
SciTegic.value.DoubleValue
0.000

@<SCITEGIC>MOL_PROPERTY
Tether
SciTegic.value.DoubleValue
0.000

@<TRIPOS>MOLECULE
guest-2_confgen4.mol2 : confsearch ligand conformer 713
          23          22           1
SMALL
USER_CHARGES
 
@<TRIPOS>ATOM
       1    N1      16.784814   19.513484   23.073670 N.4        1 MOL1        -0.5940
       2    H1      16.283026   19.106503   23.869537 H          1 MOL1         0.3649
       3    H2      16.129605   19.528037   22.284691 H          1 MOL1         0.3649
       4    H3      16.986288   20.489899   23.311951 H          1 MOL1         0.3649
       5    C1      18.045268   18.739662   22.744882 C.3        1 MOL1         0.0207
       6    H4      18.504004   19.205578   21.870912 H          1 MOL1         0.0950
       7    H5      17.753343   17.721384   22.474159 H          1 MOL1         0.0950
       8    C2      19.047037   18.694565   23.915442 C.3        1 MOL1        -0.1415
       9    H6      19.314186   19.712381   24.229360 H          1 MOL1         0.0976
      10    H7      18.546556   18.226820   24.773784 H          1 MOL1         0.0976
      11    C3      20.327034   17.884016   23.589734 C.3        1 MOL1        -0.1375
      12    H8      20.072557   17.009738   22.974525 H          1 MOL1         0.0976
      13    H9      20.723544   17.479105   24.531183 H          1 MOL1         0.0976
      14    C4      21.462964   18.697379   22.916254 C.3        1 MOL1        -0.1375
      15    H10     21.780838   19.507086   23.587538 H          1 MOL1         0.0976
      16    H11     22.334067   18.037386   22.802104 H          1 MOL1         0.0976
      17    C5      21.099520   19.289582   21.535057 C.3        1 MOL1        -0.1350
      18    H12     20.335065   20.068631   21.651701 H          1 MOL1         0.0976
      19    H13     20.672458   18.506549   20.893064 H          1 MOL1         0.0976
      20    C6      22.330882   19.907274   20.838720 C.3        1 MOL1        -0.2365
      21    H14     23.108169   19.151479   20.666054 H          1 MOL1         0.0987
      22    H15     22.765278   20.711974   21.446180 H          1 MOL1         0.0987
      23    H16     22.053133   20.332278   19.865448 H          1 MOL1         0.0987
@<TRIPOS>BOND
    1     1     2    1
    2     1     3    1
    3     1     4    1
    4     1     5    1
    5     5     6    1
    6     5     7    1
    7     5     8    1
    8     8     9    1
    9     8    10    1
   10     8    11    1
   11    11    12    1
   12    11    13    1
   13    11    14    1
   14    14    15    1
   15    14    16    1
   16    14    17    1
   17    17    18    1
   18    17    19    1
   19    17    20    1
   20    20    21    1
   21    20    22    1
   22    20    23    1
@<TRIPOS>SUBSTRUCTURE
       1 MOL1            1 RESIDUE      1      MOL     
@<SCITEGIC>MOL_PROPERTY
VConf Rank
SciTegic.value.IntegerValue
713

@<SCITEGIC>MOL_PROPERTY
Conf_Id
SciTegic.value.IntegerValue
93

@<SCITEGIC>MOL_PROPERTY
Delta U+W
SciTegic.value.DoubleValue
2.589

@<SCITEGIC>MOL_PROPERTY
U+W
SciTegic.value.DoubleValue
-5.793

@<SCITEGIC>MOL_PROPERTY
Grad RMS
SciTegic.value.DoubleValue
0.000000

@<SCITEGIC>MOL_PROPERTY
U
SciTegic.value.DoubleValue
50.122

@<SCITEGIC>MOL_PROPERTY
W
SciTegic.value.DoubleValue
-55.915

@<SCITEGIC>MOL_PROPERTY
W(PB)
SciTegic.value.DoubleValue
-58.031

@<SCITEGIC>MOL_PROPERTY
W(SA)
SciTegic.value.DoubleValue
2.115

@<SCITEGIC>MOL_PROPERTY
Valence
SciTegic.value.DoubleValue
4.132

@<SCITEGIC>MOL_PROPERTY
Coulomb
SciTegic.value.DoubleValue
45.536

@<SCITEGIC>MOL_PROPERTY
VdW
SciTegic.value.DoubleValue
0.454

@<SCITEGIC>MOL_PROPERTY
VdW6
SciTegic.value.DoubleValue
-6.262

@<SCITEGIC>MOL_PROPERTY
VdW12
SciTegic.value.DoubleValue
6.715

@<SCITEGIC>MOL_PROPERTY
Bond
SciTegic.value.DoubleValue
0.182

@<SCITEGIC>MOL_PROPERTY
Angle
SciTegic.value.DoubleValue
1.157

@<SCITEGIC>MOL_PROPERTY
Pdih
SciTegic.value.DoubleValue
2.794

@<SCITEGIC>MOL_PROPERTY
Idih
SciTegic.value.DoubleValue
0.000

@<SCITEGIC>MOL_PROPERTY
Tether
SciTegic.value.DoubleValue
0.000

@<TRIPOS>MOLECULE
guest-2_confgen4.mol2 : confsearch ligand conformer 714
          23          22           1
SMALL
USER_CHARGES
 
@<TRIPOS>ATOM
       1    N1      17.981187   20.493797   20.470857 N.4        1 MOL1        -0.5940
       2    H1      18.679386   20.270348   19.754376 H          1 MOL1         0.3649
       3    H2      17.899962   21.515837   20.499763 H          1 MOL1         0.3649
       4    H3      17.081363   20.133216   20.137500 H          1 MOL1         0.3649
       5    C1      18.354046   19.919940   21.822638 C.3        1 MOL1         0.0207
       6    H4      17.584547   20.220268   22.538929 H          1 MOL1         0.0950
       7    H5      19.298632   20.373486   22.128240 H          1 MOL1         0.0950
       8    C2      18.476486   18.383490   21.811809 C.3        1 MOL1        -0.1415
       9    H6      17.511196   17.967457   21.493767 H          1 MOL1         0.0976
      10    H7      19.213455   18.064029   21.063021 H          1 MOL1         0.0976
      11    C3      18.834972   17.792075   23.198597 C.3        1 MOL1        -0.1375
      12    H8      18.430110   16.771792   23.249667 H          1 MOL1         0.0976
      13    H9      18.322729   18.354632   23.991528 H          1 MOL1         0.0976
      14    C4      20.353785   17.707310   23.501078 C.3        1 MOL1        -0.1375
      15    H10     20.481209   17.210303   24.472771 H          1 MOL1         0.0976
      16    H11     20.838610   17.056202   22.760609 H          1 MOL1         0.0976
      17    C5      21.080391   19.071568   23.537794 C.3        1 MOL1        -0.1350
      18    H12     20.535297   19.768169   24.189943 H          1 MOL1         0.0976
      19    H13     21.098938   19.512471   22.532719 H          1 MOL1         0.0976
      20    C6      22.532764   18.929567   24.040915 C.3        1 MOL1        -0.2365
      21    H14     23.036778   19.904713   24.050246 H          1 MOL1         0.0987
      22    H15     23.110793   18.257703   23.393047 H          1 MOL1         0.0987
      23    H16     22.560062   18.527228   25.061989 H          1 MOL1         0.0987
@<TRIPOS>BOND
    1     1     2    1
    2     1     3    1
    3     1     4    1
    4     1     5    1
    5     5     6    1
    6     5     7    1
    7     5     8    1
    8     8     9    1
    9     8    10    1
   10     8    11    1
   11    11    12    1
   12    11    13    1
   13    11    14    1
   14    14    15    1
   15    14    16    1
   16    14    17    1
   17    17    18    1
   18    17    19    1
   19    17    20    1
   20    20    21    1
   21    20    22    1
   22    20    23    1
@<TRIPOS>SUBSTRUCTURE
       1 MOL1            1 RESIDUE      1      MOL     
@<SCITEGIC>MOL_PROPERTY
VConf Rank
SciTegic.value.IntegerValue
714

@<SCITEGIC>MOL_PROPERTY
Conf_Id
SciTegic.value.IntegerValue
70

@<SCITEGIC>MOL_PROPERTY
Delta U+W
SciTegic.value.DoubleValue
2.599

@<SCITEGIC>MOL_PROPERTY
U+W
SciTegic.value.DoubleValue
-5.783

@<SCITEGIC>MOL_PROPERTY
Grad RMS
SciTegic.value.DoubleValue
0.000000

@<SCITEGIC>MOL_PROPERTY
U
SciTegic.value.DoubleValue
50.122

@<SCITEGIC>MOL_PROPERTY
W
SciTegic.value.DoubleValue
-55.906

@<SCITEGIC>MOL_PROPERTY
W(PB)
SciTegic.value.DoubleValue
-58.010

@<SCITEGIC>MOL_PROPERTY
W(SA)
SciTegic.value.DoubleValue
2.105

@<SCITEGIC>MOL_PROPERTY
Valence
SciTegic.value.DoubleValue
4.132

@<SCITEGIC>MOL_PROPERTY
Coulomb
SciTegic.value.DoubleValue
45.536

@<SCITEGIC>MOL_PROPERTY
VdW
SciTegic.value.DoubleValue
0.454

@<SCITEGIC>MOL_PROPERTY
VdW6
SciTegic.value.DoubleValue
-6.262

@<SCITEGIC>MOL_PROPERTY
VdW12
SciTegic.value.DoubleValue
6.715

@<SCITEGIC>MOL_PROPERTY
Bond
SciTegic.value.DoubleValue
0.182

@<SCITEGIC>MOL_PROPERTY
Angle
SciTegic.value.DoubleValue
1.157

@<SCITEGIC>MOL_PROPERTY
Pdih
SciTegic.value.DoubleValue
2.794

@<SCITEGIC>MOL_PROPERTY
Idih
SciTegic.value.DoubleValue
0.000

@<SCITEGIC>MOL_PROPERTY
Tether
SciTegic.value.DoubleValue
0.000

@<TRIPOS>MOLECULE
guest-2_confgen4.mol2 : confsearch ligand conformer 715
          23          22           1
SMALL
USER_CHARGES
 
@<TRIPOS>ATOM
       1    N1      19.606474   20.110844   25.189115 N.4        1 MOL1        -0.5940
       2    H1      19.007275   20.905920   25.432673 H          1 MOL1         0.3649
       3    H2      20.237374   19.957313   25.982939 H          1 MOL1         0.3649
       4    H3      19.002442   19.286294   25.120344 H          1 MOL1         0.3649
       5    C1      20.369059   20.354532   23.901748 C.3        1 MOL1         0.0207
       6    H4      21.010560   19.488741   23.717821 H          1 MOL1         0.0950
       7    H5      21.010912   21.226378   24.054738 H          1 MOL1         0.0950
       8    C2      19.458881   20.596309   22.680723 C.3        1 MOL1        -0.1415
       9    H6      18.844175   21.487889   22.862207 H          1 MOL1         0.0976
      10    H7      20.086480   20.837819   21.813424 H          1 MOL1         0.0976
      11    C3      18.532634   19.399751   22.338202 C.3        1 MOL1        -0.1375
      12    H8      17.954710   19.646279   21.436851 H          1 MOL1         0.0976
      13    H9      17.792264   19.274086   23.139634 H          1 MOL1         0.0976
      14    C4      19.263963   18.050354   22.116653 C.3        1 MOL1        -0.1375
      15    H10     19.771224   17.740385   23.039961 H          1 MOL1         0.0976
      16    H11     18.510086   17.277639   21.911912 H          1 MOL1         0.0976
      17    C5      20.279543   18.082123   20.950257 C.3        1 MOL1        -0.1350
      18    H12     21.082935   18.798779   21.166833 H          1 MOL1         0.0976
      19    H13     19.781463   18.428736   20.034022 H          1 MOL1         0.0976
      20    C6      20.902502   16.692286   20.699939 C.3        1 MOL1        -0.2365
      21    H14     21.621784   16.733395   19.871714 H          1 MOL1         0.0987
      22    H15     20.131915   15.954804   20.440116 H          1 MOL1         0.0987
      23    H16     21.434161   16.332103   21.590339 H          1 MOL1         0.0987
@<TRIPOS>BOND
    1     1     2    1
    2     1     3    1
    3     1     4    1
    4     1     5    1
    5     5     6    1
    6     5     7    1
    7     5     8    1
    8     8     9    1
    9     8    10    1
   10     8    11    1
   11    11    12    1
   12    11    13    1
   13    11    14    1
   14    14    15    1
   15    14    16    1
   16    14    17    1
   17    17    18    1
   18    17    19    1
   19    17    20    1
   20    20    21    1
   21    20    22    1
   22    20    23    1
@<TRIPOS>SUBSTRUCTURE
       1 MOL1            1 RESIDUE      1      MOL     
@<SCITEGIC>MOL_PROPERTY
VConf Rank
SciTegic.value.IntegerValue
715

@<SCITEGIC>MOL_PROPERTY
Conf_Id
SciTegic.value.IntegerValue
72

@<SCITEGIC>MOL_PROPERTY
Delta U+W
SciTegic.value.DoubleValue
1.051

@<SCITEGIC>MOL_PROPERTY
U+W
SciTegic.value.DoubleValue
-7.331

@<SCITEGIC>MOL_PROPERTY
Grad RMS
SciTegic.value.DoubleValue
0.000000

@<SCITEGIC>MOL_PROPERTY
U
SciTegic.value.DoubleValue
48.590

@<SCITEGIC>MOL_PROPERTY
W
SciTegic.value.DoubleValue
-55.922

@<SCITEGIC>MOL_PROPERTY
W(PB)
SciTegic.value.DoubleValue
-58.012

@<SCITEGIC>MOL_PROPERTY
W(SA)
SciTegic.value.DoubleValue
2.090

@<SCITEGIC>MOL_PROPERTY
Valence
SciTegic.value.DoubleValue
2.601

@<SCITEGIC>MOL_PROPERTY
Coulomb
SciTegic.value.DoubleValue
45.520

@<SCITEGIC>MOL_PROPERTY
VdW
SciTegic.value.DoubleValue
0.469

@<SCITEGIC>MOL_PROPERTY
VdW6
SciTegic.value.DoubleValue
-6.867

@<SCITEGIC>MOL_PROPERTY
VdW12
SciTegic.value.DoubleValue
7.336

@<SCITEGIC>MOL_PROPERTY
Bond
SciTegic.value.DoubleValue
0.205

@<SCITEGIC>MOL_PROPERTY
Angle
SciTegic.value.DoubleValue
0.962

@<SCITEGIC>MOL_PROPERTY
Pdih
SciTegic.value.DoubleValue
1.434

@<SCITEGIC>MOL_PROPERTY
Idih
SciTegic.value.DoubleValue
0.000

@<SCITEGIC>MOL_PROPERTY
Tether
SciTegic.value.DoubleValue
0.000

@<TRIPOS>MOLECULE
guest-2_confgen4.mol2 : confsearch ligand conformer 716
          23          22           1
SMALL
USER_CHARGES
 
@<TRIPOS>ATOM
       1    N1      18.169247   21.047938   24.339411 N.4        1 MOL1        -0.5940
       2    H1      18.507475   21.862578   24.862785 H          1 MOL1         0.3649
       3    H2      17.377582   20.664050   24.865415 H          1 MOL1         0.3649
       4    H3      17.799116   21.397749   23.449862 H          1 MOL1         0.3649
       5    C1      19.261867   20.018947   24.132054 C.3        1 MOL1         0.0207
       6    H4      19.628593   19.712418   25.115366 H          1 MOL1         0.0950
       7    H5      20.081467   20.502905   23.594490 H          1 MOL1         0.0950
       8    C2      18.785686   18.781773   23.348174 C.3        1 MOL1        -0.1415
       9    H6      17.938668   18.325333   23.877279 H          1 MOL1         0.0976
      10    H7      18.405293   19.089718   22.365879 H          1 MOL1         0.0976
      11    C3      19.898835   17.718663   23.175665 C.3        1 MOL1        -0.1375
      12    H8      19.490838   16.856789   22.631001 H          1 MOL1         0.0976
      13    H9      20.180382   17.335998   24.166428 H          1 MOL1         0.0976
      14    C4      21.179325   18.226426   22.459228 C.3        1 MOL1        -0.1375
      15    H10     21.677070   18.975852   23.089239 H          1 MOL1         0.0976
      16    H11     21.889342   17.391953   22.377383 H          1 MOL1         0.0976
      17    C5      20.951320   18.828477   21.049345 C.3        1 MOL1        -0.1350
      18    H12     21.919385   19.162337   20.650499 H          1 MOL1         0.0976
      19    H13     20.327635   19.729858   21.117515 H          1 MOL1         0.0976
      20    C6      20.319865   17.831125   20.051814 C.3        1 MOL1        -0.2365
      21    H14     20.920323   16.915316   19.976427 H          1 MOL1         0.0987
      22    H15     20.258339   18.275821   19.050164 H          1 MOL1         0.0987
      23    H16     19.302513   17.551318   20.352250 H          1 MOL1         0.0987
@<TRIPOS>BOND
    1     1     2    1
    2     1     3    1
    3     1     4    1
    4     1     5    1
    5     5     6    1
    6     5     7    1
    7     5     8    1
    8     8     9    1
    9     8    10    1
   10     8    11    1
   11    11    12    1
   12    11    13    1
   13    11    14    1
   14    14    15    1
   15    14    16    1
   16    14    17    1
   17    17    18    1
   18    17    19    1
   19    17    20    1
   20    20    21    1
   21    20    22    1
   22    20    23    1
@<TRIPOS>SUBSTRUCTURE
       1 MOL1            1 RESIDUE      1      MOL     
@<SCITEGIC>MOL_PROPERTY
VConf Rank
SciTegic.value.IntegerValue
716

@<SCITEGIC>MOL_PROPERTY
Conf_Id
SciTegic.value.IntegerValue
26

@<SCITEGIC>MOL_PROPERTY
Delta U+W
SciTegic.value.DoubleValue
1.076

@<SCITEGIC>MOL_PROPERTY
U+W
SciTegic.value.DoubleValue
-7.306

@<SCITEGIC>MOL_PROPERTY
Grad RMS
SciTegic.value.DoubleValue
0.000000

@<SCITEGIC>MOL_PROPERTY
U
SciTegic.value.DoubleValue
48.641

@<SCITEGIC>MOL_PROPERTY
W
SciTegic.value.DoubleValue
-55.947

@<SCITEGIC>MOL_PROPERTY
W(PB)
SciTegic.value.DoubleValue
-58.031

@<SCITEGIC>MOL_PROPERTY
W(SA)
SciTegic.value.DoubleValue
2.084

@<SCITEGIC>MOL_PROPERTY
Valence
SciTegic.value.DoubleValue
2.922

@<SCITEGIC>MOL_PROPERTY
Coulomb
SciTegic.value.DoubleValue
45.269

@<SCITEGIC>MOL_PROPERTY
VdW
SciTegic.value.DoubleValue
0.449

@<SCITEGIC>MOL_PROPERTY
VdW6
SciTegic.value.DoubleValue
-7.045

@<SCITEGIC>MOL_PROPERTY
VdW12
SciTegic.value.DoubleValue
7.494

@<SCITEGIC>MOL_PROPERTY
Bond
SciTegic.value.DoubleValue
0.220

@<SCITEGIC>MOL_PROPERTY
Angle
SciTegic.value.DoubleValue
1.205

@<SCITEGIC>MOL_PROPERTY
Pdih
SciTegic.value.DoubleValue
1.497

@<SCITEGIC>MOL_PROPERTY
Idih
SciTegic.value.DoubleValue
0.000

@<SCITEGIC>MOL_PROPERTY
Tether
SciTegic.value.DoubleValue
0.000

@<TRIPOS>MOLECULE
guest-2_confgen4.mol2 : confsearch ligand conformer 717
          23          22           1
SMALL
USER_CHARGES
 
@<TRIPOS>ATOM
       1    N1      17.588855   17.587682   24.316034 N.4        1 MOL1        -0.5940
       2    H1      16.632251   17.901484   24.123107 H          1 MOL1         0.3649
       3    H2      17.606740   17.268849   25.290705 H          1 MOL1         0.3649
       4    H3      17.760228   16.764458   23.729863 H          1 MOL1         0.3649
       5    C1      18.604484   18.683306   24.063569 C.3        1 MOL1         0.0207
       6    H4      19.592525   18.290412   24.317226 H          1 MOL1         0.0950
       7    H5      18.380583   19.513869   24.738390 H          1 MOL1         0.0950
       8    C2      18.603119   19.184425   22.607307 C.3        1 MOL1        -0.1415
       9    H6      18.814904   18.348842   21.928057 H          1 MOL1         0.0976
      10    H7      17.596977   19.542076   22.351391 H          1 MOL1         0.0976
      11    C3      19.616872   20.330944   22.368855 C.3        1 MOL1        -0.1375
      12    H8      19.315901   21.200937   22.968722 H          1 MOL1         0.0976
      13    H9      19.550898   20.656599   21.322171 H          1 MOL1         0.0976
      14    C4      21.090041   19.979717   22.711157 C.3        1 MOL1        -0.1375
      15    H10     21.718929   20.853166   22.490351 H          1 MOL1         0.0976
      16    H11     21.183992   19.815160   23.793005 H          1 MOL1         0.0976
      17    C5      21.664898   18.748788   21.965116 C.3        1 MOL1        -0.1350
      18    H12     21.117310   17.840997   22.251791 H          1 MOL1         0.0976
      19    H13     22.701134   18.591626   22.295580 H          1 MOL1         0.0976
      20    C6      21.651338   18.902741   20.427380 C.3        1 MOL1        -0.2365
      21    H14     20.627277   18.953450   20.037139 H          1 MOL1         0.0987
      22    H15     22.144829   18.045990   19.950637 H          1 MOL1         0.0987
      23    H16     22.182892   19.811749   20.117386 H          1 MOL1         0.0987
@<TRIPOS>BOND
    1     1     2    1
    2     1     3    1
    3     1     4    1
    4     1     5    1
    5     5     6    1
    6     5     7    1
    7     5     8    1
    8     8     9    1
    9     8    10    1
   10     8    11    1
   11    11    12    1
   12    11    13    1
   13    11    14    1
   14    14    15    1
   15    14    16    1
   16    14    17    1
   17    17    18    1
   18    17    19    1
   19    17    20    1
   20    20    21    1
   21    20    22    1
   22    20    23    1
@<TRIPOS>SUBSTRUCTURE
       1 MOL1            1 RESIDUE      1      MOL     
@<SCITEGIC>MOL_PROPERTY
VConf Rank
SciTegic.value.IntegerValue
717

@<SCITEGIC>MOL_PROPERTY
Conf_Id
SciTegic.value.IntegerValue
90

@<SCITEGIC>MOL_PROPERTY
Delta U+W
SciTegic.value.DoubleValue
1.131

@<SCITEGIC>MOL_PROPERTY
U+W
SciTegic.value.DoubleValue
-7.251

@<SCITEGIC>MOL_PROPERTY
Grad RMS
SciTegic.value.DoubleValue
0.000000

@<SCITEGIC>MOL_PROPERTY
U
SciTegic.value.DoubleValue
48.641

@<SCITEGIC>MOL_PROPERTY
W
SciTegic.value.DoubleValue
-55.892

@<SCITEGIC>MOL_PROPERTY
W(PB)
SciTegic.value.DoubleValue
-57.962

@<SCITEGIC>MOL_PROPERTY
W(SA)
SciTegic.value.DoubleValue
2.070

@<SCITEGIC>MOL_PROPERTY
Valence
SciTegic.value.DoubleValue
2.922

@<SCITEGIC>MOL_PROPERTY
Coulomb
SciTegic.value.DoubleValue
45.269

@<SCITEGIC>MOL_PROPERTY
VdW
SciTegic.value.DoubleValue
0.450

@<SCITEGIC>MOL_PROPERTY
VdW6
SciTegic.value.DoubleValue
-7.045

@<SCITEGIC>MOL_PROPERTY
VdW12
SciTegic.value.DoubleValue
7.495

@<SCITEGIC>MOL_PROPERTY
Bond
SciTegic.value.DoubleValue
0.220

@<SCITEGIC>MOL_PROPERTY
Angle
SciTegic.value.DoubleValue
1.205

@<SCITEGIC>MOL_PROPERTY
Pdih
SciTegic.value.DoubleValue
1.497

@<SCITEGIC>MOL_PROPERTY
Idih
SciTegic.value.DoubleValue
0.000

@<SCITEGIC>MOL_PROPERTY
Tether
SciTegic.value.DoubleValue
0.000

@<TRIPOS>MOLECULE
guest-2_confgen4.mol2 : confsearch ligand conformer 718
          23          22           1
SMALL
USER_CHARGES
 
@<TRIPOS>ATOM
       1    N1      19.873410   21.242083   21.281314 N.4        1 MOL1        -0.5940
       2    H1      19.939294   21.538860   20.301807 H          1 MOL1         0.3649
       3    H2      20.665884   20.618143   21.461052 H          1 MOL1         0.3649
       4    H3      20.009011   22.079059   21.857210 H          1 MOL1         0.3649
       5    C1      18.550025   20.563986   21.576667 C.3        1 MOL1         0.0207
       6    H4      18.454811   19.702206   20.911094 H          1 MOL1         0.0950
       7    H5      17.752045   21.270466   21.332471 H          1 MOL1         0.0950
       8    C2      18.400152   20.109597   23.042941 C.3        1 MOL1        -0.1415
       9    H6      18.450082   20.988822   23.698883 H          1 MOL1         0.0976
      10    H7      17.397204   19.683560   23.178704 H          1 MOL1         0.0976
      11    C3      19.460758   19.073560   23.492744 C.3        1 MOL1        -0.1375
      12    H8      19.281757   18.825080   24.547887 H          1 MOL1         0.0976
      13    H9      20.458180   19.529073   23.450791 H          1 MOL1         0.0976
      14    C4      19.431853   17.771831   22.652423 C.3        1 MOL1        -0.1375
      15    H10     18.406209   17.378020   22.637110 H          1 MOL1         0.0976
      16    H11     19.695877   17.988438   21.608726 H          1 MOL1         0.0976
      17    C5      20.373394   16.670018   23.195470 C.3        1 MOL1        -0.1350
      18    H12     20.214877   15.751828   22.612688 H          1 MOL1         0.0976
      19    H13     20.102062   16.426303   24.232177 H          1 MOL1         0.0976
      20    C6      21.869403   17.052374   23.125500 C.3        1 MOL1        -0.2365
      21    H14     22.159822   17.326172   22.102940 H          1 MOL1         0.0987
      22    H15     22.496549   16.207049   23.437028 H          1 MOL1         0.0987
      23    H16     22.101585   17.895876   23.787320 H          1 MOL1         0.0987
@<TRIPOS>BOND
    1     1     2    1
    2     1     3    1
    3     1     4    1
    4     1     5    1
    5     5     6    1
    6     5     7    1
    7     5     8    1
    8     8     9    1
    9     8    10    1
   10     8    11    1
   11    11    12    1
   12    11    13    1
   13    11    14    1
   14    14    15    1
   15    14    16    1
   16    14    17    1
   17    17    18    1
   18    17    19    1
   19    17    20    1
   20    20    21    1
   21    20    22    1
   22    20    23    1
@<TRIPOS>SUBSTRUCTURE
       1 MOL1            1 RESIDUE      1      MOL     
@<SCITEGIC>MOL_PROPERTY
VConf Rank
SciTegic.value.IntegerValue
718

@<SCITEGIC>MOL_PROPERTY
Conf_Id
SciTegic.value.IntegerValue
85

@<SCITEGIC>MOL_PROPERTY
Delta U+W
SciTegic.value.DoubleValue
1.193

@<SCITEGIC>MOL_PROPERTY
U+W
SciTegic.value.DoubleValue
-7.189

@<SCITEGIC>MOL_PROPERTY
Grad RMS
SciTegic.value.DoubleValue
0.000000

@<SCITEGIC>MOL_PROPERTY
U
SciTegic.value.DoubleValue
48.775

@<SCITEGIC>MOL_PROPERTY
W
SciTegic.value.DoubleValue
-55.965

@<SCITEGIC>MOL_PROPERTY
W(PB)
SciTegic.value.DoubleValue
-58.038

@<SCITEGIC>MOL_PROPERTY
W(SA)
SciTegic.value.DoubleValue
2.073

@<SCITEGIC>MOL_PROPERTY
Valence
SciTegic.value.DoubleValue
2.602

@<SCITEGIC>MOL_PROPERTY
Coulomb
SciTegic.value.DoubleValue
45.581

@<SCITEGIC>MOL_PROPERTY
VdW
SciTegic.value.DoubleValue
0.592

@<SCITEGIC>MOL_PROPERTY
VdW6
SciTegic.value.DoubleValue
-6.616

@<SCITEGIC>MOL_PROPERTY
VdW12
SciTegic.value.DoubleValue
7.208

@<SCITEGIC>MOL_PROPERTY
Bond
SciTegic.value.DoubleValue
0.196

@<SCITEGIC>MOL_PROPERTY
Angle
SciTegic.value.DoubleValue
0.832

@<SCITEGIC>MOL_PROPERTY
Pdih
SciTegic.value.DoubleValue
1.574

@<SCITEGIC>MOL_PROPERTY
Idih
SciTegic.value.DoubleValue
0.000

@<SCITEGIC>MOL_PROPERTY
Tether
SciTegic.value.DoubleValue
0.000

@<TRIPOS>MOLECULE
guest-2_confgen4.mol2 : confsearch ligand conformer 719
          23          22           1
SMALL
USER_CHARGES
 
@<TRIPOS>ATOM
       1    N1      18.182815   17.553333   22.663422 N.4        1 MOL1        -0.5940
       2    H1      19.172697   17.567478   22.929139 H          1 MOL1         0.3649
       3    H2      18.008831   16.669614   22.172429 H          1 MOL1         0.3649
       4    H3      17.633972   17.527123   23.528927 H          1 MOL1         0.3649
       5    C1      17.823873   18.752838   21.807845 C.3        1 MOL1         0.0207
       6    H4      16.760414   18.667537   21.568493 H          1 MOL1         0.0950
       7    H5      18.387440   18.697407   20.872725 H          1 MOL1         0.0950
       8    C2      18.078125   20.110839   22.493342 C.3        1 MOL1        -0.1415
       9    H6      17.444718   20.858529   21.997769 H          1 MOL1         0.0976
      10    H7      17.733161   20.070973   23.535112 H          1 MOL1         0.0976
      11    C3      19.544142   20.618244   22.434665 C.3        1 MOL1        -0.1375
      12    H8      19.567310   21.610304   22.906669 H          1 MOL1         0.0976
      13    H9      19.842265   20.783500   21.390021 H          1 MOL1         0.0976
      14    C4      20.585539   19.721316   23.151794 C.3        1 MOL1        -0.1375
      15    H10     21.343338   20.368567   23.614984 H          1 MOL1         0.0976
      16    H11     20.112356   19.180212   23.981872 H          1 MOL1         0.0976
      17    C5      21.314188   18.747708   22.193536 C.3        1 MOL1        -0.1350
      18    H12     21.913634   19.326278   21.476560 H          1 MOL1         0.0976
      19    H13     20.598170   18.173277   21.593849 H          1 MOL1         0.0976
      20    C6      22.237959   17.777451   22.959745 C.3        1 MOL1        -0.2365
      21    H14     23.000443   18.326084   23.528065 H          1 MOL1         0.0987
      22    H15     22.756900   17.105600   22.263688 H          1 MOL1         0.0987
      23    H16     21.668515   17.157626   23.664243 H          1 MOL1         0.0987
@<TRIPOS>BOND
    1     1     2    1
    2     1     3    1
    3     1     4    1
    4     1     5    1
    5     5     6    1
    6     5     7    1
    7     5     8    1
    8     8     9    1
    9     8    10    1
   10     8    11    1
   11    11    12    1
   12    11    13    1
   13    11    14    1
   14    14    15    1
   15    14    16    1
   16    14    17    1
   17    17    18    1
   18    17    19    1
   19    17    20    1
   20    20    21    1
   21    20    22    1
   22    20    23    1
@<TRIPOS>SUBSTRUCTURE
       1 MOL1            1 RESIDUE      1      MOL     
@<SCITEGIC>MOL_PROPERTY
VConf Rank
SciTegic.value.IntegerValue
719

@<SCITEGIC>MOL_PROPERTY
Conf_Id
SciTegic.value.IntegerValue
82

@<SCITEGIC>MOL_PROPERTY
Delta U+W
SciTegic.value.DoubleValue
5.994

@<SCITEGIC>MOL_PROPERTY
U+W
SciTegic.value.DoubleValue
-2.388

@<SCITEGIC>MOL_PROPERTY
Grad RMS
SciTegic.value.DoubleValue
0.000000

@<SCITEGIC>MOL_PROPERTY
U
SciTegic.value.DoubleValue
52.836

@<SCITEGIC>MOL_PROPERTY
W
SciTegic.value.DoubleValue
-55.224

@<SCITEGIC>MOL_PROPERTY
W(PB)
SciTegic.value.DoubleValue
-57.261

@<SCITEGIC>MOL_PROPERTY
W(SA)
SciTegic.value.DoubleValue
2.037

@<SCITEGIC>MOL_PROPERTY
Valence
SciTegic.value.DoubleValue
5.785

@<SCITEGIC>MOL_PROPERTY
Coulomb
SciTegic.value.DoubleValue
46.744

@<SCITEGIC>MOL_PROPERTY
VdW
SciTegic.value.DoubleValue
0.307

@<SCITEGIC>MOL_PROPERTY
VdW6
SciTegic.value.DoubleValue
-7.672

@<SCITEGIC>MOL_PROPERTY
VdW12
SciTegic.value.DoubleValue
7.979

@<SCITEGIC>MOL_PROPERTY
Bond
SciTegic.value.DoubleValue
0.217

@<SCITEGIC>MOL_PROPERTY
Angle
SciTegic.value.DoubleValue
1.470

@<SCITEGIC>MOL_PROPERTY
Pdih
SciTegic.value.DoubleValue
4.098

@<SCITEGIC>MOL_PROPERTY
Idih
SciTegic.value.DoubleValue
0.000

@<SCITEGIC>MOL_PROPERTY
Tether
SciTegic.value.DoubleValue
0.000

@<TRIPOS>MOLECULE
guest-2_confgen4.mol2 : confsearch ligand conformer 720
          23          22           1
SMALL
USER_CHARGES
 
@<TRIPOS>ATOM
       1    N1      20.192991   20.808369   21.634248 N.4        1 MOL1        -0.5940
       2    H1      20.268159   20.812439   20.611826 H          1 MOL1         0.3649
       3    H2      20.004883   21.774312   21.923853 H          1 MOL1         0.3649
       4    H3      19.369739   20.248574   21.878297 H          1 MOL1         0.3649
       5    C1      21.446962   20.259122   22.286582 C.3        1 MOL1         0.0207
       6    H4      21.340463   20.337536   23.371772 H          1 MOL1         0.0950
       7    H5      22.275103   20.903683   21.979606 H          1 MOL1         0.0950
       8    C2      21.771000   18.802813   21.895584 C.3        1 MOL1        -0.1415
       9    H6      21.622867   18.666730   20.816042 H          1 MOL1         0.0976
      10    H7      22.842525   18.640377   22.072467 H          1 MOL1         0.0976
      11    C3      20.990810   17.716208   22.683433 C.3        1 MOL1        -0.1375
      12    H8      21.245268   17.771736   23.750972 H          1 MOL1         0.0976
      13    H9      21.358559   16.737629   22.344835 H          1 MOL1         0.0976
      14    C4      19.451730   17.740276   22.499267 C.3        1 MOL1        -0.1375
      15    H10     19.194321   18.144774   21.511418 H          1 MOL1         0.0976
      16    H11     19.084152   16.704600   22.499272 H          1 MOL1         0.0976
      17    C5      18.714999   18.505628   23.625573 C.3        1 MOL1        -0.1350
      18    H12     19.142631   19.504934   23.769797 H          1 MOL1         0.0976
      19    H13     18.858299   17.975093   24.577483 H          1 MOL1         0.0976
      20    C6      17.203965   18.629887   23.337192 C.3        1 MOL1        -0.2365
      21    H14     17.019795   19.184441   22.408043 H          1 MOL1         0.0987
      22    H15     16.696329   19.161394   24.152658 H          1 MOL1         0.0987
      23    H16     16.738891   17.640031   23.240963 H          1 MOL1         0.0987
@<TRIPOS>BOND
    1     1     2    1
    2     1     3    1
    3     1     4    1
    4     1     5    1
    5     5     6    1
    6     5     7    1
    7     5     8    1
    8     8     9    1
    9     8    10    1
   10     8    11    1
   11    11    12    1
   12    11    13    1
   13    11    14    1
   14    14    15    1
   15    14    16    1
   16    14    17    1
   17    17    18    1
   18    17    19    1
   19    17    20    1
   20    20    21    1
   21    20    22    1
   22    20    23    1
@<TRIPOS>SUBSTRUCTURE
       1 MOL1            1 RESIDUE      1      MOL     
@<SCITEGIC>MOL_PROPERTY
VConf Rank
SciTegic.value.IntegerValue
720

@<SCITEGIC>MOL_PROPERTY
Conf_Id
SciTegic.value.IntegerValue
5

@<SCITEGIC>MOL_PROPERTY
Delta U+W
SciTegic.value.DoubleValue
6.087

@<SCITEGIC>MOL_PROPERTY
U+W
SciTegic.value.DoubleValue
-2.295

@<SCITEGIC>MOL_PROPERTY
Grad RMS
SciTegic.value.DoubleValue
0.000000

@<SCITEGIC>MOL_PROPERTY
U
SciTegic.value.DoubleValue
52.836

@<SCITEGIC>MOL_PROPERTY
W
SciTegic.value.DoubleValue
-55.131

@<SCITEGIC>MOL_PROPERTY
W(PB)
SciTegic.value.DoubleValue
-57.202

@<SCITEGIC>MOL_PROPERTY
W(SA)
SciTegic.value.DoubleValue
2.071

@<SCITEGIC>MOL_PROPERTY
Valence
SciTegic.value.DoubleValue
5.785

@<SCITEGIC>MOL_PROPERTY
Coulomb
SciTegic.value.DoubleValue
46.744

@<SCITEGIC>MOL_PROPERTY
VdW
SciTegic.value.DoubleValue
0.307

@<SCITEGIC>MOL_PROPERTY
VdW6
SciTegic.value.DoubleValue
-7.672

@<SCITEGIC>MOL_PROPERTY
VdW12
SciTegic.value.DoubleValue
7.980

@<SCITEGIC>MOL_PROPERTY
Bond
SciTegic.value.DoubleValue
0.217

@<SCITEGIC>MOL_PROPERTY
Angle
SciTegic.value.DoubleValue
1.470

@<SCITEGIC>MOL_PROPERTY
Pdih
SciTegic.value.DoubleValue
4.098

@<SCITEGIC>MOL_PROPERTY
Idih
SciTegic.value.DoubleValue
0.000

@<SCITEGIC>MOL_PROPERTY
Tether
SciTegic.value.DoubleValue
0.000

@<TRIPOS>MOLECULE
guest-2_confgen4.mol2 : confsearch ligand conformer 721
          23          22           1
SMALL
USER_CHARGES
 
@<TRIPOS>ATOM
       1    N1      16.022818   18.482707   23.261276 N.4        1 MOL1        -0.5940
       2    H1      16.133027   17.948900   24.129486 H          1 MOL1         0.3649
       3    H2      15.187410   18.117705   22.791211 H          1 MOL1         0.3649
       4    H3      15.815865   19.450979   23.526800 H          1 MOL1         0.3649
       5    C1      17.251320   18.388247   22.379370 C.3        1 MOL1         0.0207
       6    H4      17.053724   18.952412   21.463854 H          1 MOL1         0.0950
       7    H5      17.394594   17.337875   22.111626 H          1 MOL1         0.0950
       8    C2      18.523499   18.928451   23.056361 C.3        1 MOL1        -0.1415
       9    H6      18.369189   19.978661   23.338050 H          1 MOL1         0.0976
      10    H7      18.708788   18.369883   23.983598 H          1 MOL1         0.0976
      11    C3      19.751246   18.814242   22.125890 C.3        1 MOL1        -0.1375
      12    H8      19.559821   19.369906   21.197237 H          1 MOL1         0.0976
      13    H9      19.899075   17.762843   21.842147 H          1 MOL1         0.0976
      14    C4      21.035135   19.354196   22.796026 C.3        1 MOL1        -0.1375
      15    H10     20.887533   20.405516   23.079667 H          1 MOL1         0.0976
      16    H11     21.226690   18.798683   23.724586 H          1 MOL1         0.0976
      17    C5      22.262839   19.239738   21.865218 C.3        1 MOL1        -0.1350
      18    H12     22.077068   19.795988   20.935676 H          1 MOL1         0.0976
      19    H13     22.416200   18.189301   21.580552 H          1 MOL1         0.0976
      20    C6      23.542870   19.779855   22.537752 C.3        1 MOL1        -0.2365
      21    H14     24.403249   19.690213   21.861914 H          1 MOL1         0.0987
      22    H15     23.774081   19.220046   23.453385 H          1 MOL1         0.0987
      23    H16     23.432290   20.839280   22.803498 H          1 MOL1         0.0987
@<TRIPOS>BOND
    1     1     2    1
    2     1     3    1
    3     1     4    1
    4     1     5    1
    5     5     6    1
    6     5     7    1
    7     5     8    1
    8     8     9    1
    9     8    10    1
   10     8    11    1
   11    11    12    1
   12    11    13    1
   13    11    14    1
   14    14    15    1
   15    14    16    1
   16    14    17    1
   17    17    18    1
   18    17    19    1
   19    17    20    1
   20    20    21    1
   21    20    22    1
   22    20    23    1
@<TRIPOS>SUBSTRUCTURE
       1 MOL1            1 RESIDUE      1      MOL     
@<SCITEGIC>MOL_PROPERTY
VConf Rank
SciTegic.value.IntegerValue
721

@<SCITEGIC>MOL_PROPERTY
Conf_Id
SciTegic.value.IntegerValue
40

@<SCITEGIC>MOL_PROPERTY
Delta U+W
SciTegic.value.DoubleValue
0.000

@<SCITEGIC>MOL_PROPERTY
U+W
SciTegic.value.DoubleValue
-8.382

@<SCITEGIC>MOL_PROPERTY
Grad RMS
SciTegic.value.DoubleValue
0.000000

@<SCITEGIC>MOL_PROPERTY
U
SciTegic.value.DoubleValue
46.604

@<SCITEGIC>MOL_PROPERTY
W
SciTegic.value.DoubleValue
-54.986

@<SCITEGIC>MOL_PROPERTY
W(PB)
SciTegic.value.DoubleValue
-57.162

@<SCITEGIC>MOL_PROPERTY
W(SA)
SciTegic.value.DoubleValue
2.176

@<SCITEGIC>MOL_PROPERTY
Valence
SciTegic.value.DoubleValue
1.727

@<SCITEGIC>MOL_PROPERTY
Coulomb
SciTegic.value.DoubleValue
44.434

@<SCITEGIC>MOL_PROPERTY
VdW
SciTegic.value.DoubleValue
0.443

@<SCITEGIC>MOL_PROPERTY
VdW6
SciTegic.value.DoubleValue
-4.623

@<SCITEGIC>MOL_PROPERTY
VdW12
SciTegic.value.DoubleValue
5.066

@<SCITEGIC>MOL_PROPERTY
Bond
SciTegic.value.DoubleValue
0.112

@<SCITEGIC>MOL_PROPERTY
Angle
SciTegic.value.DoubleValue
0.386

@<SCITEGIC>MOL_PROPERTY
Pdih
SciTegic.value.DoubleValue
1.228

@<SCITEGIC>MOL_PROPERTY
Idih
SciTegic.value.DoubleValue
0.000

@<SCITEGIC>MOL_PROPERTY
Tether
SciTegic.value.DoubleValue
0.000

@<TRIPOS>MOLECULE
guest-2_confgen4.mol2 : confsearch ligand conformer 722
          23          22           1
SMALL
USER_CHARGES
 
@<TRIPOS>ATOM
       1    N1      20.960390   16.740754   25.091203 N.4        1 MOL1        -0.5940
       2    H1      21.300453   15.880236   24.649948 H          1 MOL1         0.3649
       3    H2      20.050688   16.524855   25.511517 H          1 MOL1         0.3649
       4    H3      21.602124   16.953622   25.862497 H          1 MOL1         0.3649
       5    C1      20.869175   17.885262   24.102484 C.3        1 MOL1         0.0207
       6    H4      21.873828   18.079277   23.717205 H          1 MOL1         0.0950
       7    H5      20.531957   18.771290   24.646319 H          1 MOL1         0.0950
       8    C2      19.912041   17.595412   22.930727 C.3        1 MOL1        -0.1415
       9    H6      20.235933   16.676756   22.423664 H          1 MOL1         0.0976
      10    H7      18.902490   17.401648   23.317048 H          1 MOL1         0.0976
      11    C3      19.861635   18.746195   21.897877 C.3        1 MOL1        -0.1375
      12    H8      19.252714   18.416481   21.046135 H          1 MOL1         0.0976
      13    H9      20.871391   18.931234   21.506054 H          1 MOL1         0.0976
      14    C4      19.276372   20.058979   22.478084 C.3        1 MOL1        -0.1375
      15    H10     18.258755   19.878060   22.850835 H          1 MOL1         0.0976
      16    H11     19.871309   20.374805   23.345154 H          1 MOL1         0.0976
      17    C5      19.253040   21.225456   21.460581 C.3        1 MOL1        -0.1350
      18    H12     20.270361   21.417916   21.092050 H          1 MOL1         0.0976
      19    H13     18.937239   22.140251   21.981440 H          1 MOL1         0.0976
      20    C6      18.303743   20.982485   20.265093 C.3        1 MOL1        -0.2365
      21    H14     18.649030   20.151955   19.637196 H          1 MOL1         0.0987
      22    H15     18.251114   21.875688   19.629196 H          1 MOL1         0.0987
      23    H16     17.286214   20.755058   20.608491 H          1 MOL1         0.0987
@<TRIPOS>BOND
    1     1     2    1
    2     1     3    1
    3     1     4    1
    4     1     5    1
    5     5     6    1
    6     5     7    1
    7     5     8    1
    8     8     9    1
    9     8    10    1
   10     8    11    1
   11    11    12    1
   12    11    13    1
   13    11    14    1
   14    14    15    1
   15    14    16    1
   16    14    17    1
   17    17    18    1
   18    17    19    1
   19    17    20    1
   20    20    21    1
   21    20    22    1
   22    20    23    1
@<TRIPOS>SUBSTRUCTURE
       1 MOL1            1 RESIDUE      1      MOL     
@<SCITEGIC>MOL_PROPERTY
VConf Rank
SciTegic.value.IntegerValue
722

@<SCITEGIC>MOL_PROPERTY
Conf_Id
SciTegic.value.IntegerValue
65

@<SCITEGIC>MOL_PROPERTY
Delta U+W
SciTegic.value.DoubleValue
1.004

@<SCITEGIC>MOL_PROPERTY
U+W
SciTegic.value.DoubleValue
-7.378

@<SCITEGIC>MOL_PROPERTY
Grad RMS
SciTegic.value.DoubleValue
0.000000

@<SCITEGIC>MOL_PROPERTY
U
SciTegic.value.DoubleValue
48.047

@<SCITEGIC>MOL_PROPERTY
W
SciTegic.value.DoubleValue
-55.425

@<SCITEGIC>MOL_PROPERTY
W(PB)
SciTegic.value.DoubleValue
-57.542

@<SCITEGIC>MOL_PROPERTY
W(SA)
SciTegic.value.DoubleValue
2.116

@<SCITEGIC>MOL_PROPERTY
Valence
SciTegic.value.DoubleValue
2.583

@<SCITEGIC>MOL_PROPERTY
Coulomb
SciTegic.value.DoubleValue
44.791

@<SCITEGIC>MOL_PROPERTY
VdW
SciTegic.value.DoubleValue
0.673

@<SCITEGIC>MOL_PROPERTY
VdW6
SciTegic.value.DoubleValue
-5.788

@<SCITEGIC>MOL_PROPERTY
VdW12
SciTegic.value.DoubleValue
6.462

@<SCITEGIC>MOL_PROPERTY
Bond
SciTegic.value.DoubleValue
0.177

@<SCITEGIC>MOL_PROPERTY
Angle
SciTegic.value.DoubleValue
0.787

@<SCITEGIC>MOL_PROPERTY
Pdih
SciTegic.value.DoubleValue
1.619

@<SCITEGIC>MOL_PROPERTY
Idih
SciTegic.value.DoubleValue
0.000

@<SCITEGIC>MOL_PROPERTY
Tether
SciTegic.value.DoubleValue
0.000

@<TRIPOS>MOLECULE
guest-2_confgen4.mol2 : confsearch ligand conformer 723
          23          22           1
SMALL
USER_CHARGES
 
@<TRIPOS>ATOM
       1    N1      18.191637   19.410747   25.796018 N.4        1 MOL1        -0.5940
       2    H1      18.897338   19.491936   26.535093 H          1 MOL1         0.3649
       3    H2      17.426269   18.843473   26.176072 H          1 MOL1         0.3649
       4    H3      17.814494   20.350217   25.634789 H          1 MOL1         0.3649
       5    C1      18.765318   18.806805   24.530349 C.3        1 MOL1         0.0207
       6    H4      17.954475   18.722529   23.802371 H          1 MOL1         0.0950
       7    H5      19.121022   17.800552   24.767711 H          1 MOL1         0.0950
       8    C2      19.918378   19.636759   23.934730 C.3        1 MOL1        -0.1415
       9    H6      19.561358   20.647233   23.695014 H          1 MOL1         0.0976
      10    H7      20.703926   19.752953   24.693254 H          1 MOL1         0.0976
      11    C3      20.533982   18.989423   22.671558 C.3        1 MOL1        -0.1375
      12    H8      20.899113   17.982508   22.916856 H          1 MOL1         0.0976
      13    H9      21.413816   19.576961   22.378887 H          1 MOL1         0.0976
      14    C4      19.541997   18.911621   21.483077 C.3        1 MOL1        -0.1375
      15    H10     18.651285   18.344777   21.784449 H          1 MOL1         0.0976
      16    H11     19.193236   19.921027   21.224842 H          1 MOL1         0.0976
      17    C5      20.139507   18.235028   20.225411 C.3        1 MOL1        -0.1350
      18    H12     19.342466   18.115265   19.478247 H          1 MOL1         0.0976
      19    H13     20.480613   17.220652   20.475387 H          1 MOL1         0.0976
      20    C6      21.300608   19.032376   19.588647 C.3        1 MOL1        -0.2365
      21    H14     22.174218   19.072433   20.250809 H          1 MOL1         0.0987
      22    H15     20.994313   20.061310   19.359542 H          1 MOL1         0.0987
      23    H16     21.620520   18.561068   18.650314 H          1 MOL1         0.0987
@<TRIPOS>BOND
    1     1     2    1
    2     1     3    1
    3     1     4    1
    4     1     5    1
    5     5     6    1
    6     5     7    1
    7     5     8    1
    8     8     9    1
    9     8    10    1
   10     8    11    1
   11    11    12    1
   12    11    13    1
   13    11    14    1
   14    14    15    1
   15    14    16    1
   16    14    17    1
   17    17    18    1
   18    17    19    1
   19    17    20    1
   20    20    21    1
   21    20    22    1
   22    20    23    1
@<TRIPOS>SUBSTRUCTURE
       1 MOL1            1 RESIDUE      1      MOL     
@<SCITEGIC>MOL_PROPERTY
VConf Rank
SciTegic.value.IntegerValue
723

@<SCITEGIC>MOL_PROPERTY
Conf_Id
SciTegic.value.IntegerValue
92

@<SCITEGIC>MOL_PROPERTY
Delta U+W
SciTegic.value.DoubleValue
0.973

@<SCITEGIC>MOL_PROPERTY
U+W
SciTegic.value.DoubleValue
-7.409

@<SCITEGIC>MOL_PROPERTY
Grad RMS
SciTegic.value.DoubleValue
0.000000

@<SCITEGIC>MOL_PROPERTY
U
SciTegic.value.DoubleValue
48.047

@<SCITEGIC>MOL_PROPERTY
W
SciTegic.value.DoubleValue
-55.456

@<SCITEGIC>MOL_PROPERTY
W(PB)
SciTegic.value.DoubleValue
-57.595

@<SCITEGIC>MOL_PROPERTY
W(SA)
SciTegic.value.DoubleValue
2.138

@<SCITEGIC>MOL_PROPERTY
Valence
SciTegic.value.DoubleValue
2.583

@<SCITEGIC>MOL_PROPERTY
Coulomb
SciTegic.value.DoubleValue
44.791

@<SCITEGIC>MOL_PROPERTY
VdW
SciTegic.value.DoubleValue
0.674

@<SCITEGIC>MOL_PROPERTY
VdW6
SciTegic.value.DoubleValue
-5.789

@<SCITEGIC>MOL_PROPERTY
VdW12
SciTegic.value.DoubleValue
6.462

@<SCITEGIC>MOL_PROPERTY
Bond
SciTegic.value.DoubleValue
0.177

@<SCITEGIC>MOL_PROPERTY
Angle
SciTegic.value.DoubleValue
0.787

@<SCITEGIC>MOL_PROPERTY
Pdih
SciTegic.value.DoubleValue
1.619

@<SCITEGIC>MOL_PROPERTY
Idih
SciTegic.value.DoubleValue
0.000

@<SCITEGIC>MOL_PROPERTY
Tether
SciTegic.value.DoubleValue
0.000

@<TRIPOS>MOLECULE
guest-2_confgen4.mol2 : confsearch ligand conformer 724
          23          22           1
SMALL
USER_CHARGES
 
@<TRIPOS>ATOM
       1    N1      22.440696   18.793871   20.321950 N.4        1 MOL1        -0.5940
       2    H1      23.065483   19.593817   20.174435 H          1 MOL1         0.3649
       3    H2      22.229217   18.406795   19.396584 H          1 MOL1         0.3649
       4    H3      22.979517   18.084646   20.829406 H          1 MOL1         0.3649
       5    C1      21.183975   19.191267   21.069281 C.3        1 MOL1         0.0207
       6    H4      20.676756   19.966450   20.488557 H          1 MOL1         0.0950
       7    H5      21.485882   19.621280   22.027736 H          1 MOL1         0.0950
       8    C2      20.223999   18.010153   21.306500 C.3        1 MOL1        -0.1415
       9    H6      19.963880   17.559619   20.339389 H          1 MOL1         0.0976
      10    H7      20.733795   17.231238   21.889076 H          1 MOL1         0.0976
      11    C3      18.923231   18.432556   22.029418 C.3        1 MOL1        -0.1375
      12    H8      18.251216   17.564681   22.080814 H          1 MOL1         0.0976
      13    H9      18.402374   19.193426   21.431561 H          1 MOL1         0.0976
      14    C4      19.169570   18.970512   23.459587 C.3        1 MOL1        -0.1375
      15    H10     19.719574   18.220316   24.044495 H          1 MOL1         0.0976
      16    H11     19.800752   19.868327   23.419664 H          1 MOL1         0.0976
      17    C5      17.846299   19.313825   24.179214 C.3        1 MOL1        -0.1350
      18    H12     17.209488   18.419625   24.232502 H          1 MOL1         0.0976
      19    H13     17.291548   20.063649   23.597843 H          1 MOL1         0.0976
      20    C6      18.093203   19.851508   25.604871 C.3        1 MOL1        -0.2365
      21    H14     18.617454   19.109616   26.221299 H          1 MOL1         0.0987
      22    H15     17.142488   20.089070   26.099594 H          1 MOL1         0.0987
      23    H16     18.698997   20.766781   25.582321 H          1 MOL1         0.0987
@<TRIPOS>BOND
    1     1     2    1
    2     1     3    1
    3     1     4    1
    4     1     5    1
    5     5     6    1
    6     5     7    1
    7     5     8    1
    8     8     9    1
    9     8    10    1
   10     8    11    1
   11    11    12    1
   12    11    13    1
   13    11    14    1
   14    14    15    1
   15    14    16    1
   16    14    17    1
   17    17    18    1
   18    17    19    1
   19    17    20    1
   20    20    21    1
   21    20    22    1
   22    20    23    1
@<TRIPOS>SUBSTRUCTURE
       1 MOL1            1 RESIDUE      1      MOL     
@<SCITEGIC>MOL_PROPERTY
VConf Rank
SciTegic.value.IntegerValue
724

@<SCITEGIC>MOL_PROPERTY
Conf_Id
SciTegic.value.IntegerValue
42

@<SCITEGIC>MOL_PROPERTY
Delta U+W
SciTegic.value.DoubleValue
0.365

@<SCITEGIC>MOL_PROPERTY
U+W
SciTegic.value.DoubleValue
-8.017

@<SCITEGIC>MOL_PROPERTY
Grad RMS
SciTegic.value.DoubleValue
0.000000

@<SCITEGIC>MOL_PROPERTY
U
SciTegic.value.DoubleValue
47.375

@<SCITEGIC>MOL_PROPERTY
W
SciTegic.value.DoubleValue
-55.392

@<SCITEGIC>MOL_PROPERTY
W(PB)
SciTegic.value.DoubleValue
-57.543

@<SCITEGIC>MOL_PROPERTY
W(SA)
SciTegic.value.DoubleValue
2.152

@<SCITEGIC>MOL_PROPERTY
Valence
SciTegic.value.DoubleValue
2.032

@<SCITEGIC>MOL_PROPERTY
Coulomb
SciTegic.value.DoubleValue
44.843

@<SCITEGIC>MOL_PROPERTY
VdW
SciTegic.value.DoubleValue
0.499

@<SCITEGIC>MOL_PROPERTY
VdW6
SciTegic.value.DoubleValue
-5.218

@<SCITEGIC>MOL_PROPERTY
VdW12
SciTegic.value.DoubleValue
5.717

@<SCITEGIC>MOL_PROPERTY
Bond
SciTegic.value.DoubleValue
0.135

@<SCITEGIC>MOL_PROPERTY
Angle
SciTegic.value.DoubleValue
0.514

@<SCITEGIC>MOL_PROPERTY
Pdih
SciTegic.value.DoubleValue
1.383

@<SCITEGIC>MOL_PROPERTY
Idih
SciTegic.value.DoubleValue
0.000

@<SCITEGIC>MOL_PROPERTY
Tether
SciTegic.value.DoubleValue
0.000

@<TRIPOS>MOLECULE
guest-2_confgen4.mol2 : confsearch ligand conformer 725
          23          22           1
SMALL
USER_CHARGES
 
@<TRIPOS>ATOM
       1    N1      16.992964   17.938766   23.784841 N.4        1 MOL1        -0.5940
       2    H1      16.818241   17.327277   22.980983 H          1 MOL1         0.3649
       3    H2      16.100321   18.045664   24.278511 H          1 MOL1         0.3649
       4    H3      17.625086   17.436705   24.415521 H          1 MOL1         0.3649
       5    C1      17.565241   19.277579   23.360975 C.3        1 MOL1         0.0207
       6    H4      17.704933   19.887212   24.257777 H          1 MOL1         0.0950
       7    H5      16.821194   19.768904   22.728073 H          1 MOL1         0.0950
       8    C2      18.897087   19.171511   22.592751 C.3        1 MOL1        -0.1415
       9    H6      18.761043   18.536275   21.707529 H          1 MOL1         0.0976
      10    H7      19.155851   20.174122   22.230905 H          1 MOL1         0.0976
      11    C3      20.051575   18.626734   23.468638 C.3        1 MOL1        -0.1375
      12    H8      19.750956   17.670039   23.915510 H          1 MOL1         0.0976
      13    H9      20.227054   19.314065   24.307798 H          1 MOL1         0.0976
      14    C4      21.381303   18.398277   22.703988 C.3        1 MOL1        -0.1375
      15    H10     22.102279   17.972863   23.415820 H          1 MOL1         0.0976
      16    H11     21.244377   17.631296   21.929252 H          1 MOL1         0.0976
      17    C5      22.008548   19.676045   22.088917 C.3        1 MOL1        -0.1350
      18    H12     23.102382   19.600511   22.165029 H          1 MOL1         0.0976
      19    H13     21.726027   20.561296   22.675527 H          1 MOL1         0.0976
      20    C6      21.648358   19.880267   20.598677 C.3        1 MOL1        -0.2365
      21    H14     21.995069   19.033213   19.992583 H          1 MOL1         0.0987
      22    H15     22.128682   20.786842   20.208387 H          1 MOL1         0.0987
      23    H16     20.568687   19.984357   20.445066 H          1 MOL1         0.0987
@<TRIPOS>BOND
    1     1     2    1
    2     1     3    1
    3     1     4    1
    4     1     5    1
    5     5     6    1
    6     5     7    1
    7     5     8    1
    8     8     9    1
    9     8    10    1
   10     8    11    1
   11    11    12    1
   12    11    13    1
   13    11    14    1
   14    14    15    1
   15    14    16    1
   16    14    17    1
   17    17    18    1
   18    17    19    1
   19    17    20    1
   20    20    21    1
   21    20    22    1
   22    20    23    1
@<TRIPOS>SUBSTRUCTURE
       1 MOL1            1 RESIDUE      1      MOL     
@<SCITEGIC>MOL_PROPERTY
VConf Rank
SciTegic.value.IntegerValue
725

@<SCITEGIC>MOL_PROPERTY
Conf_Id
SciTegic.value.IntegerValue
3

@<SCITEGIC>MOL_PROPERTY
Delta U+W
SciTegic.value.DoubleValue
3.283

@<SCITEGIC>MOL_PROPERTY
U+W
SciTegic.value.DoubleValue
-5.099

@<SCITEGIC>MOL_PROPERTY
Grad RMS
SciTegic.value.DoubleValue
0.000000

@<SCITEGIC>MOL_PROPERTY
U
SciTegic.value.DoubleValue
50.701

@<SCITEGIC>MOL_PROPERTY
W
SciTegic.value.DoubleValue
-55.800

@<SCITEGIC>MOL_PROPERTY
W(PB)
SciTegic.value.DoubleValue
-57.867

@<SCITEGIC>MOL_PROPERTY
W(SA)
SciTegic.value.DoubleValue
2.067

@<SCITEGIC>MOL_PROPERTY
Valence
SciTegic.value.DoubleValue
4.880

@<SCITEGIC>MOL_PROPERTY
Coulomb
SciTegic.value.DoubleValue
45.095

@<SCITEGIC>MOL_PROPERTY
VdW
SciTegic.value.DoubleValue
0.726

@<SCITEGIC>MOL_PROPERTY
VdW6
SciTegic.value.DoubleValue
-6.620

@<SCITEGIC>MOL_PROPERTY
VdW12
SciTegic.value.DoubleValue
7.346

@<SCITEGIC>MOL_PROPERTY
Bond
SciTegic.value.DoubleValue
0.222

@<SCITEGIC>MOL_PROPERTY
Angle
SciTegic.value.DoubleValue
1.260

@<SCITEGIC>MOL_PROPERTY
Pdih
SciTegic.value.DoubleValue
3.398

@<SCITEGIC>MOL_PROPERTY
Idih
SciTegic.value.DoubleValue
0.000

@<SCITEGIC>MOL_PROPERTY
Tether
SciTegic.value.DoubleValue
0.000

@<TRIPOS>MOLECULE
guest-2_confgen4.mol2 : confsearch ligand conformer 726
          23          22           1
SMALL
USER_CHARGES
 
@<TRIPOS>ATOM
       1    N1      18.545222   17.781641   24.871614 N.4        1 MOL1        -0.5940
       2    H1      18.455455   18.396590   25.686681 H          1 MOL1         0.3649
       3    H2      18.109699   16.887487   25.121899 H          1 MOL1         0.3649
       4    H3      17.982204   18.190512   24.119661 H          1 MOL1         0.3649
       5    C1      19.992328   17.606496   24.455080 C.3        1 MOL1         0.0207
       6    H4      20.019992   16.919471   23.605538 H          1 MOL1         0.0950
       7    H5      20.523414   17.136547   25.287319 H          1 MOL1         0.0950
       8    C2      20.694591   18.928232   24.082096 C.3        1 MOL1        -0.1415
       9    H6      20.704758   19.587950   24.959861 H          1 MOL1         0.0976
      10    H7      21.746103   18.714726   23.848436 H          1 MOL1         0.0976
      11    C3      20.048222   19.675982   22.888478 C.3        1 MOL1        -0.1375
      12    H8      20.597602   20.614237   22.737698 H          1 MOL1         0.0976
      13    H9      19.018271   19.962009   23.139748 H          1 MOL1         0.0976
      14    C4      20.058594   18.852842   21.575176 C.3        1 MOL1        -0.1375
      15    H10     21.092318   18.591111   21.310451 H          1 MOL1         0.0976
      16    H11     19.530165   17.903341   21.731905 H          1 MOL1         0.0976
      17    C5      19.390436   19.583312   20.385039 C.3        1 MOL1        -0.1350
      18    H12     18.352284   19.838062   20.640125 H          1 MOL1         0.0976
      19    H13     19.335967   18.890886   19.533309 H          1 MOL1         0.0976
      20    C6      20.144729   20.857359   19.940978 C.3        1 MOL1        -0.2365
      21    H14     21.195032   20.634991   19.712018 H          1 MOL1         0.0987
      22    H15     20.117973   21.633509   20.715654 H          1 MOL1         0.0987
      23    H16     19.686600   21.279075   19.036982 H          1 MOL1         0.0987
@<TRIPOS>BOND
    1     1     2    1
    2     1     3    1
    3     1     4    1
    4     1     5    1
    5     5     6    1
    6     5     7    1
    7     5     8    1
    8     8     9    1
    9     8    10    1
   10     8    11    1
   11    11    12    1
   12    11    13    1
   13    11    14    1
   14    14    15    1
   15    14    16    1
   16    14    17    1
   17    17    18    1
   18    17    19    1
   19    17    20    1
   20    20    21    1
   21    20    22    1
   22    20    23    1
@<TRIPOS>SUBSTRUCTURE
       1 MOL1            1 RESIDUE      1      MOL     
@<SCITEGIC>MOL_PROPERTY
VConf Rank
SciTegic.value.IntegerValue
726

@<SCITEGIC>MOL_PROPERTY
Conf_Id
SciTegic.value.IntegerValue
83

@<SCITEGIC>MOL_PROPERTY
Delta U+W
SciTegic.value.DoubleValue
1.229

@<SCITEGIC>MOL_PROPERTY
U+W
SciTegic.value.DoubleValue
-7.154

@<SCITEGIC>MOL_PROPERTY
Grad RMS
SciTegic.value.DoubleValue
0.000000

@<SCITEGIC>MOL_PROPERTY
U
SciTegic.value.DoubleValue
48.727

@<SCITEGIC>MOL_PROPERTY
W
SciTegic.value.DoubleValue
-55.880

@<SCITEGIC>MOL_PROPERTY
W(PB)
SciTegic.value.DoubleValue
-57.960

@<SCITEGIC>MOL_PROPERTY
W(SA)
SciTegic.value.DoubleValue
2.080

@<SCITEGIC>MOL_PROPERTY
Valence
SciTegic.value.DoubleValue
2.671

@<SCITEGIC>MOL_PROPERTY
Coulomb
SciTegic.value.DoubleValue
45.371

@<SCITEGIC>MOL_PROPERTY
VdW
SciTegic.value.DoubleValue
0.684

@<SCITEGIC>MOL_PROPERTY
VdW6
SciTegic.value.DoubleValue
-6.511

@<SCITEGIC>MOL_PROPERTY
VdW12
SciTegic.value.DoubleValue
7.195

@<SCITEGIC>MOL_PROPERTY
Bond
SciTegic.value.DoubleValue
0.203

@<SCITEGIC>MOL_PROPERTY
Angle
SciTegic.value.DoubleValue
0.915

@<SCITEGIC>MOL_PROPERTY
Pdih
SciTegic.value.DoubleValue
1.554

@<SCITEGIC>MOL_PROPERTY
Idih
SciTegic.value.DoubleValue
0.000

@<SCITEGIC>MOL_PROPERTY
Tether
SciTegic.value.DoubleValue
0.000

@<TRIPOS>MOLECULE
guest-2_confgen4.mol2 : confsearch ligand conformer 727
          23          22           1
SMALL
USER_CHARGES
 
@<TRIPOS>ATOM
       1    N1      17.528514   18.286131   20.811995 N.4        1 MOL1        -0.5940
       2    H1      17.573395   18.737321   19.892775 H          1 MOL1         0.3649
       3    H2      17.417691   19.028547   21.509231 H          1 MOL1         0.3649
       4    H3      16.669378   17.726281   20.828971 H          1 MOL1         0.3649
       5    C1      18.757206   17.441115   21.085048 C.3        1 MOL1         0.0207
       6    H4      18.793611   16.652822   20.328215 H          1 MOL1         0.0950
       7    H5      18.632272   16.966480   22.061574 H          1 MOL1         0.0950
       8    C2      20.077246   18.238565   21.056018 C.3        1 MOL1        -0.1415
       9    H6      20.912788   17.542409   21.207994 H          1 MOL1         0.0976
      10    H7      20.214702   18.666410   20.054091 H          1 MOL1         0.0976
      11    C3      20.158346   19.371159   22.110677 C.3        1 MOL1        -0.1375
      12    H8      19.372588   20.114686   21.922261 H          1 MOL1         0.0976
      13    H9      21.113356   19.894778   21.974103 H          1 MOL1         0.0976
      14    C4      20.054117   18.855648   23.568694 C.3        1 MOL1        -0.1375
      15    H10     19.110044   18.310737   23.699663 H          1 MOL1         0.0976
      16    H11     20.857920   18.132527   23.764056 H          1 MOL1         0.0976
      17    C5      20.107480   19.984627   24.626523 C.3        1 MOL1        -0.1350
      18    H12     19.910686   19.548837   25.616079 H          1 MOL1         0.0976
      19    H13     19.298724   20.705587   24.442521 H          1 MOL1         0.0976
      20    C6      21.463885   20.724559   24.671335 C.3        1 MOL1        -0.2365
      21    H14     22.292952   20.020883   24.821319 H          1 MOL1         0.0987
      22    H15     21.481132   21.444400   25.499868 H          1 MOL1         0.0987
      23    H16     21.649906   21.283806   23.746196 H          1 MOL1         0.0987
@<TRIPOS>BOND
    1     1     2    1
    2     1     3    1
    3     1     4    1
    4     1     5    1
    5     5     6    1
    6     5     7    1
    7     5     8    1
    8     8     9    1
    9     8    10    1
   10     8    11    1
   11    11    12    1
   12    11    13    1
   13    11    14    1
   14    14    15    1
   15    14    16    1
   16    14    17    1
   17    17    18    1
   18    17    19    1
   19    17    20    1
   20    20    21    1
   21    20    22    1
   22    20    23    1
@<TRIPOS>SUBSTRUCTURE
       1 MOL1            1 RESIDUE      1      MOL     
@<SCITEGIC>MOL_PROPERTY
VConf Rank
SciTegic.value.IntegerValue
727

@<SCITEGIC>MOL_PROPERTY
Conf_Id
SciTegic.value.IntegerValue
50

@<SCITEGIC>MOL_PROPERTY
Delta U+W
SciTegic.value.DoubleValue
1.252

@<SCITEGIC>MOL_PROPERTY
U+W
SciTegic.value.DoubleValue
-7.130

@<SCITEGIC>MOL_PROPERTY
Grad RMS
SciTegic.value.DoubleValue
0.000000

@<SCITEGIC>MOL_PROPERTY
U
SciTegic.value.DoubleValue
48.727

@<SCITEGIC>MOL_PROPERTY
W
SciTegic.value.DoubleValue
-55.857

@<SCITEGIC>MOL_PROPERTY
W(PB)
SciTegic.value.DoubleValue
-57.937

@<SCITEGIC>MOL_PROPERTY
W(SA)
SciTegic.value.DoubleValue
2.080

@<SCITEGIC>MOL_PROPERTY
Valence
SciTegic.value.DoubleValue
2.671

@<SCITEGIC>MOL_PROPERTY
Coulomb
SciTegic.value.DoubleValue
45.371

@<SCITEGIC>MOL_PROPERTY
VdW
SciTegic.value.DoubleValue
0.684

@<SCITEGIC>MOL_PROPERTY
VdW6
SciTegic.value.DoubleValue
-6.511

@<SCITEGIC>MOL_PROPERTY
VdW12
SciTegic.value.DoubleValue
7.196

@<SCITEGIC>MOL_PROPERTY
Bond
SciTegic.value.DoubleValue
0.203

@<SCITEGIC>MOL_PROPERTY
Angle
SciTegic.value.DoubleValue
0.915

@<SCITEGIC>MOL_PROPERTY
Pdih
SciTegic.value.DoubleValue
1.554

@<SCITEGIC>MOL_PROPERTY
Idih
SciTegic.value.DoubleValue
0.000

@<SCITEGIC>MOL_PROPERTY
Tether
SciTegic.value.DoubleValue
0.000

@<TRIPOS>MOLECULE
guest-2_confgen4.mol2 : confsearch ligand conformer 728
          23          22           1
SMALL
USER_CHARGES
 
@<TRIPOS>ATOM
       1    N1      21.590701   21.655210   22.318304 N.4        1 MOL1        -0.5940
       2    H1      22.019711   21.184429   23.120705 H          1 MOL1         0.3649
       3    H2      21.674731   22.664064   22.482869 H          1 MOL1         0.3649
       4    H3      22.164103   21.437757   21.496995 H          1 MOL1         0.3649
       5    C1      20.146657   21.234896   22.125135 C.3        1 MOL1         0.0207
       6    H4      19.745631   21.804886   21.282601 H          1 MOL1         0.0950
       7    H5      19.588556   21.515611   23.022428 H          1 MOL1         0.0950
       8    C2      19.967785   19.728551   21.853679 C.3        1 MOL1        -0.1415
       9    H6      18.912940   19.545332   21.620450 H          1 MOL1         0.0976
      10    H7      20.534120   19.450630   20.954907 H          1 MOL1         0.0976
      11    C3      20.413636   18.849174   23.049752 C.3        1 MOL1        -0.1375
      12    H8      19.921956   19.182754   23.974052 H          1 MOL1         0.0976
      13    H9      21.490513   18.995368   23.207715 H          1 MOL1         0.0976
      14    C4      20.158744   17.335119   22.828908 C.3        1 MOL1        -0.1375
      15    H10     20.207260   17.091957   21.758529 H          1 MOL1         0.0976
      16    H11     20.982425   16.777628   23.296077 H          1 MOL1         0.0976
      17    C5      18.834679   16.805308   23.436656 C.3        1 MOL1        -0.1350
      18    H12     18.840132   16.961869   24.524421 H          1 MOL1         0.0976
      19    H13     18.793159   15.717378   23.286662 H          1 MOL1         0.0976
      20    C6      17.560142   17.436638   22.834984 C.3        1 MOL1        -0.2365
      21    H14     17.552665   17.348355   21.740915 H          1 MOL1         0.0987
      22    H15     17.476654   18.497412   23.101559 H          1 MOL1         0.0987
      23    H16     16.664340   16.931320   23.218496 H          1 MOL1         0.0987
@<TRIPOS>BOND
    1     1     2    1
    2     1     3    1
    3     1     4    1
    4     1     5    1
    5     5     6    1
    6     5     7    1
    7     5     8    1
    8     8     9    1
    9     8    10    1
   10     8    11    1
   11    11    12    1
   12    11    13    1
   13    11    14    1
   14    14    15    1
   15    14    16    1
   16    14    17    1
   17    17    18    1
   18    17    19    1
   19    17    20    1
   20    20    21    1
   21    20    22    1
   22    20    23    1
@<TRIPOS>SUBSTRUCTURE
       1 MOL1            1 RESIDUE      1      MOL     
@<SCITEGIC>MOL_PROPERTY
VConf Rank
SciTegic.value.IntegerValue
728

@<SCITEGIC>MOL_PROPERTY
Conf_Id
SciTegic.value.IntegerValue
55

@<SCITEGIC>MOL_PROPERTY
Delta U+W
SciTegic.value.DoubleValue
3.232

@<SCITEGIC>MOL_PROPERTY
U+W
SciTegic.value.DoubleValue
-5.150

@<SCITEGIC>MOL_PROPERTY
Grad RMS
SciTegic.value.DoubleValue
0.000000

@<SCITEGIC>MOL_PROPERTY
U
SciTegic.value.DoubleValue
50.625

@<SCITEGIC>MOL_PROPERTY
W
SciTegic.value.DoubleValue
-55.776

@<SCITEGIC>MOL_PROPERTY
W(PB)
SciTegic.value.DoubleValue
-57.839

@<SCITEGIC>MOL_PROPERTY
W(SA)
SciTegic.value.DoubleValue
2.064

@<SCITEGIC>MOL_PROPERTY
Valence
SciTegic.value.DoubleValue
4.837

@<SCITEGIC>MOL_PROPERTY
Coulomb
SciTegic.value.DoubleValue
45.097

@<SCITEGIC>MOL_PROPERTY
VdW
SciTegic.value.DoubleValue
0.692

@<SCITEGIC>MOL_PROPERTY
VdW6
SciTegic.value.DoubleValue
-6.655

@<SCITEGIC>MOL_PROPERTY
VdW12
SciTegic.value.DoubleValue
7.347

@<SCITEGIC>MOL_PROPERTY
Bond
SciTegic.value.DoubleValue
0.223

@<SCITEGIC>MOL_PROPERTY
Angle
SciTegic.value.DoubleValue
1.167

@<SCITEGIC>MOL_PROPERTY
Pdih
SciTegic.value.DoubleValue
3.447

@<SCITEGIC>MOL_PROPERTY
Idih
SciTegic.value.DoubleValue
0.000

@<SCITEGIC>MOL_PROPERTY
Tether
SciTegic.value.DoubleValue
0.000

@<TRIPOS>MOLECULE
guest-2_confgen4.mol2 : confsearch ligand conformer 729
          23          22           1
SMALL
USER_CHARGES
 
@<TRIPOS>ATOM
       1    N1      19.168283   21.964928   21.754496 N.4        1 MOL1        -0.5940
       2    H1      18.277764   22.411271   21.996531 H          1 MOL1         0.3649
       3    H2      19.436392   22.317919   20.829556 H          1 MOL1         0.3649
       4    H3      19.868364   22.309191   22.419422 H          1 MOL1         0.3649
       5    C1      19.066001   20.453353   21.772573 C.3        1 MOL1         0.0207
       6    H4      20.034569   20.050105   21.471562 H          1 MOL1         0.0950
       7    H5      18.326347   20.157700   21.023640 H          1 MOL1         0.0950
       8    C2      18.657391   19.893650   23.149365 C.3        1 MOL1        -0.1415
       9    H6      19.366565   20.221458   23.921037 H          1 MOL1         0.0976
      10    H7      17.684829   20.327256   23.417932 H          1 MOL1         0.0976
      11    C3      18.529395   18.349354   23.164551 C.3        1 MOL1        -0.1375
      12    H8      18.101996   17.997734   22.215184 H          1 MOL1         0.0976
      13    H9      17.799150   18.074876   23.938438 H          1 MOL1         0.0976
      14    C4      19.844424   17.586726   23.472077 C.3        1 MOL1        -0.1375
      15    H10     20.206691   17.869611   24.470090 H          1 MOL1         0.0976
      16    H11     19.612509   16.513974   23.525537 H          1 MOL1         0.0976
      17    C5      20.972131   17.803841   22.436877 C.3        1 MOL1        -0.1350
      18    H12     21.325634   18.842097   22.481297 H          1 MOL1         0.0976
      19    H13     20.586182   17.633433   21.422143 H          1 MOL1         0.0976
      20    C6      22.169274   16.863866   22.693733 C.3        1 MOL1        -0.2365
      21    H14     21.868207   15.810726   22.619769 H          1 MOL1         0.0987
      22    H15     22.593225   17.028980   23.692859 H          1 MOL1         0.0987
      23    H16     22.964314   17.038740   21.957281 H          1 MOL1         0.0987
@<TRIPOS>BOND
    1     1     2    1
    2     1     3    1
    3     1     4    1
    4     1     5    1
    5     5     6    1
    6     5     7    1
    7     5     8    1
    8     8     9    1
    9     8    10    1
   10     8    11    1
   11    11    12    1
   12    11    13    1
   13    11    14    1
   14    14    15    1
   15    14    16    1
   16    14    17    1
   17    17    18    1
   18    17    19    1
   19    17    20    1
   20    20    21    1
   21    20    22    1
   22    20    23    1
@<TRIPOS>SUBSTRUCTURE
       1 MOL1            1 RESIDUE      1      MOL     
@<SCITEGIC>MOL_PROPERTY
VConf Rank
SciTegic.value.IntegerValue
729

@<SCITEGIC>MOL_PROPERTY
Conf_Id
SciTegic.value.IntegerValue
93

@<SCITEGIC>MOL_PROPERTY
Delta U+W
SciTegic.value.DoubleValue
2.589

@<SCITEGIC>MOL_PROPERTY
U+W
SciTegic.value.DoubleValue
-5.793

@<SCITEGIC>MOL_PROPERTY
Grad RMS
SciTegic.value.DoubleValue
0.000000

@<SCITEGIC>MOL_PROPERTY
U
SciTegic.value.DoubleValue
50.122

@<SCITEGIC>MOL_PROPERTY
W
SciTegic.value.DoubleValue
-55.915

@<SCITEGIC>MOL_PROPERTY
W(PB)
SciTegic.value.DoubleValue
-58.031

@<SCITEGIC>MOL_PROPERTY
W(SA)
SciTegic.value.DoubleValue
2.115

@<SCITEGIC>MOL_PROPERTY
Valence
SciTegic.value.DoubleValue
4.132

@<SCITEGIC>MOL_PROPERTY
Coulomb
SciTegic.value.DoubleValue
45.536

@<SCITEGIC>MOL_PROPERTY
VdW
SciTegic.value.DoubleValue
0.454

@<SCITEGIC>MOL_PROPERTY
VdW6
SciTegic.value.DoubleValue
-6.262

@<SCITEGIC>MOL_PROPERTY
VdW12
SciTegic.value.DoubleValue
6.715

@<SCITEGIC>MOL_PROPERTY
Bond
SciTegic.value.DoubleValue
0.182

@<SCITEGIC>MOL_PROPERTY
Angle
SciTegic.value.DoubleValue
1.157

@<SCITEGIC>MOL_PROPERTY
Pdih
SciTegic.value.DoubleValue
2.794

@<SCITEGIC>MOL_PROPERTY
Idih
SciTegic.value.DoubleValue
0.000

@<SCITEGIC>MOL_PROPERTY
Tether
SciTegic.value.DoubleValue
0.000

@<TRIPOS>MOLECULE
guest-2_confgen4.mol2 : confsearch ligand conformer 730
          23          22           1
SMALL
USER_CHARGES
 
@<TRIPOS>ATOM
       1    N1      20.782534   21.890137   22.238634 N.4        1 MOL1        -0.5940
       2    H1      19.830768   22.247169   22.370643 H          1 MOL1         0.3649
       3    H2      21.101276   22.222234   21.322056 H          1 MOL1         0.3649
       4    H3      21.374712   22.343751   22.941761 H          1 MOL1         0.3649
       5    C1      20.839496   20.379563   22.341424 C.3        1 MOL1         0.0207
       6    H4      21.872560   20.069388   22.162626 H          1 MOL1         0.0950
       7    H5      20.217991   19.967555   21.544353 H          1 MOL1         0.0950
       8    C2      20.372627   19.851002   23.711988 C.3        1 MOL1        -0.1415
       9    H6      21.016449   20.292659   24.484291 H          1 MOL1         0.0976
      10    H7      19.351674   20.193894   23.926328 H          1 MOL1         0.0976
      11    C3      20.451910   18.307712   23.827887 C.3        1 MOL1        -0.1375
      12    H8      20.598682   18.051910   24.886434 H          1 MOL1         0.0976
      13    H9      21.345059   17.936470   23.306287 H          1 MOL1         0.0976
      14    C4      19.192451   17.548870   23.334535 C.3        1 MOL1        -0.1375
      15    H10     19.339560   16.478083   23.532565 H          1 MOL1         0.0976
      16    H11     18.323690   17.852564   23.934798 H          1 MOL1         0.0976
      17    C5      18.871258   17.740741   21.834360 C.3        1 MOL1        -0.1350
      18    H12     19.770213   17.549235   21.231963 H          1 MOL1         0.0976
      19    H13     18.567959   18.778875   21.646733 H          1 MOL1         0.0976
      20    C6      17.735468   16.803716   21.371062 C.3        1 MOL1        -0.2365
      21    H14     17.513066   16.960659   20.307607 H          1 MOL1         0.0987
      22    H15     16.814433   16.989475   21.938898 H          1 MOL1         0.0987
      23    H16     18.012859   15.749940   21.504568 H          1 MOL1         0.0987
@<TRIPOS>BOND
    1     1     2    1
    2     1     3    1
    3     1     4    1
    4     1     5    1
    5     5     6    1
    6     5     7    1
    7     5     8    1
    8     8     9    1
    9     8    10    1
   10     8    11    1
   11    11    12    1
   12    11    13    1
   13    11    14    1
   14    14    15    1
   15    14    16    1
   16    14    17    1
   17    17    18    1
   18    17    19    1
   19    17    20    1
   20    20    21    1
   21    20    22    1
   22    20    23    1
@<TRIPOS>SUBSTRUCTURE
       1 MOL1            1 RESIDUE      1      MOL     
@<SCITEGIC>MOL_PROPERTY
VConf Rank
SciTegic.value.IntegerValue
730

@<SCITEGIC>MOL_PROPERTY
Conf_Id
SciTegic.value.IntegerValue
70

@<SCITEGIC>MOL_PROPERTY
Delta U+W
SciTegic.value.DoubleValue
2.599

@<SCITEGIC>MOL_PROPERTY
U+W
SciTegic.value.DoubleValue
-5.783

@<SCITEGIC>MOL_PROPERTY
Grad RMS
SciTegic.value.DoubleValue
0.000000

@<SCITEGIC>MOL_PROPERTY
U
SciTegic.value.DoubleValue
50.122

@<SCITEGIC>MOL_PROPERTY
W
SciTegic.value.DoubleValue
-55.906

@<SCITEGIC>MOL_PROPERTY
W(PB)
SciTegic.value.DoubleValue
-58.010

@<SCITEGIC>MOL_PROPERTY
W(SA)
SciTegic.value.DoubleValue
2.105

@<SCITEGIC>MOL_PROPERTY
Valence
SciTegic.value.DoubleValue
4.132

@<SCITEGIC>MOL_PROPERTY
Coulomb
SciTegic.value.DoubleValue
45.536

@<SCITEGIC>MOL_PROPERTY
VdW
SciTegic.value.DoubleValue
0.454

@<SCITEGIC>MOL_PROPERTY
VdW6
SciTegic.value.DoubleValue
-6.262

@<SCITEGIC>MOL_PROPERTY
VdW12
SciTegic.value.DoubleValue
6.715

@<SCITEGIC>MOL_PROPERTY
Bond
SciTegic.value.DoubleValue
0.182

@<SCITEGIC>MOL_PROPERTY
Angle
SciTegic.value.DoubleValue
1.157

@<SCITEGIC>MOL_PROPERTY
Pdih
SciTegic.value.DoubleValue
2.794

@<SCITEGIC>MOL_PROPERTY
Idih
SciTegic.value.DoubleValue
0.000

@<SCITEGIC>MOL_PROPERTY
Tether
SciTegic.value.DoubleValue
0.000

@<TRIPOS>MOLECULE
guest-2_confgen4.mol2 : confsearch ligand conformer 731
          23          22           1
SMALL
USER_CHARGES
 
@<TRIPOS>ATOM
       1    N1      18.704856   17.441324   20.472154 N.4        1 MOL1        -0.5940
       2    H1      17.706354   17.237579   20.362664 H          1 MOL1         0.3649
       3    H2      19.208407   16.828552   19.821993 H          1 MOL1         0.3649
       4    H3      18.853967   18.404141   20.155586 H          1 MOL1         0.3649
       5    C1      19.165550   17.245304   21.903089 C.3        1 MOL1         0.0207
       6    H4      20.239537   17.444750   21.944540 H          1 MOL1         0.0950
       7    H5      19.004736   16.195748   22.163984 H          1 MOL1         0.0950
       8    C2      18.430054   18.143947   22.917619 C.3        1 MOL1        -0.1415
       9    H6      17.357349   17.910790   22.892006 H          1 MOL1         0.0976
      10    H7      18.767662   17.885730   23.929429 H          1 MOL1         0.0976
      11    C3      18.627362   19.663231   22.672976 C.3        1 MOL1        -0.1375
      12    H8      18.103964   20.219744   23.462629 H          1 MOL1         0.0976
      13    H9      18.132942   19.945888   21.733888 H          1 MOL1         0.0976
      14    C4      20.105361   20.129645   22.620287 C.3        1 MOL1        -0.1375
      15    H10     20.621143   19.653396   21.775865 H          1 MOL1         0.0976
      16    H11     20.120605   21.208799   22.414054 H          1 MOL1         0.0976
      17    C5      20.886191   19.857538   23.927634 C.3        1 MOL1        -0.1350
      18    H12     20.944576   18.777274   24.116205 H          1 MOL1         0.0976
      19    H13     20.350913   20.301328   24.778658 H          1 MOL1         0.0976
      20    C6      22.317052   20.433087   23.866314 C.3        1 MOL1        -0.2365
      21    H14     22.857233   20.229096   24.799913 H          1 MOL1         0.0987
      22    H15     22.299511   21.520756   23.718452 H          1 MOL1         0.0987
      23    H16     22.887489   19.985109   23.042225 H          1 MOL1         0.0987
@<TRIPOS>BOND
    1     1     2    1
    2     1     3    1
    3     1     4    1
    4     1     5    1
    5     5     6    1
    6     5     7    1
    7     5     8    1
    8     8     9    1
    9     8    10    1
   10     8    11    1
   11    11    12    1
   12    11    13    1
   13    11    14    1
   14    14    15    1
   15    14    16    1
   16    14    17    1
   17    17    18    1
   18    17    19    1
   19    17    20    1
   20    20    21    1
   21    20    22    1
   22    20    23    1
@<TRIPOS>SUBSTRUCTURE
       1 MOL1            1 RESIDUE      1      MOL     
@<SCITEGIC>MOL_PROPERTY
VConf Rank
SciTegic.value.IntegerValue
731

@<SCITEGIC>MOL_PROPERTY
Conf_Id
SciTegic.value.IntegerValue
72

@<SCITEGIC>MOL_PROPERTY
Delta U+W
SciTegic.value.DoubleValue
1.051

@<SCITEGIC>MOL_PROPERTY
U+W
SciTegic.value.DoubleValue
-7.331

@<SCITEGIC>MOL_PROPERTY
Grad RMS
SciTegic.value.DoubleValue
0.000000

@<SCITEGIC>MOL_PROPERTY
U
SciTegic.value.DoubleValue
48.590

@<SCITEGIC>MOL_PROPERTY
W
SciTegic.value.DoubleValue
-55.922

@<SCITEGIC>MOL_PROPERTY
W(PB)
SciTegic.value.DoubleValue
-58.012

@<SCITEGIC>MOL_PROPERTY
W(SA)
SciTegic.value.DoubleValue
2.090

@<SCITEGIC>MOL_PROPERTY
Valence
SciTegic.value.DoubleValue
2.601

@<SCITEGIC>MOL_PROPERTY
Coulomb
SciTegic.value.DoubleValue
45.520

@<SCITEGIC>MOL_PROPERTY
VdW
SciTegic.value.DoubleValue
0.469

@<SCITEGIC>MOL_PROPERTY
VdW6
SciTegic.value.DoubleValue
-6.867

@<SCITEGIC>MOL_PROPERTY
VdW12
SciTegic.value.DoubleValue
7.336

@<SCITEGIC>MOL_PROPERTY
Bond
SciTegic.value.DoubleValue
0.205

@<SCITEGIC>MOL_PROPERTY
Angle
SciTegic.value.DoubleValue
0.962

@<SCITEGIC>MOL_PROPERTY
Pdih
SciTegic.value.DoubleValue
1.434

@<SCITEGIC>MOL_PROPERTY
Idih
SciTegic.value.DoubleValue
0.000

@<SCITEGIC>MOL_PROPERTY
Tether
SciTegic.value.DoubleValue
0.000

@<TRIPOS>MOLECULE
guest-2_confgen4.mol2 : confsearch ligand conformer 732
          23          22           1
SMALL
USER_CHARGES
 
@<TRIPOS>ATOM
       1    N1      18.859766   16.800107   20.530406 N.4        1 MOL1        -0.5940
       2    H1      18.182726   16.863454   19.762576 H          1 MOL1         0.3649
       3    H2      18.808721   15.843015   20.893934 H          1 MOL1         0.3649
       4    H3      19.790652   16.916645   20.117451 H          1 MOL1         0.3649
       5    C1      18.586158   17.829123   21.608322 C.3        1 MOL1         0.0207
       6    H4      17.571997   17.665301   21.982474 H          1 MOL1         0.0950
       7    H5      18.626845   18.818849   21.146023 H          1 MOL1         0.0950
       8    C2      19.586731   17.760379   22.777060 C.3        1 MOL1        -0.1415
       9    H6      19.564724   16.751495   23.209954 H          1 MOL1         0.0976
      10    H7      20.606492   17.911795   22.400772 H          1 MOL1         0.0976
      11    C3      19.275176   18.789568   23.891853 C.3        1 MOL1        -0.1375
      12    H8      20.007737   18.674303   24.701802 H          1 MOL1         0.0976
      13    H9      18.300879   18.545675   24.337469 H          1 MOL1         0.0976
      14    C4      19.248299   20.269577   23.423226 C.3        1 MOL1        -0.1375
      15    H10     18.405797   20.419028   22.734635 H          1 MOL1         0.0976
      16    H11     19.035879   20.908307   24.291599 H          1 MOL1         0.0976
      17    C5      20.547526   20.769096   22.741529 C.3        1 MOL1        -0.1350
      18    H12     20.405988   21.817505   22.444047 H          1 MOL1         0.0976
      19    H13     20.725607   20.214222   21.810659 H          1 MOL1         0.0976
      20    C6      21.792784   20.674364   23.651955 C.3        1 MOL1        -0.2365
      21    H14     21.633210   21.212051   24.595548 H          1 MOL1         0.0987
      22    H15     22.666216   21.117527   23.156409 H          1 MOL1         0.0987
      23    H16     22.040253   19.631956   23.887969 H          1 MOL1         0.0987
@<TRIPOS>BOND
    1     1     2    1
    2     1     3    1
    3     1     4    1
    4     1     5    1
    5     5     6    1
    6     5     7    1
    7     5     8    1
    8     8     9    1
    9     8    10    1
   10     8    11    1
   11    11    12    1
   12    11    13    1
   13    11    14    1
   14    14    15    1
   15    14    16    1
   16    14    17    1
   17    17    18    1
   18    17    19    1
   19    17    20    1
   20    20    21    1
   21    20    22    1
   22    20    23    1
@<TRIPOS>SUBSTRUCTURE
       1 MOL1            1 RESIDUE      1      MOL     
@<SCITEGIC>MOL_PROPERTY
VConf Rank
SciTegic.value.IntegerValue
732

@<SCITEGIC>MOL_PROPERTY
Conf_Id
SciTegic.value.IntegerValue
26

@<SCITEGIC>MOL_PROPERTY
Delta U+W
SciTegic.value.DoubleValue
1.076

@<SCITEGIC>MOL_PROPERTY
U+W
SciTegic.value.DoubleValue
-7.306

@<SCITEGIC>MOL_PROPERTY
Grad RMS
SciTegic.value.DoubleValue
0.000000

@<SCITEGIC>MOL_PROPERTY
U
SciTegic.value.DoubleValue
48.641

@<SCITEGIC>MOL_PROPERTY
W
SciTegic.value.DoubleValue
-55.947

@<SCITEGIC>MOL_PROPERTY
W(PB)
SciTegic.value.DoubleValue
-58.031

@<SCITEGIC>MOL_PROPERTY
W(SA)
SciTegic.value.DoubleValue
2.084

@<SCITEGIC>MOL_PROPERTY
Valence
SciTegic.value.DoubleValue
2.922

@<SCITEGIC>MOL_PROPERTY
Coulomb
SciTegic.value.DoubleValue
45.269

@<SCITEGIC>MOL_PROPERTY
VdW
SciTegic.value.DoubleValue
0.449

@<SCITEGIC>MOL_PROPERTY
VdW6
SciTegic.value.DoubleValue
-7.045

@<SCITEGIC>MOL_PROPERTY
VdW12
SciTegic.value.DoubleValue
7.494

@<SCITEGIC>MOL_PROPERTY
Bond
SciTegic.value.DoubleValue
0.220

@<SCITEGIC>MOL_PROPERTY
Angle
SciTegic.value.DoubleValue
1.205

@<SCITEGIC>MOL_PROPERTY
Pdih
SciTegic.value.DoubleValue
1.497

@<SCITEGIC>MOL_PROPERTY
Idih
SciTegic.value.DoubleValue
0.000

@<SCITEGIC>MOL_PROPERTY
Tether
SciTegic.value.DoubleValue
0.000

@<TRIPOS>MOLECULE
guest-2_confgen4.mol2 : confsearch ligand conformer 733
          23          22           1
SMALL
USER_CHARGES
 
@<TRIPOS>ATOM
       1    N1      22.378385   20.695532   22.027135 N.4        1 MOL1        -0.5940
       2    H1      22.684966   21.299128   22.796851 H          1 MOL1         0.3649
       3    H2      22.687180   21.142459   21.157158 H          1 MOL1         0.3649
       4    H3      22.896124   19.814762   22.109923 H          1 MOL1         0.3649
       5    C1      20.879555   20.474579   22.045119 C.3        1 MOL1         0.0207
       6    H4      20.621518   19.851387   21.184897 H          1 MOL1         0.0950
       7    H5      20.393120   21.446282   21.924608 H          1 MOL1         0.0950
       8    C2      20.383262   19.803995   23.339657 C.3        1 MOL1        -0.1415
       9    H6      20.880645   18.834220   23.468416 H          1 MOL1         0.0976
      10    H7      20.680138   20.419059   24.199477 H          1 MOL1         0.0976
      11    C3      18.845757   19.618259   23.364997 C.3        1 MOL1        -0.1375
      12    H8      18.368778   20.608079   23.357158 H          1 MOL1         0.0976
      13    H9      18.555421   19.157868   24.318777 H          1 MOL1         0.0976
      14    C4      18.270974   18.782768   22.189269 C.3        1 MOL1        -0.1375
      15    H10     17.182590   18.701966   22.315995 H          1 MOL1         0.0976
      16    H11     18.418061   19.328627   21.247619 H          1 MOL1         0.0976
      17    C5      18.863765   17.358412   22.040839 C.3        1 MOL1        -0.1350
      18    H12     19.935499   17.415363   21.807897 H          1 MOL1         0.0976
      19    H13     18.393462   16.871974   21.174879 H          1 MOL1         0.0976
      20    C6      18.647119   16.471402   23.287753 C.3        1 MOL1        -0.2365
      21    H14     19.191384   16.860014   24.157417 H          1 MOL1         0.0987
      22    H15     19.006842   15.451258   23.101349 H          1 MOL1         0.0987
      23    H16     17.582431   16.409873   23.547746 H          1 MOL1         0.0987
@<TRIPOS>BOND
    1     1     2    1
    2     1     3    1
    3     1     4    1
    4     1     5    1
    5     5     6    1
    6     5     7    1
    7     5     8    1
    8     8     9    1
    9     8    10    1
   10     8    11    1
   11    11    12    1
   12    11    13    1
   13    11    14    1
   14    14    15    1
   15    14    16    1
   16    14    17    1
   17    17    18    1
   18    17    19    1
   19    17    20    1
   20    20    21    1
   21    20    22    1
   22    20    23    1
@<TRIPOS>SUBSTRUCTURE
       1 MOL1            1 RESIDUE      1      MOL     
@<SCITEGIC>MOL_PROPERTY
VConf Rank
SciTegic.value.IntegerValue
733

@<SCITEGIC>MOL_PROPERTY
Conf_Id
SciTegic.value.IntegerValue
90

@<SCITEGIC>MOL_PROPERTY
Delta U+W
SciTegic.value.DoubleValue
1.131

@<SCITEGIC>MOL_PROPERTY
U+W
SciTegic.value.DoubleValue
-7.251

@<SCITEGIC>MOL_PROPERTY
Grad RMS
SciTegic.value.DoubleValue
0.000000

@<SCITEGIC>MOL_PROPERTY
U
SciTegic.value.DoubleValue
48.641

@<SCITEGIC>MOL_PROPERTY
W
SciTegic.value.DoubleValue
-55.892

@<SCITEGIC>MOL_PROPERTY
W(PB)
SciTegic.value.DoubleValue
-57.962

@<SCITEGIC>MOL_PROPERTY
W(SA)
SciTegic.value.DoubleValue
2.070

@<SCITEGIC>MOL_PROPERTY
Valence
SciTegic.value.DoubleValue
2.922

@<SCITEGIC>MOL_PROPERTY
Coulomb
SciTegic.value.DoubleValue
45.269

@<SCITEGIC>MOL_PROPERTY
VdW
SciTegic.value.DoubleValue
0.450

@<SCITEGIC>MOL_PROPERTY
VdW6
SciTegic.value.DoubleValue
-7.045

@<SCITEGIC>MOL_PROPERTY
VdW12
SciTegic.value.DoubleValue
7.495

@<SCITEGIC>MOL_PROPERTY
Bond
SciTegic.value.DoubleValue
0.220

@<SCITEGIC>MOL_PROPERTY
Angle
SciTegic.value.DoubleValue
1.205

@<SCITEGIC>MOL_PROPERTY
Pdih
SciTegic.value.DoubleValue
1.497

@<SCITEGIC>MOL_PROPERTY
Idih
SciTegic.value.DoubleValue
0.000

@<SCITEGIC>MOL_PROPERTY
Tether
SciTegic.value.DoubleValue
0.000

@<TRIPOS>MOLECULE
guest-2_confgen4.mol2 : confsearch ligand conformer 734
          23          22           1
SMALL
USER_CHARGES
 
@<TRIPOS>ATOM
       1    N1      18.775404   18.105598   24.875609 N.4        1 MOL1        -0.5940
       2    H1      18.355384   17.239181   25.228818 H          1 MOL1         0.3649
       3    H2      18.257079   18.369734   24.032286 H          1 MOL1         0.3649
       4    H3      18.601322   18.830717   25.578795 H          1 MOL1         0.3649
       5    C1      20.255560   17.939574   24.592817 C.3        1 MOL1         0.0207
       6    H4      20.372881   17.134921   23.862416 H          1 MOL1         0.0950
       7    H5      20.739107   17.626664   25.522219 H          1 MOL1         0.0950
       8    C2      20.934174   19.221971   24.069528 C.3        1 MOL1        -0.1415
       9    H6      20.851342   20.009046   24.830739 H          1 MOL1         0.0976
      10    H7      22.007885   19.027156   23.946914 H          1 MOL1         0.0976
      11    C3      20.352627   19.740711   22.730389 C.3        1 MOL1        -0.1375
      12    H8      20.886376   20.659020   22.449441 H          1 MOL1         0.0976
      13    H9      19.303520   20.028546   22.874021 H          1 MOL1         0.0976
      14    C4      20.471535   18.711386   21.578077 C.3        1 MOL1        -0.1375
      15    H10     21.514250   18.372386   21.506724 H          1 MOL1         0.0976
      16    H11     19.870888   17.819908   21.802628 H          1 MOL1         0.0976
      17    C5      20.043641   19.277912   20.202814 C.3        1 MOL1        -0.1350
      18    H12     20.257763   18.526671   19.429752 H          1 MOL1         0.0976
      19    H13     20.655983   20.156285   19.955272 H          1 MOL1         0.0976
      20    C6      18.545491   19.651767   20.132701 C.3        1 MOL1        -0.2365
      21    H14     17.911893   18.796780   20.401939 H          1 MOL1         0.0987
      22    H15     18.274654   19.962352   19.115293 H          1 MOL1         0.0987
      23    H16     18.305484   20.484119   20.805752 H          1 MOL1         0.0987
@<TRIPOS>BOND
    1     1     2    1
    2     1     3    1
    3     1     4    1
    4     1     5    1
    5     5     6    1
    6     5     7    1
    7     5     8    1
    8     8     9    1
    9     8    10    1
   10     8    11    1
   11    11    12    1
   12    11    13    1
   13    11    14    1
   14    14    15    1
   15    14    16    1
   16    14    17    1
   17    17    18    1
   18    17    19    1
   19    17    20    1
   20    20    21    1
   21    20    22    1
   22    20    23    1
@<TRIPOS>SUBSTRUCTURE
       1 MOL1            1 RESIDUE      1      MOL     
@<SCITEGIC>MOL_PROPERTY
VConf Rank
SciTegic.value.IntegerValue
734

@<SCITEGIC>MOL_PROPERTY
Conf_Id
SciTegic.value.IntegerValue
85

@<SCITEGIC>MOL_PROPERTY
Delta U+W
SciTegic.value.DoubleValue
1.193

@<SCITEGIC>MOL_PROPERTY
U+W
SciTegic.value.DoubleValue
-7.189

@<SCITEGIC>MOL_PROPERTY
Grad RMS
SciTegic.value.DoubleValue
0.000000

@<SCITEGIC>MOL_PROPERTY
U
SciTegic.value.DoubleValue
48.775

@<SCITEGIC>MOL_PROPERTY
W
SciTegic.value.DoubleValue
-55.965

@<SCITEGIC>MOL_PROPERTY
W(PB)
SciTegic.value.DoubleValue
-58.038

@<SCITEGIC>MOL_PROPERTY
W(SA)
SciTegic.value.DoubleValue
2.073

@<SCITEGIC>MOL_PROPERTY
Valence
SciTegic.value.DoubleValue
2.602

@<SCITEGIC>MOL_PROPERTY
Coulomb
SciTegic.value.DoubleValue
45.581

@<SCITEGIC>MOL_PROPERTY
VdW
SciTegic.value.DoubleValue
0.592

@<SCITEGIC>MOL_PROPERTY
VdW6
SciTegic.value.DoubleValue
-6.616

@<SCITEGIC>MOL_PROPERTY
VdW12
SciTegic.value.DoubleValue
7.208

@<SCITEGIC>MOL_PROPERTY
Bond
SciTegic.value.DoubleValue
0.196

@<SCITEGIC>MOL_PROPERTY
Angle
SciTegic.value.DoubleValue
0.832

@<SCITEGIC>MOL_PROPERTY
Pdih
SciTegic.value.DoubleValue
1.574

@<SCITEGIC>MOL_PROPERTY
Idih
SciTegic.value.DoubleValue
0.000

@<SCITEGIC>MOL_PROPERTY
Tether
SciTegic.value.DoubleValue
0.000

@<TRIPOS>MOLECULE
guest-2_confgen4.mol2 : confsearch ligand conformer 735
          23          22           1
SMALL
USER_CHARGES
 
@<TRIPOS>ATOM
       1    N1      21.792883   18.920109   22.417464 N.4        1 MOL1        -0.5940
       2    H1      21.076549   19.614840   22.651740 H          1 MOL1         0.3649
       3    H2      22.443684   19.359949   21.757690 H          1 MOL1         0.3649
       4    H3      22.321929   18.725344   23.273730 H          1 MOL1         0.3649
       5    C1      21.173419   17.661065   21.842369 C.3        1 MOL1         0.0207
       6    H4      21.994392   16.973642   21.621094 H          1 MOL1         0.0950
       7    H5      20.678649   17.912710   20.900559 H          1 MOL1         0.0950
       8    C2      20.174955   16.964381   22.789164 C.3        1 MOL1        -0.1415
       9    H6      20.098920   15.913639   22.479331 H          1 MOL1         0.0976
      10    H7      20.581699   16.945984   23.809014 H          1 MOL1         0.0976
      11    C3      18.741788   17.561120   22.795865 C.3        1 MOL1        -0.1375
      12    H8      18.130262   16.938989   23.464068 H          1 MOL1         0.0976
      13    H9      18.287481   17.456841   21.800776 H          1 MOL1         0.0976
      14    C4      18.637449   19.030348   23.279333 C.3        1 MOL1        -0.1375
      15    H10     17.702757   19.145679   23.845715 H          1 MOL1         0.0976
      16    H11     19.443262   19.253455   23.991101 H          1 MOL1         0.0976
      17    C5      18.618455   20.054222   22.118118 C.3        1 MOL1        -0.1350
      18    H12     17.707273   19.907697   21.521114 H          1 MOL1         0.0976
      19    H13     19.458107   19.889965   21.432348 H          1 MOL1         0.0976
      20    C6      18.655730   21.507005   22.637598 C.3        1 MOL1        -0.2365
      21    H14     17.794605   21.715415   23.285979 H          1 MOL1         0.0987
      22    H15     18.626473   22.218187   21.801809 H          1 MOL1         0.0987
      23    H16     19.570085   21.701252   23.212914 H          1 MOL1         0.0987
@<TRIPOS>BOND
    1     1     2    1
    2     1     3    1
    3     1     4    1
    4     1     5    1
    5     5     6    1
    6     5     7    1
    7     5     8    1
    8     8     9    1
    9     8    10    1
   10     8    11    1
   11    11    12    1
   12    11    13    1
   13    11    14    1
   14    14    15    1
   15    14    16    1
   16    14    17    1
   17    17    18    1
   18    17    19    1
   19    17    20    1
   20    20    21    1
   21    20    22    1
   22    20    23    1
@<TRIPOS>SUBSTRUCTURE
       1 MOL1            1 RESIDUE      1      MOL     
@<SCITEGIC>MOL_PROPERTY
VConf Rank
SciTegic.value.IntegerValue
735

@<SCITEGIC>MOL_PROPERTY
Conf_Id
SciTegic.value.IntegerValue
82

@<SCITEGIC>MOL_PROPERTY
Delta U+W
SciTegic.value.DoubleValue
5.994

@<SCITEGIC>MOL_PROPERTY
U+W
SciTegic.value.DoubleValue
-2.388

@<SCITEGIC>MOL_PROPERTY
Grad RMS
SciTegic.value.DoubleValue
0.000000

@<SCITEGIC>MOL_PROPERTY
U
SciTegic.value.DoubleValue
52.836

@<SCITEGIC>MOL_PROPERTY
W
SciTegic.value.DoubleValue
-55.224

@<SCITEGIC>MOL_PROPERTY
W(PB)
SciTegic.value.DoubleValue
-57.261

@<SCITEGIC>MOL_PROPERTY
W(SA)
SciTegic.value.DoubleValue
2.037

@<SCITEGIC>MOL_PROPERTY
Valence
SciTegic.value.DoubleValue
5.785

@<SCITEGIC>MOL_PROPERTY
Coulomb
SciTegic.value.DoubleValue
46.744

@<SCITEGIC>MOL_PROPERTY
VdW
SciTegic.value.DoubleValue
0.307

@<SCITEGIC>MOL_PROPERTY
VdW6
SciTegic.value.DoubleValue
-7.672

@<SCITEGIC>MOL_PROPERTY
VdW12
SciTegic.value.DoubleValue
7.979

@<SCITEGIC>MOL_PROPERTY
Bond
SciTegic.value.DoubleValue
0.217

@<SCITEGIC>MOL_PROPERTY
Angle
SciTegic.value.DoubleValue
1.470

@<SCITEGIC>MOL_PROPERTY
Pdih
SciTegic.value.DoubleValue
4.098

@<SCITEGIC>MOL_PROPERTY
Idih
SciTegic.value.DoubleValue
0.000

@<SCITEGIC>MOL_PROPERTY
Tether
SciTegic.value.DoubleValue
0.000

@<TRIPOS>MOLECULE
guest-2_confgen4.mol2 : confsearch ligand conformer 736
          23          22           1
SMALL
USER_CHARGES
 
@<TRIPOS>ATOM
       1    N1      18.470000   19.506396   24.001140 N.4        1 MOL1        -0.5940
       2    H1      17.954124   20.381863   23.865331 H          1 MOL1         0.3649
       3    H2      17.942985   18.952004   24.684664 H          1 MOL1         0.3649
       4    H3      18.449167   18.997800   23.111437 H          1 MOL1         0.3649
       5    C1      19.893388   19.759438   24.458954 C.3        1 MOL1         0.0207
       6    H4      20.375992   18.797433   24.650702 H          1 MOL1         0.0950
       7    H5      19.832415   20.302984   25.405712 H          1 MOL1         0.0950
       8    C2      20.736740   20.579312   23.461316 C.3        1 MOL1        -0.1415
       9    H6      20.140982   21.415098   23.070923 H          1 MOL1         0.0976
      10    H7      21.563064   21.037680   24.020714 H          1 MOL1         0.0976
      11    C3      21.351057   19.767364   22.289365 C.3        1 MOL1        -0.1375
      12    H8      22.050963   19.015786   22.680175 H          1 MOL1         0.0976
      13    H9      21.965020   20.459666   21.696683 H          1 MOL1         0.0976
      14    C4      20.326622   19.099007   21.336950 C.3        1 MOL1        -0.1375
      15    H10     19.395155   19.680009   21.313927 H          1 MOL1         0.0976
      16    H11     20.724663   19.138386   20.313353 H          1 MOL1         0.0976
      17    C5      20.051069   17.615178   21.682527 C.3        1 MOL1        -0.1350
      18    H12     19.788828   17.497730   22.740695 H          1 MOL1         0.0976
      19    H13     20.970361   17.031702   21.532220 H          1 MOL1         0.0976
      20    C6      18.926823   17.024318   20.805725 C.3        1 MOL1        -0.2365
      21    H14     17.981525   17.562143   20.953790 H          1 MOL1         0.0987
      22    H15     18.755988   15.968727   21.054165 H          1 MOL1         0.0987
      23    H16     19.187508   17.080565   19.740714 H          1 MOL1         0.0987
@<TRIPOS>BOND
    1     1     2    1
    2     1     3    1
    3     1     4    1
    4     1     5    1
    5     5     6    1
    6     5     7    1
    7     5     8    1
    8     8     9    1
    9     8    10    1
   10     8    11    1
   11    11    12    1
   12    11    13    1
   13    11    14    1
   14    14    15    1
   15    14    16    1
   16    14    17    1
   17    17    18    1
   18    17    19    1
   19    17    20    1
   20    20    21    1
   21    20    22    1
   22    20    23    1
@<TRIPOS>SUBSTRUCTURE
       1 MOL1            1 RESIDUE      1      MOL     
@<SCITEGIC>MOL_PROPERTY
VConf Rank
SciTegic.value.IntegerValue
736

@<SCITEGIC>MOL_PROPERTY
Conf_Id
SciTegic.value.IntegerValue
5

@<SCITEGIC>MOL_PROPERTY
Delta U+W
SciTegic.value.DoubleValue
6.087

@<SCITEGIC>MOL_PROPERTY
U+W
SciTegic.value.DoubleValue
-2.295

@<SCITEGIC>MOL_PROPERTY
Grad RMS
SciTegic.value.DoubleValue
0.000000

@<SCITEGIC>MOL_PROPERTY
U
SciTegic.value.DoubleValue
52.836

@<SCITEGIC>MOL_PROPERTY
W
SciTegic.value.DoubleValue
-55.131

@<SCITEGIC>MOL_PROPERTY
W(PB)
SciTegic.value.DoubleValue
-57.202

@<SCITEGIC>MOL_PROPERTY
W(SA)
SciTegic.value.DoubleValue
2.071

@<SCITEGIC>MOL_PROPERTY
Valence
SciTegic.value.DoubleValue
5.785

@<SCITEGIC>MOL_PROPERTY
Coulomb
SciTegic.value.DoubleValue
46.744

@<SCITEGIC>MOL_PROPERTY
VdW
SciTegic.value.DoubleValue
0.307

@<SCITEGIC>MOL_PROPERTY
VdW6
SciTegic.value.DoubleValue
-7.672

@<SCITEGIC>MOL_PROPERTY
VdW12
SciTegic.value.DoubleValue
7.980

@<SCITEGIC>MOL_PROPERTY
Bond
SciTegic.value.DoubleValue
0.217

@<SCITEGIC>MOL_PROPERTY
Angle
SciTegic.value.DoubleValue
1.470

@<SCITEGIC>MOL_PROPERTY
Pdih
SciTegic.value.DoubleValue
4.098

@<SCITEGIC>MOL_PROPERTY
Idih
SciTegic.value.DoubleValue
0.000

@<SCITEGIC>MOL_PROPERTY
Tether
SciTegic.value.DoubleValue
0.000

@<TRIPOS>MOLECULE
guest-2_confgen4.mol2 : confsearch ligand conformer 737
          23          22           1
SMALL
USER_CHARGES
 
@<TRIPOS>ATOM
       1    N1      20.887297   19.279802   18.935943 N.4        1 MOL1        -0.5940
       2    H1      20.116229   18.732077   18.540551 H          1 MOL1         0.3649
       3    H2      21.710791   19.099902   18.351488 H          1 MOL1         0.3649
       4    H3      20.647199   20.269119   18.815570 H          1 MOL1         0.3649
       5    C1      21.141380   18.932091   20.388677 C.3        1 MOL1         0.0207
       6    H4      21.990236   19.528002   20.734843 H          1 MOL1         0.0950
       7    H5      21.419561   17.875891   20.439217 H          1 MOL1         0.0950
       8    C2      19.923516   19.190887   21.293336 C.3        1 MOL1        -0.1415
       9    H6      19.637778   20.249202   21.226837 H          1 MOL1         0.0976
      10    H7      19.069087   18.602997   20.932179 H          1 MOL1         0.0976
      11    C3      20.223186   18.824175   22.763677 C.3        1 MOL1        -0.1375
      12    H8      21.081869   19.410519   23.119581 H          1 MOL1         0.0976
      13    H9      20.513731   17.766065   22.825229 H          1 MOL1         0.0976
      14    C4      19.006297   19.080288   23.681604 C.3        1 MOL1        -0.1375
      15    H10     18.715749   20.138274   23.620282 H          1 MOL1         0.0976
      16    H11     18.147624   18.494064   23.325885 H          1 MOL1         0.0976
      17    C5      19.306310   18.713343   25.152014 C.3        1 MOL1        -0.1350
      18    H12     20.163235   19.299075   25.513361 H          1 MOL1         0.0976
      19    H13     19.595145   17.655013   25.218988 H          1 MOL1         0.0976
      20    C6      18.088967   18.970418   26.065521 C.3        1 MOL1        -0.2365
      21    H14     18.321126   18.704116   27.104863 H          1 MOL1         0.0987
      22    H15     17.224754   18.371703   25.749443 H          1 MOL1         0.0987
      23    H16     17.797263   20.028606   26.046095 H          1 MOL1         0.0987
@<TRIPOS>BOND
    1     1     2    1
    2     1     3    1
    3     1     4    1
    4     1     5    1
    5     5     6    1
    6     5     7    1
    7     5     8    1
    8     8     9    1
    9     8    10    1
   10     8    11    1
   11    11    12    1
   12    11    13    1
   13    11    14    1
   14    14    15    1
   15    14    16    1
   16    14    17    1
   17    17    18    1
   18    17    19    1
   19    17    20    1
   20    20    21    1
   21    20    22    1
   22    20    23    1
@<TRIPOS>SUBSTRUCTURE
       1 MOL1            1 RESIDUE      1      MOL     
@<SCITEGIC>MOL_PROPERTY
VConf Rank
SciTegic.value.IntegerValue
737

@<SCITEGIC>MOL_PROPERTY
Conf_Id
SciTegic.value.IntegerValue
40

@<SCITEGIC>MOL_PROPERTY
Delta U+W
SciTegic.value.DoubleValue
0.000

@<SCITEGIC>MOL_PROPERTY
U+W
SciTegic.value.DoubleValue
-8.382

@<SCITEGIC>MOL_PROPERTY
Grad RMS
SciTegic.value.DoubleValue
0.000000

@<SCITEGIC>MOL_PROPERTY
U
SciTegic.value.DoubleValue
46.604

@<SCITEGIC>MOL_PROPERTY
W
SciTegic.value.DoubleValue
-54.986

@<SCITEGIC>MOL_PROPERTY
W(PB)
SciTegic.value.DoubleValue
-57.162

@<SCITEGIC>MOL_PROPERTY
W(SA)
SciTegic.value.DoubleValue
2.176

@<SCITEGIC>MOL_PROPERTY
Valence
SciTegic.value.DoubleValue
1.727

@<SCITEGIC>MOL_PROPERTY
Coulomb
SciTegic.value.DoubleValue
44.434

@<SCITEGIC>MOL_PROPERTY
VdW
SciTegic.value.DoubleValue
0.443

@<SCITEGIC>MOL_PROPERTY
VdW6
SciTegic.value.DoubleValue
-4.623

@<SCITEGIC>MOL_PROPERTY
VdW12
SciTegic.value.DoubleValue
5.066

@<SCITEGIC>MOL_PROPERTY
Bond
SciTegic.value.DoubleValue
0.112

@<SCITEGIC>MOL_PROPERTY
Angle
SciTegic.value.DoubleValue
0.386

@<SCITEGIC>MOL_PROPERTY
Pdih
SciTegic.value.DoubleValue
1.228

@<SCITEGIC>MOL_PROPERTY
Idih
SciTegic.value.DoubleValue
0.000

@<SCITEGIC>MOL_PROPERTY
Tether
SciTegic.value.DoubleValue
0.000

@<TRIPOS>MOLECULE
guest-2_confgen4.mol2 : confsearch ligand conformer 738
          23          22           1
SMALL
USER_CHARGES
 
@<TRIPOS>ATOM
       1    N1      17.724292   21.358387   24.385275 N.4        1 MOL1        -0.5940
       2    H1      18.190541   21.654644   25.248805 H          1 MOL1         0.3649
       3    H2      16.984376   20.701119   24.652397 H          1 MOL1         0.3649
       4    H3      17.260985   22.187261   23.997534 H          1 MOL1         0.3649
       5    C1      18.697291   20.744331   23.399378 C.3        1 MOL1         0.0207
       6    H4      19.437798   21.505000   23.137761 H          1 MOL1         0.0950
       7    H5      18.138977   20.482641   22.496980 H          1 MOL1         0.0950
       8    C2      19.410301   19.496160   23.953288 C.3        1 MOL1        -0.1415
       9    H6      19.927082   19.763676   24.884588 H          1 MOL1         0.0976
      10    H7      18.667054   18.731297   24.215112 H          1 MOL1         0.0976
      11    C3      20.439659   18.903259   22.962071 C.3        1 MOL1        -0.1375
      12    H8      20.980418   18.095075   23.471365 H          1 MOL1         0.0976
      13    H9      21.187399   19.667771   22.709528 H          1 MOL1         0.0976
      14    C4      19.790199   18.357333   21.664866 C.3        1 MOL1        -0.1375
      15    H10     19.057584   17.578213   21.916798 H          1 MOL1         0.0976
      16    H11     19.229017   19.160214   21.168919 H          1 MOL1         0.0976
      17    C5      20.816477   17.792292   20.652933 C.3        1 MOL1        -0.1350
      18    H12     21.545975   18.570778   20.389129 H          1 MOL1         0.0976
      19    H13     20.289568   17.537701   19.722652 H          1 MOL1         0.0976
      20    C6      21.558036   16.535533   21.162873 C.3        1 MOL1        -0.2365
      21    H14     22.201595   16.766293   22.020683 H          1 MOL1         0.0987
      22    H15     22.198350   16.121080   20.373459 H          1 MOL1         0.0987
      23    H16     20.849023   15.753617   21.464400 H          1 MOL1         0.0987
@<TRIPOS>BOND
    1     1     2    1
    2     1     3    1
    3     1     4    1
    4     1     5    1
    5     5     6    1
    6     5     7    1
    7     5     8    1
    8     8     9    1
    9     8    10    1
   10     8    11    1
   11    11    12    1
   12    11    13    1
   13    11    14    1
   14    14    15    1
   15    14    16    1
   16    14    17    1
   17    17    18    1
   18    17    19    1
   19    17    20    1
   20    20    21    1
   21    20    22    1
   22    20    23    1
@<TRIPOS>SUBSTRUCTURE
       1 MOL1            1 RESIDUE      1      MOL     
@<SCITEGIC>MOL_PROPERTY
VConf Rank
SciTegic.value.IntegerValue
738

@<SCITEGIC>MOL_PROPERTY
Conf_Id
SciTegic.value.IntegerValue
65

@<SCITEGIC>MOL_PROPERTY
Delta U+W
SciTegic.value.DoubleValue
1.004

@<SCITEGIC>MOL_PROPERTY
U+W
SciTegic.value.DoubleValue
-7.378

@<SCITEGIC>MOL_PROPERTY
Grad RMS
SciTegic.value.DoubleValue
0.000000

@<SCITEGIC>MOL_PROPERTY
U
SciTegic.value.DoubleValue
48.047

@<SCITEGIC>MOL_PROPERTY
W
SciTegic.value.DoubleValue
-55.425

@<SCITEGIC>MOL_PROPERTY
W(PB)
SciTegic.value.DoubleValue
-57.542

@<SCITEGIC>MOL_PROPERTY
W(SA)
SciTegic.value.DoubleValue
2.116

@<SCITEGIC>MOL_PROPERTY
Valence
SciTegic.value.DoubleValue
2.583

@<SCITEGIC>MOL_PROPERTY
Coulomb
SciTegic.value.DoubleValue
44.791

@<SCITEGIC>MOL_PROPERTY
VdW
SciTegic.value.DoubleValue
0.673

@<SCITEGIC>MOL_PROPERTY
VdW6
SciTegic.value.DoubleValue
-5.788

@<SCITEGIC>MOL_PROPERTY
VdW12
SciTegic.value.DoubleValue
6.462

@<SCITEGIC>MOL_PROPERTY
Bond
SciTegic.value.DoubleValue
0.177

@<SCITEGIC>MOL_PROPERTY
Angle
SciTegic.value.DoubleValue
0.787

@<SCITEGIC>MOL_PROPERTY
Pdih
SciTegic.value.DoubleValue
1.619

@<SCITEGIC>MOL_PROPERTY
Idih
SciTegic.value.DoubleValue
0.000

@<SCITEGIC>MOL_PROPERTY
Tether
SciTegic.value.DoubleValue
0.000

@<TRIPOS>MOLECULE
guest-2_confgen4.mol2 : confsearch ligand conformer 739
          23          22           1
SMALL
USER_CHARGES
 
@<TRIPOS>ATOM
       1    N1      16.282034   19.637924   23.113599 N.4        1 MOL1        -0.5940
       2    H1      15.836900   18.827487   23.556189 H          1 MOL1         0.3649
       3    H2      15.617102   20.002739   22.423090 H          1 MOL1         0.3649
       4    H3      16.385455   20.357264   23.836570 H          1 MOL1         0.3649
       5    C1      17.610509   19.277580   22.480289 C.3        1 MOL1         0.0207
       6    H4      18.009227   20.176960   22.004202 H          1 MOL1         0.0950
       7    H5      17.422764   18.531204   21.703703 H          1 MOL1         0.0950
       8    C2      18.631726   18.725753   23.493075 C.3        1 MOL1        -0.1415
       9    H6      18.821590   19.475497   24.272704 H          1 MOL1         0.0976
      10    H7      18.198541   17.851468   23.996982 H          1 MOL1         0.0976
      11    C3      19.968393   18.311880   22.833040 C.3        1 MOL1        -0.1375
      12    H8      19.776366   17.554609   22.060359 H          1 MOL1         0.0976
      13    H9      20.592164   17.827559   23.595475 H          1 MOL1         0.0976
      14    C4      20.737304   19.507412   22.214936 C.3        1 MOL1        -0.1375
      15    H10     20.103462   20.006316   21.470057 H          1 MOL1         0.0976
      16    H11     20.947227   20.254799   22.992473 H          1 MOL1         0.0976
      17    C5      22.060147   19.097464   21.523164 C.3        1 MOL1        -0.1350
      18    H12     22.478478   19.977376   21.014609 H          1 MOL1         0.0976
      19    H13     21.854928   18.357467   20.736979 H          1 MOL1         0.0976
      20    C6      23.119829   18.538664   22.499998 C.3        1 MOL1        -0.2365
      21    H14     22.800293   17.586718   22.941533 H          1 MOL1         0.0987
      22    H15     23.318594   19.246990   23.314723 H          1 MOL1         0.0987
      23    H16     24.066855   18.356526   21.975677 H          1 MOL1         0.0987
@<TRIPOS>BOND
    1     1     2    1
    2     1     3    1
    3     1     4    1
    4     1     5    1
    5     5     6    1
    6     5     7    1
    7     5     8    1
    8     8     9    1
    9     8    10    1
   10     8    11    1
   11    11    12    1
   12    11    13    1
   13    11    14    1
   14    14    15    1
   15    14    16    1
   16    14    17    1
   17    17    18    1
   18    17    19    1
   19    17    20    1
   20    20    21    1
   21    20    22    1
   22    20    23    1
@<TRIPOS>SUBSTRUCTURE
       1 MOL1            1 RESIDUE      1      MOL     
@<SCITEGIC>MOL_PROPERTY
VConf Rank
SciTegic.value.IntegerValue
739

@<SCITEGIC>MOL_PROPERTY
Conf_Id
SciTegic.value.IntegerValue
92

@<SCITEGIC>MOL_PROPERTY
Delta U+W
SciTegic.value.DoubleValue
0.973

@<SCITEGIC>MOL_PROPERTY
U+W
SciTegic.value.DoubleValue
-7.409

@<SCITEGIC>MOL_PROPERTY
Grad RMS
SciTegic.value.DoubleValue
0.000000

@<SCITEGIC>MOL_PROPERTY
U
SciTegic.value.DoubleValue
48.047

@<SCITEGIC>MOL_PROPERTY
W
SciTegic.value.DoubleValue
-55.456

@<SCITEGIC>MOL_PROPERTY
W(PB)
SciTegic.value.DoubleValue
-57.595

@<SCITEGIC>MOL_PROPERTY
W(SA)
SciTegic.value.DoubleValue
2.138

@<SCITEGIC>MOL_PROPERTY
Valence
SciTegic.value.DoubleValue
2.583

@<SCITEGIC>MOL_PROPERTY
Coulomb
SciTegic.value.DoubleValue
44.791

@<SCITEGIC>MOL_PROPERTY
VdW
SciTegic.value.DoubleValue
0.674

@<SCITEGIC>MOL_PROPERTY
VdW6
SciTegic.value.DoubleValue
-5.789

@<SCITEGIC>MOL_PROPERTY
VdW12
SciTegic.value.DoubleValue
6.462

@<SCITEGIC>MOL_PROPERTY
Bond
SciTegic.value.DoubleValue
0.177

@<SCITEGIC>MOL_PROPERTY
Angle
SciTegic.value.DoubleValue
0.787

@<SCITEGIC>MOL_PROPERTY
Pdih
SciTegic.value.DoubleValue
1.619

@<SCITEGIC>MOL_PROPERTY
Idih
SciTegic.value.DoubleValue
0.000

@<SCITEGIC>MOL_PROPERTY
Tether
SciTegic.value.DoubleValue
0.000

@<TRIPOS>MOLECULE
guest-2_confgen4.mol2 : confsearch ligand conformer 740
          23          22           1
SMALL
USER_CHARGES
 
@<TRIPOS>ATOM
       1    N1      20.758251   21.696477   20.592824 N.4        1 MOL1        -0.5940
       2    H1      20.346018   21.857054   19.667453 H          1 MOL1         0.3649
       3    H2      21.768692   21.840681   20.497600 H          1 MOL1         0.3649
       4    H3      20.404954   22.435874   21.208708 H          1 MOL1         0.3649
       5    C1      20.431718   20.315025   21.122676 C.3        1 MOL1         0.0207
       6    H4      20.810062   19.580640   20.406469 H          1 MOL1         0.0950
       7    H5      19.343607   20.222256   21.168529 H          1 MOL1         0.0950
       8    C2      21.037646   20.043016   22.512539 C.3        1 MOL1        -0.1415
       9    H6      22.125719   20.182998   22.463042 H          1 MOL1         0.0976
      10    H7      20.658230   20.781191   23.231662 H          1 MOL1         0.0976
      11    C3      20.738256   18.614976   23.026445 C.3        1 MOL1        -0.1375
      12    H8      21.275382   18.461461   23.972690 H          1 MOL1         0.0976
      13    H9      21.141623   17.878468   22.317572 H          1 MOL1         0.0976
      14    C4      19.229308   18.352974   23.249807 C.3        1 MOL1        -0.1375
      15    H10     18.822127   19.111042   23.933148 H          1 MOL1         0.0976
      16    H11     18.685852   18.455026   22.300967 H          1 MOL1         0.0976
      17    C5      18.971449   16.945286   23.831783 C.3        1 MOL1        -0.1350
      18    H12     19.504250   16.834691   24.786693 H          1 MOL1         0.0976
      19    H13     19.377514   16.182825   23.152266 H          1 MOL1         0.0976
      20    C6      17.466220   16.684556   24.052844 C.3        1 MOL1        -0.2365
      21    H14     17.038562   17.411893   24.755209 H          1 MOL1         0.0987
      22    H15     17.303355   15.680916   24.466639 H          1 MOL1         0.0987
      23    H16     16.910603   16.753703   23.108531 H          1 MOL1         0.0987
@<TRIPOS>BOND
    1     1     2    1
    2     1     3    1
    3     1     4    1
    4     1     5    1
    5     5     6    1
    6     5     7    1
    7     5     8    1
    8     8     9    1
    9     8    10    1
   10     8    11    1
   11    11    12    1
   12    11    13    1
   13    11    14    1
   14    14    15    1
   15    14    16    1
   16    14    17    1
   17    17    18    1
   18    17    19    1
   19    17    20    1
   20    20    21    1
   21    20    22    1
   22    20    23    1
@<TRIPOS>SUBSTRUCTURE
       1 MOL1            1 RESIDUE      1      MOL     
@<SCITEGIC>MOL_PROPERTY
VConf Rank
SciTegic.value.IntegerValue
740

@<SCITEGIC>MOL_PROPERTY
Conf_Id
SciTegic.value.IntegerValue
42

@<SCITEGIC>MOL_PROPERTY
Delta U+W
SciTegic.value.DoubleValue
0.365

@<SCITEGIC>MOL_PROPERTY
U+W
SciTegic.value.DoubleValue
-8.017

@<SCITEGIC>MOL_PROPERTY
Grad RMS
SciTegic.value.DoubleValue
0.000000

@<SCITEGIC>MOL_PROPERTY
U
SciTegic.value.DoubleValue
47.375

@<SCITEGIC>MOL_PROPERTY
W
SciTegic.value.DoubleValue
-55.392

@<SCITEGIC>MOL_PROPERTY
W(PB)
SciTegic.value.DoubleValue
-57.543

@<SCITEGIC>MOL_PROPERTY
W(SA)
SciTegic.value.DoubleValue
2.152

@<SCITEGIC>MOL_PROPERTY
Valence
SciTegic.value.DoubleValue
2.032

@<SCITEGIC>MOL_PROPERTY
Coulomb
SciTegic.value.DoubleValue
44.843

@<SCITEGIC>MOL_PROPERTY
VdW
SciTegic.value.DoubleValue
0.499

@<SCITEGIC>MOL_PROPERTY
VdW6
SciTegic.value.DoubleValue
-5.218

@<SCITEGIC>MOL_PROPERTY
VdW12
SciTegic.value.DoubleValue
5.717

@<SCITEGIC>MOL_PROPERTY
Bond
SciTegic.value.DoubleValue
0.135

@<SCITEGIC>MOL_PROPERTY
Angle
SciTegic.value.DoubleValue
0.514

@<SCITEGIC>MOL_PROPERTY
Pdih
SciTegic.value.DoubleValue
1.383

@<SCITEGIC>MOL_PROPERTY
Idih
SciTegic.value.DoubleValue
0.000

@<SCITEGIC>MOL_PROPERTY
Tether
SciTegic.value.DoubleValue
0.000

@<TRIPOS>MOLECULE
guest-2_confgen4.mol2 : confsearch ligand conformer 741
          23          22           1
SMALL
USER_CHARGES
 
@<TRIPOS>ATOM
       1    N1      19.615727   16.542137   24.642415 N.4        1 MOL1        -0.5940
       2    H1      19.238900   15.902474   23.935687 H          1 MOL1         0.3649
       3    H2      19.445483   16.110563   25.557134 H          1 MOL1         0.3649
       4    H3      20.631204   16.574055   24.511308 H          1 MOL1         0.3649
       5    C1      18.990981   17.920515   24.545708 C.3        1 MOL1         0.0207
       6    H4      19.416167   18.543138   25.337528 H          1 MOL1         0.0950
       7    H5      17.919935   17.811406   24.736825 H          1 MOL1         0.0950
       8    C2      19.197557   18.604510   23.180165 C.3        1 MOL1        -0.1415
       9    H6      18.794479   17.964690   22.384044 H          1 MOL1         0.0976
      10    H7      18.608648   19.529871   23.176518 H          1 MOL1         0.0976
      11    C3      20.682421   18.938457   22.896504 C.3        1 MOL1        -0.1375
      12    H8      21.288146   18.028999   23.002883 H          1 MOL1         0.0976
      13    H9      21.049257   19.640558   23.658010 H          1 MOL1         0.0976
      14    C4      20.947613   19.524981   21.485575 C.3        1 MOL1        -0.1375
      15    H10     22.031707   19.676867   21.389886 H          1 MOL1         0.0976
      16    H11     20.684045   18.787853   20.714601 H          1 MOL1         0.0976
      17    C5      20.244683   20.876846   21.197840 C.3        1 MOL1        -0.1350
      18    H12     20.910702   21.492534   20.577100 H          1 MOL1         0.0976
      19    H13     20.098326   21.438148   22.131177 H          1 MOL1         0.0976
      20    C6      18.901762   20.722515   20.446171 C.3        1 MOL1        -0.2365
      21    H14     19.050285   20.229403   19.476718 H          1 MOL1         0.0987
      22    H15     18.454361   21.706213   20.253600 H          1 MOL1         0.0987
      23    H16     18.174868   20.133087   21.015661 H          1 MOL1         0.0987
@<TRIPOS>BOND
    1     1     2    1
    2     1     3    1
    3     1     4    1
    4     1     5    1
    5     5     6    1
    6     5     7    1
    7     5     8    1
    8     8     9    1
    9     8    10    1
   10     8    11    1
   11    11    12    1
   12    11    13    1
   13    11    14    1
   14    14    15    1
   15    14    16    1
   16    14    17    1
   17    17    18    1
   18    17    19    1
   19    17    20    1
   20    20    21    1
   21    20    22    1
   22    20    23    1
@<TRIPOS>SUBSTRUCTURE
       1 MOL1            1 RESIDUE      1      MOL     
@<SCITEGIC>MOL_PROPERTY
VConf Rank
SciTegic.value.IntegerValue
741

@<SCITEGIC>MOL_PROPERTY
Conf_Id
SciTegic.value.IntegerValue
3

@<SCITEGIC>MOL_PROPERTY
Delta U+W
SciTegic.value.DoubleValue
3.283

@<SCITEGIC>MOL_PROPERTY
U+W
SciTegic.value.DoubleValue
-5.099

@<SCITEGIC>MOL_PROPERTY
Grad RMS
SciTegic.value.DoubleValue
0.000000

@<SCITEGIC>MOL_PROPERTY
U
SciTegic.value.DoubleValue
50.701

@<SCITEGIC>MOL_PROPERTY
W
SciTegic.value.DoubleValue
-55.800

@<SCITEGIC>MOL_PROPERTY
W(PB)
SciTegic.value.DoubleValue
-57.867

@<SCITEGIC>MOL_PROPERTY
W(SA)
SciTegic.value.DoubleValue
2.067

@<SCITEGIC>MOL_PROPERTY
Valence
SciTegic.value.DoubleValue
4.880

@<SCITEGIC>MOL_PROPERTY
Coulomb
SciTegic.value.DoubleValue
45.095

@<SCITEGIC>MOL_PROPERTY
VdW
SciTegic.value.DoubleValue
0.726

@<SCITEGIC>MOL_PROPERTY
VdW6
SciTegic.value.DoubleValue
-6.620

@<SCITEGIC>MOL_PROPERTY
VdW12
SciTegic.value.DoubleValue
7.346

@<SCITEGIC>MOL_PROPERTY
Bond
SciTegic.value.DoubleValue
0.222

@<SCITEGIC>MOL_PROPERTY
Angle
SciTegic.value.DoubleValue
1.260

@<SCITEGIC>MOL_PROPERTY
Pdih
SciTegic.value.DoubleValue
3.398

@<SCITEGIC>MOL_PROPERTY
Idih
SciTegic.value.DoubleValue
0.000

@<SCITEGIC>MOL_PROPERTY
Tether
SciTegic.value.DoubleValue
0.000

@<TRIPOS>MOLECULE
guest-2_confgen4.mol2 : confsearch ligand conformer 742
          23          22           1
SMALL
USER_CHARGES
 
@<TRIPOS>ATOM
       1    N1      22.025679   20.414487   21.291649 N.4        1 MOL1        -0.5940
       2    H1      21.863996   21.414761   21.137166 H          1 MOL1         0.3649
       3    H2      22.976483   20.211106   20.965393 H          1 MOL1         0.3649
       4    H3      22.015136   20.258318   22.304121 H          1 MOL1         0.3649
       5    C1      20.992228   19.561068   20.583167 C.3        1 MOL1         0.0207
       6    H4      21.238850   18.511448   20.761956 H          1 MOL1         0.0950
       7    H5      21.082580   19.751543   19.510282 H          1 MOL1         0.0950
       8    C2      19.543308   19.841758   21.031630 C.3        1 MOL1        -0.1415
       9    H6      19.292606   20.885190   20.798819 H          1 MOL1         0.0976
      10    H7      18.862736   19.223075   20.431702 H          1 MOL1         0.0976
      11    C3      19.281503   19.576864   22.535936 C.3        1 MOL1        -0.1375
      12    H8      18.239645   19.846493   22.752057 H          1 MOL1         0.0976
      13    H9      19.902993   20.244723   23.147053 H          1 MOL1         0.0976
      14    C4      19.531650   18.103905   22.948542 C.3        1 MOL1        -0.1375
      15    H10     18.888831   17.439003   22.355367 H          1 MOL1         0.0976
      16    H11     20.566704   17.825834   22.710438 H          1 MOL1         0.0976
      17    C5      19.297726   17.838103   24.455551 C.3        1 MOL1        -0.1350
      18    H12     19.946287   18.493006   25.054046 H          1 MOL1         0.0976
      19    H13     19.607523   16.808509   24.683204 H          1 MOL1         0.0976
      20    C6      17.826695   18.021676   24.893402 C.3        1 MOL1        -0.2365
      21    H14     17.153737   17.401708   24.286958 H          1 MOL1         0.0987
      22    H15     17.505944   19.066863   24.804246 H          1 MOL1         0.0987
      23    H16     17.699120   17.726926   25.943060 H          1 MOL1         0.0987
@<TRIPOS>BOND
    1     1     2    1
    2     1     3    1
    3     1     4    1
    4     1     5    1
    5     5     6    1
    6     5     7    1
    7     5     8    1
    8     8     9    1
    9     8    10    1
   10     8    11    1
   11    11    12    1
   12    11    13    1
   13    11    14    1
   14    14    15    1
   15    14    16    1
   16    14    17    1
   17    17    18    1
   18    17    19    1
   19    17    20    1
   20    20    21    1
   21    20    22    1
   22    20    23    1
@<TRIPOS>SUBSTRUCTURE
       1 MOL1            1 RESIDUE      1      MOL     
@<SCITEGIC>MOL_PROPERTY
VConf Rank
SciTegic.value.IntegerValue
742

@<SCITEGIC>MOL_PROPERTY
Conf_Id
SciTegic.value.IntegerValue
83

@<SCITEGIC>MOL_PROPERTY
Delta U+W
SciTegic.value.DoubleValue
1.229

@<SCITEGIC>MOL_PROPERTY
U+W
SciTegic.value.DoubleValue
-7.154

@<SCITEGIC>MOL_PROPERTY
Grad RMS
SciTegic.value.DoubleValue
0.000000

@<SCITEGIC>MOL_PROPERTY
U
SciTegic.value.DoubleValue
48.727

@<SCITEGIC>MOL_PROPERTY
W
SciTegic.value.DoubleValue
-55.880

@<SCITEGIC>MOL_PROPERTY
W(PB)
SciTegic.value.DoubleValue
-57.960

@<SCITEGIC>MOL_PROPERTY
W(SA)
SciTegic.value.DoubleValue
2.080

@<SCITEGIC>MOL_PROPERTY
Valence
SciTegic.value.DoubleValue
2.671

@<SCITEGIC>MOL_PROPERTY
Coulomb
SciTegic.value.DoubleValue
45.371

@<SCITEGIC>MOL_PROPERTY
VdW
SciTegic.value.DoubleValue
0.684

@<SCITEGIC>MOL_PROPERTY
VdW6
SciTegic.value.DoubleValue
-6.511

@<SCITEGIC>MOL_PROPERTY
VdW12
SciTegic.value.DoubleValue
7.195

@<SCITEGIC>MOL_PROPERTY
Bond
SciTegic.value.DoubleValue
0.203

@<SCITEGIC>MOL_PROPERTY
Angle
SciTegic.value.DoubleValue
0.915

@<SCITEGIC>MOL_PROPERTY
Pdih
SciTegic.value.DoubleValue
1.554

@<SCITEGIC>MOL_PROPERTY
Idih
SciTegic.value.DoubleValue
0.000

@<SCITEGIC>MOL_PROPERTY
Tether
SciTegic.value.DoubleValue
0.000

@<TRIPOS>MOLECULE
guest-2_confgen4.mol2 : confsearch ligand conformer 743
          23          22           1
SMALL
USER_CHARGES
 
@<TRIPOS>ATOM
       1    N1      21.391754   20.881270   24.065937 N.4        1 MOL1        -0.5940
       2    H1      22.203537   20.435829   24.505419 H          1 MOL1         0.3649
       3    H2      20.554116   20.468739   24.487580 H          1 MOL1         0.3649
       4    H3      21.409662   21.870182   24.337169 H          1 MOL1         0.3649
       5    C1      21.402214   20.709830   22.559685 C.3        1 MOL1         0.0207
       6    H4      22.300491   21.200637   22.175324 H          1 MOL1         0.0950
       7    H5      20.532013   21.231159   22.152920 H          1 MOL1         0.0950
       8    C2      21.390015   19.236503   22.103135 C.3        1 MOL1        -0.1415
       9    H6      21.454124   19.206731   21.007296 H          1 MOL1         0.0976
      10    H7      22.295402   18.739131   22.475559 H          1 MOL1         0.0976
      11    C3      20.143234   18.439338   22.563259 C.3        1 MOL1        -0.1375
      12    H8      20.109736   18.397608   23.660020 H          1 MOL1         0.0976
      13    H9      20.257788   17.402523   22.221546 H          1 MOL1         0.0976
      14    C4      18.813003   19.020006   22.019439 C.3        1 MOL1        -0.1375
      15    H10     18.709117   20.064755   22.340472 H          1 MOL1         0.0976
      16    H11     18.837283   19.035225   20.921100 H          1 MOL1         0.0976
      17    C5      17.561374   18.244313   22.497108 C.3        1 MOL1        -0.1350
      18    H12     16.664353   18.786073   22.165879 H          1 MOL1         0.0976
      19    H13     17.525994   18.235012   23.595465 H          1 MOL1         0.0976
      20    C6      17.491742   16.795806   21.962017 C.3        1 MOL1        -0.2365
      21    H14     17.558709   16.775738   20.866517 H          1 MOL1         0.0987
      22    H15     16.541830   16.326167   22.248445 H          1 MOL1         0.0987
      23    H16     18.300449   16.175739   22.367915 H          1 MOL1         0.0987
@<TRIPOS>BOND
    1     1     2    1
    2     1     3    1
    3     1     4    1
    4     1     5    1
    5     5     6    1
    6     5     7    1
    7     5     8    1
    8     8     9    1
    9     8    10    1
   10     8    11    1
   11    11    12    1
   12    11    13    1
   13    11    14    1
   14    14    15    1
   15    14    16    1
   16    14    17    1
   17    17    18    1
   18    17    19    1
   19    17    20    1
   20    20    21    1
   21    20    22    1
   22    20    23    1
@<TRIPOS>SUBSTRUCTURE
       1 MOL1            1 RESIDUE      1      MOL     
@<SCITEGIC>MOL_PROPERTY
VConf Rank
SciTegic.value.IntegerValue
743

@<SCITEGIC>MOL_PROPERTY
Conf_Id
SciTegic.value.IntegerValue
50

@<SCITEGIC>MOL_PROPERTY
Delta U+W
SciTegic.value.DoubleValue
1.252

@<SCITEGIC>MOL_PROPERTY
U+W
SciTegic.value.DoubleValue
-7.130

@<SCITEGIC>MOL_PROPERTY
Grad RMS
SciTegic.value.DoubleValue
0.000000

@<SCITEGIC>MOL_PROPERTY
U
SciTegic.value.DoubleValue
48.727

@<SCITEGIC>MOL_PROPERTY
W
SciTegic.value.DoubleValue
-55.857

@<SCITEGIC>MOL_PROPERTY
W(PB)
SciTegic.value.DoubleValue
-57.937

@<SCITEGIC>MOL_PROPERTY
W(SA)
SciTegic.value.DoubleValue
2.080

@<SCITEGIC>MOL_PROPERTY
Valence
SciTegic.value.DoubleValue
2.671

@<SCITEGIC>MOL_PROPERTY
Coulomb
SciTegic.value.DoubleValue
45.371

@<SCITEGIC>MOL_PROPERTY
VdW
SciTegic.value.DoubleValue
0.684

@<SCITEGIC>MOL_PROPERTY
VdW6
SciTegic.value.DoubleValue
-6.511

@<SCITEGIC>MOL_PROPERTY
VdW12
SciTegic.value.DoubleValue
7.196

@<SCITEGIC>MOL_PROPERTY
Bond
SciTegic.value.DoubleValue
0.203

@<SCITEGIC>MOL_PROPERTY
Angle
SciTegic.value.DoubleValue
0.915

@<SCITEGIC>MOL_PROPERTY
Pdih
SciTegic.value.DoubleValue
1.554

@<SCITEGIC>MOL_PROPERTY
Idih
SciTegic.value.DoubleValue
0.000

@<SCITEGIC>MOL_PROPERTY
Tether
SciTegic.value.DoubleValue
0.000

@<TRIPOS>MOLECULE
guest-2_confgen4.mol2 : confsearch ligand conformer 744
          23          22           1
SMALL
USER_CHARGES
 
@<TRIPOS>ATOM
       1    N1      17.121847   19.864612   21.109701 N.4        1 MOL1        -0.5940
       2    H1      16.777510   19.236904   21.842469 H          1 MOL1         0.3649
       3    H2      16.525413   19.721118   20.287750 H          1 MOL1         0.3649
       4    H3      16.960542   20.824176   21.431947 H          1 MOL1         0.3649
       5    C1      18.583764   19.613768   20.794871 C.3        1 MOL1         0.0207
       6    H4      18.867673   20.287007   19.981411 H          1 MOL1         0.0950
       7    H5      18.682062   18.585725   20.435876 H          1 MOL1         0.0950
       8    C2      19.525810   19.836265   21.993956 C.3        1 MOL1        -0.1415
       9    H6      20.558575   19.739247   21.640902 H          1 MOL1         0.0976
      10    H7      19.419662   20.868191   22.353995 H          1 MOL1         0.0976
      11    C3      19.259830   18.843774   23.154512 C.3        1 MOL1        -0.1375
      12    H8      19.270088   17.809598   22.783390 H          1 MOL1         0.0976
      13    H9      18.246040   19.019641   23.538295 H          1 MOL1         0.0976
      14    C4      20.256016   18.995002   24.333855 C.3        1 MOL1        -0.1375
      15    H10     20.612117   20.032169   24.402189 H          1 MOL1         0.0976
      16    H11     19.710253   18.807872   25.269064 H          1 MOL1         0.0976
      17    C5      21.460020   18.019281   24.294498 C.3        1 MOL1        -0.1350
      18    H12     21.095592   16.983060   24.329336 H          1 MOL1         0.0976
      19    H13     22.054865   18.162819   25.207389 H          1 MOL1         0.0976
      20    C6      22.383492   18.196238   23.069379 C.3        1 MOL1        -0.2365
      21    H14     22.718584   19.237008   22.972699 H          1 MOL1         0.0987
      22    H15     21.875868   17.903917   22.141941 H          1 MOL1         0.0987
      23    H16     23.275615   17.564255   23.167374 H          1 MOL1         0.0987
@<TRIPOS>BOND
    1     1     2    1
    2     1     3    1
    3     1     4    1
    4     1     5    1
    5     5     6    1
    6     5     7    1
    7     5     8    1
    8     8     9    1
    9     8    10    1
   10     8    11    1
   11    11    12    1
   12    11    13    1
   13    11    14    1
   14    14    15    1
   15    14    16    1
   16    14    17    1
   17    17    18    1
   18    17    19    1
   19    17    20    1
   20    20    21    1
   21    20    22    1
   22    20    23    1
@<TRIPOS>SUBSTRUCTURE
       1 MOL1            1 RESIDUE      1      MOL     
@<SCITEGIC>MOL_PROPERTY
VConf Rank
SciTegic.value.IntegerValue
744

@<SCITEGIC>MOL_PROPERTY
Conf_Id
SciTegic.value.IntegerValue
55

@<SCITEGIC>MOL_PROPERTY
Delta U+W
SciTegic.value.DoubleValue
3.232

@<SCITEGIC>MOL_PROPERTY
U+W
SciTegic.value.DoubleValue
-5.150

@<SCITEGIC>MOL_PROPERTY
Grad RMS
SciTegic.value.DoubleValue
0.000000

@<SCITEGIC>MOL_PROPERTY
U
SciTegic.value.DoubleValue
50.625

@<SCITEGIC>MOL_PROPERTY
W
SciTegic.value.DoubleValue
-55.776

@<SCITEGIC>MOL_PROPERTY
W(PB)
SciTegic.value.DoubleValue
-57.839

@<SCITEGIC>MOL_PROPERTY
W(SA)
SciTegic.value.DoubleValue
2.064

@<SCITEGIC>MOL_PROPERTY
Valence
SciTegic.value.DoubleValue
4.837

@<SCITEGIC>MOL_PROPERTY
Coulomb
SciTegic.value.DoubleValue
45.097

@<SCITEGIC>MOL_PROPERTY
VdW
SciTegic.value.DoubleValue
0.692

@<SCITEGIC>MOL_PROPERTY
VdW6
SciTegic.value.DoubleValue
-6.655

@<SCITEGIC>MOL_PROPERTY
VdW12
SciTegic.value.DoubleValue
7.347

@<SCITEGIC>MOL_PROPERTY
Bond
SciTegic.value.DoubleValue
0.223

@<SCITEGIC>MOL_PROPERTY
Angle
SciTegic.value.DoubleValue
1.167

@<SCITEGIC>MOL_PROPERTY
Pdih
SciTegic.value.DoubleValue
3.447

@<SCITEGIC>MOL_PROPERTY
Idih
SciTegic.value.DoubleValue
0.000

@<SCITEGIC>MOL_PROPERTY
Tether
SciTegic.value.DoubleValue
0.000

@<TRIPOS>MOLECULE
guest-2_confgen4.mol2 : confsearch ligand conformer 745
          23          22           1
SMALL
USER_CHARGES
 
@<TRIPOS>ATOM
       1    N1      20.678804   17.516740   19.980260 N.4        1 MOL1        -0.5940
       2    H1      21.332652   16.727282   19.988499 H          1 MOL1         0.3649
       3    H2      20.847892   18.034139   19.110946 H          1 MOL1         0.3649
       4    H3      19.733930   17.124697   19.914907 H          1 MOL1         0.3649
       5    C1      20.842261   18.398559   21.201459 C.3        1 MOL1         0.0207
       6    H4      20.144073   19.232143   21.106538 H          1 MOL1         0.0950
       7    H5      21.858255   18.802343   21.190716 H          1 MOL1         0.0950
       8    C2      20.600851   17.645851   22.524689 C.3        1 MOL1        -0.1415
       9    H6      19.599679   17.194761   22.530695 H          1 MOL1         0.0976
      10    H7      21.315879   16.814061   22.578337 H          1 MOL1         0.0976
      11    C3      20.790182   18.539798   23.776278 C.3        1 MOL1        -0.1375
      12    H8      21.624691   19.237054   23.618068 H          1 MOL1         0.0976
      13    H9      21.095938   17.895956   24.612627 H          1 MOL1         0.0976
      14    C4      19.524215   19.316223   24.223453 C.3        1 MOL1        -0.1375
      15    H10     18.728728   18.602784   24.479379 H          1 MOL1         0.0976
      16    H11     19.762717   19.851973   25.152716 H          1 MOL1         0.0976
      17    C5      18.989554   20.329260   23.184994 C.3        1 MOL1        -0.1350
      18    H12     18.600109   19.795692   22.308323 H          1 MOL1         0.0976
      19    H13     19.807684   20.975315   22.837208 H          1 MOL1         0.0976
      20    C6      17.860894   21.203688   23.771664 C.3        1 MOL1        -0.2365
      21    H14     18.218263   21.787122   24.630213 H          1 MOL1         0.0987
      22    H15     17.016552   20.586421   24.105309 H          1 MOL1         0.0987
      23    H16     17.485835   21.908927   23.018671 H          1 MOL1         0.0987
@<TRIPOS>BOND
    1     1     2    1
    2     1     3    1
    3     1     4    1
    4     1     5    1
    5     5     6    1
    6     5     7    1
    7     5     8    1
    8     8     9    1
    9     8    10    1
   10     8    11    1
   11    11    12    1
   12    11    13    1
   13    11    14    1
   14    14    15    1
   15    14    16    1
   16    14    17    1
   17    17    18    1
   18    17    19    1
   19    17    20    1
   20    20    21    1
   21    20    22    1
   22    20    23    1
@<TRIPOS>SUBSTRUCTURE
       1 MOL1            1 RESIDUE      1      MOL     
@<SCITEGIC>MOL_PROPERTY
VConf Rank
SciTegic.value.IntegerValue
745

@<SCITEGIC>MOL_PROPERTY
Conf_Id
SciTegic.value.IntegerValue
93

@<SCITEGIC>MOL_PROPERTY
Delta U+W
SciTegic.value.DoubleValue
2.589

@<SCITEGIC>MOL_PROPERTY
U+W
SciTegic.value.DoubleValue
-5.793

@<SCITEGIC>MOL_PROPERTY
Grad RMS
SciTegic.value.DoubleValue
0.000000

@<SCITEGIC>MOL_PROPERTY
U
SciTegic.value.DoubleValue
50.122

@<SCITEGIC>MOL_PROPERTY
W
SciTegic.value.DoubleValue
-55.915

@<SCITEGIC>MOL_PROPERTY
W(PB)
SciTegic.value.DoubleValue
-58.031

@<SCITEGIC>MOL_PROPERTY
W(SA)
SciTegic.value.DoubleValue
2.115

@<SCITEGIC>MOL_PROPERTY
Valence
SciTegic.value.DoubleValue
4.132

@<SCITEGIC>MOL_PROPERTY
Coulomb
SciTegic.value.DoubleValue
45.536

@<SCITEGIC>MOL_PROPERTY
VdW
SciTegic.value.DoubleValue
0.454

@<SCITEGIC>MOL_PROPERTY
VdW6
SciTegic.value.DoubleValue
-6.262

@<SCITEGIC>MOL_PROPERTY
VdW12
SciTegic.value.DoubleValue
6.715

@<SCITEGIC>MOL_PROPERTY
Bond
SciTegic.value.DoubleValue
0.182

@<SCITEGIC>MOL_PROPERTY
Angle
SciTegic.value.DoubleValue
1.157

@<SCITEGIC>MOL_PROPERTY
Pdih
SciTegic.value.DoubleValue
2.794

@<SCITEGIC>MOL_PROPERTY
Idih
SciTegic.value.DoubleValue
0.000

@<SCITEGIC>MOL_PROPERTY
Tether
SciTegic.value.DoubleValue
0.000

@<TRIPOS>MOLECULE
guest-2_confgen4.mol2 : confsearch ligand conformer 746
          23          22           1
SMALL
USER_CHARGES
 
@<TRIPOS>ATOM
       1    N1      19.115992   20.101513   19.733398 N.4        1 MOL1        -0.5940
       2    H1      19.167247   19.150571   19.354136 H          1 MOL1         0.3649
       3    H2      19.818515   20.659298   19.236070 H          1 MOL1         0.3649
       4    H3      18.198810   20.479738   19.475424 H          1 MOL1         0.3649
       5    C1      19.335768   20.125435   21.232322 C.3        1 MOL1         0.0207
       6    H4      19.296495   21.167455   21.561033 H          1 MOL1         0.0950
       7    H5      20.339806   19.744759   21.428114 H          1 MOL1         0.0950
       8    C2      18.289701   19.300693   22.007777 C.3        1 MOL1        -0.1415
       9    H6      17.296461   19.709662   21.779220 H          1 MOL1         0.0976
      10    H7      18.285211   18.260666   21.655377 H          1 MOL1         0.0976
      11    C3      18.498407   19.342441   23.542757 C.3        1 MOL1        -0.1375
      12    H8      17.521911   19.193763   24.024265 H          1 MOL1         0.0976
      13    H9      18.831542   20.343482   23.850234 H          1 MOL1         0.0976
      14    C4      19.463388   18.264448   24.101519 C.3        1 MOL1        -0.1375
      15    H10     19.473275   18.349852   25.196986 H          1 MOL1         0.0976
      16    H11     19.064746   17.265238   23.878010 H          1 MOL1         0.0976
      17    C5      20.914866   18.365967   23.578634 C.3        1 MOL1        -0.1350
      18    H12     21.282855   19.395009   23.694101 H          1 MOL1         0.0976
      19    H13     20.943979   18.127420   22.507577 H          1 MOL1         0.0976
      20    C6      21.857796   17.398388   24.325195 C.3        1 MOL1        -0.2365
      21    H14     22.880730   17.475478   23.934438 H          1 MOL1         0.0987
      22    H15     21.529386   16.357544   24.206695 H          1 MOL1         0.0987
      23    H16     21.889812   17.626781   25.398520 H          1 MOL1         0.0987
@<TRIPOS>BOND
    1     1     2    1
    2     1     3    1
    3     1     4    1
    4     1     5    1
    5     5     6    1
    6     5     7    1
    7     5     8    1
    8     8     9    1
    9     8    10    1
   10     8    11    1
   11    11    12    1
   12    11    13    1
   13    11    14    1
   14    14    15    1
   15    14    16    1
   16    14    17    1
   17    17    18    1
   18    17    19    1
   19    17    20    1
   20    20    21    1
   21    20    22    1
   22    20    23    1
@<TRIPOS>SUBSTRUCTURE
       1 MOL1            1 RESIDUE      1      MOL     
@<SCITEGIC>MOL_PROPERTY
VConf Rank
SciTegic.value.IntegerValue
746

@<SCITEGIC>MOL_PROPERTY
Conf_Id
SciTegic.value.IntegerValue
70

@<SCITEGIC>MOL_PROPERTY
Delta U+W
SciTegic.value.DoubleValue
2.599

@<SCITEGIC>MOL_PROPERTY
U+W
SciTegic.value.DoubleValue
-5.783

@<SCITEGIC>MOL_PROPERTY
Grad RMS
SciTegic.value.DoubleValue
0.000000

@<SCITEGIC>MOL_PROPERTY
U
SciTegic.value.DoubleValue
50.122

@<SCITEGIC>MOL_PROPERTY
W
SciTegic.value.DoubleValue
-55.906

@<SCITEGIC>MOL_PROPERTY
W(PB)
SciTegic.value.DoubleValue
-58.010

@<SCITEGIC>MOL_PROPERTY
W(SA)
SciTegic.value.DoubleValue
2.105

@<SCITEGIC>MOL_PROPERTY
Valence
SciTegic.value.DoubleValue
4.132

@<SCITEGIC>MOL_PROPERTY
Coulomb
SciTegic.value.DoubleValue
45.536

@<SCITEGIC>MOL_PROPERTY
VdW
SciTegic.value.DoubleValue
0.454

@<SCITEGIC>MOL_PROPERTY
VdW6
SciTegic.value.DoubleValue
-6.262

@<SCITEGIC>MOL_PROPERTY
VdW12
SciTegic.value.DoubleValue
6.715

@<SCITEGIC>MOL_PROPERTY
Bond
SciTegic.value.DoubleValue
0.182

@<SCITEGIC>MOL_PROPERTY
Angle
SciTegic.value.DoubleValue
1.157

@<SCITEGIC>MOL_PROPERTY
Pdih
SciTegic.value.DoubleValue
2.794

@<SCITEGIC>MOL_PROPERTY
Idih
SciTegic.value.DoubleValue
0.000

@<SCITEGIC>MOL_PROPERTY
Tether
SciTegic.value.DoubleValue
0.000

@<TRIPOS>MOLECULE
guest-2_confgen4.mol2 : confsearch ligand conformer 747
          23          22           1
SMALL
USER_CHARGES
 
@<TRIPOS>ATOM
       1    N1      18.310453   21.214645   23.511632 N.4        1 MOL1        -0.5940
       2    H1      17.538694   21.156923   24.183617 H          1 MOL1         0.3649
       3    H2      18.284228   22.156158   23.105887 H          1 MOL1         0.3649
       4    H3      19.182209   21.140297   24.044530 H          1 MOL1         0.3649
       5    C1      18.211794   20.139228   22.447687 C.3        1 MOL1         0.0207
       6    H4      19.040234   20.276691   21.747875 H          1 MOL1         0.0950
       7    H5      17.277075   20.295053   21.902237 H          1 MOL1         0.0950
       8    C2      18.241660   18.705256   23.013914 C.3        1 MOL1        -0.1415
       9    H6      17.386033   18.567739   23.688234 H          1 MOL1         0.0976
      10    H7      18.089759   17.996011   22.190317 H          1 MOL1         0.0976
      11    C3      19.549192   18.353785   23.771431 C.3        1 MOL1        -0.1375
      12    H8      19.496575   17.307101   24.101414 H          1 MOL1         0.0976
      13    H9      19.606766   18.951720   24.690883 H          1 MOL1         0.0976
      14    C4      20.852088   18.562271   22.956694 C.3        1 MOL1        -0.1375
      15    H10     20.969451   19.623068   22.698187 H          1 MOL1         0.0976
      16    H11     21.706633   18.311669   23.600348 H          1 MOL1         0.0976
      17    C5      20.922079   17.702717   21.672498 C.3        1 MOL1        -0.1350
      18    H12     20.116765   17.986832   20.982073 H          1 MOL1         0.0976
      19    H13     20.766785   16.644589   21.925407 H          1 MOL1         0.0976
      20    C6      22.278202   17.863514   20.953154 C.3        1 MOL1        -0.2365
      21    H14     22.309799   17.249472   20.043776 H          1 MOL1         0.0987
      22    H15     23.108161   17.550133   21.599802 H          1 MOL1         0.0987
      23    H16     22.448182   18.907883   20.660569 H          1 MOL1         0.0987
@<TRIPOS>BOND
    1     1     2    1
    2     1     3    1
    3     1     4    1
    4     1     5    1
    5     5     6    1
    6     5     7    1
    7     5     8    1
    8     8     9    1
    9     8    10    1
   10     8    11    1
   11    11    12    1
   12    11    13    1
   13    11    14    1
   14    14    15    1
   15    14    16    1
   16    14    17    1
   17    17    18    1
   18    17    19    1
   19    17    20    1
   20    20    21    1
   21    20    22    1
   22    20    23    1
@<TRIPOS>SUBSTRUCTURE
       1 MOL1            1 RESIDUE      1      MOL     
@<SCITEGIC>MOL_PROPERTY
VConf Rank
SciTegic.value.IntegerValue
747

@<SCITEGIC>MOL_PROPERTY
Conf_Id
SciTegic.value.IntegerValue
72

@<SCITEGIC>MOL_PROPERTY
Delta U+W
SciTegic.value.DoubleValue
1.051

@<SCITEGIC>MOL_PROPERTY
U+W
SciTegic.value.DoubleValue
-7.331

@<SCITEGIC>MOL_PROPERTY
Grad RMS
SciTegic.value.DoubleValue
0.000000

@<SCITEGIC>MOL_PROPERTY
U
SciTegic.value.DoubleValue
48.590

@<SCITEGIC>MOL_PROPERTY
W
SciTegic.value.DoubleValue
-55.922

@<SCITEGIC>MOL_PROPERTY
W(PB)
SciTegic.value.DoubleValue
-58.012

@<SCITEGIC>MOL_PROPERTY
W(SA)
SciTegic.value.DoubleValue
2.090

@<SCITEGIC>MOL_PROPERTY
Valence
SciTegic.value.DoubleValue
2.601

@<SCITEGIC>MOL_PROPERTY
Coulomb
SciTegic.value.DoubleValue
45.520

@<SCITEGIC>MOL_PROPERTY
VdW
SciTegic.value.DoubleValue
0.469

@<SCITEGIC>MOL_PROPERTY
VdW6
SciTegic.value.DoubleValue
-6.867

@<SCITEGIC>MOL_PROPERTY
VdW12
SciTegic.value.DoubleValue
7.336

@<SCITEGIC>MOL_PROPERTY
Bond
SciTegic.value.DoubleValue
0.205

@<SCITEGIC>MOL_PROPERTY
Angle
SciTegic.value.DoubleValue
0.962

@<SCITEGIC>MOL_PROPERTY
Pdih
SciTegic.value.DoubleValue
1.434

@<SCITEGIC>MOL_PROPERTY
Idih
SciTegic.value.DoubleValue
0.000

@<SCITEGIC>MOL_PROPERTY
Tether
SciTegic.value.DoubleValue
0.000

@<TRIPOS>MOLECULE
guest-2_confgen4.mol2 : confsearch ligand conformer 748
          23          22           1
SMALL
USER_CHARGES
 
@<TRIPOS>ATOM
       1    N1      20.017239   19.337564   25.712924 N.4        1 MOL1        -0.5940
       2    H1      20.439218   20.101943   26.251084 H          1 MOL1         0.3649
       3    H2      20.182908   18.474877   26.241230 H          1 MOL1         0.3649
       4    H3      19.005040   19.499122   25.708929 H          1 MOL1         0.3649
       5    C1      20.583007   19.258053   24.309634 C.3        1 MOL1         0.0207
       6    H4      21.663993   19.114570   24.388581 H          1 MOL1         0.0950
       7    H5      20.397981   20.216698   23.818006 H          1 MOL1         0.0950
       8    C2      19.969051   18.119089   23.474386 C.3        1 MOL1        -0.1415
       9    H6      20.127822   17.165646   23.995411 H          1 MOL1         0.0976
      10    H7      18.882222   18.254983   23.405343 H          1 MOL1         0.0976
      11    C3      20.581894   18.021326   22.055256 C.3        1 MOL1        -0.1375
      12    H8      20.119720   17.180041   21.521792 H          1 MOL1         0.0976
      13    H9      21.646552   17.765099   22.145602 H          1 MOL1         0.0976
      14    C4      20.454247   19.311016   21.200175 C.3        1 MOL1        -0.1375
      15    H10     21.056680   20.110049   21.652859 H          1 MOL1         0.0976
      16    H11     20.904467   19.124561   20.215438 H          1 MOL1         0.0976
      17    C5      19.007019   19.827647   20.998081 C.3        1 MOL1        -0.1350
      18    H12     19.043816   20.744346   20.393101 H          1 MOL1         0.0976
      19    H13     18.570425   20.121341   21.962055 H          1 MOL1         0.0976
      20    C6      18.083800   18.805767   20.296695 C.3        1 MOL1        -0.2365
      21    H14     18.506609   18.487484   19.334994 H          1 MOL1         0.0987
      22    H15     17.098791   19.248587   20.100454 H          1 MOL1         0.0987
      23    H16     17.927662   17.913532   20.915643 H          1 MOL1         0.0987
@<TRIPOS>BOND
    1     1     2    1
    2     1     3    1
    3     1     4    1
    4     1     5    1
    5     5     6    1
    6     5     7    1
    7     5     8    1
    8     8     9    1
    9     8    10    1
   10     8    11    1
   11    11    12    1
   12    11    13    1
   13    11    14    1
   14    14    15    1
   15    14    16    1
   16    14    17    1
   17    17    18    1
   18    17    19    1
   19    17    20    1
   20    20    21    1
   21    20    22    1
   22    20    23    1
@<TRIPOS>SUBSTRUCTURE
       1 MOL1            1 RESIDUE      1      MOL     
@<SCITEGIC>MOL_PROPERTY
VConf Rank
SciTegic.value.IntegerValue
748

@<SCITEGIC>MOL_PROPERTY
Conf_Id
SciTegic.value.IntegerValue
26

@<SCITEGIC>MOL_PROPERTY
Delta U+W
SciTegic.value.DoubleValue
1.076

@<SCITEGIC>MOL_PROPERTY
U+W
SciTegic.value.DoubleValue
-7.306

@<SCITEGIC>MOL_PROPERTY
Grad RMS
SciTegic.value.DoubleValue
0.000000

@<SCITEGIC>MOL_PROPERTY
U
SciTegic.value.DoubleValue
48.641

@<SCITEGIC>MOL_PROPERTY
W
SciTegic.value.DoubleValue
-55.947

@<SCITEGIC>MOL_PROPERTY
W(PB)
SciTegic.value.DoubleValue
-58.031

@<SCITEGIC>MOL_PROPERTY
W(SA)
SciTegic.value.DoubleValue
2.084

@<SCITEGIC>MOL_PROPERTY
Valence
SciTegic.value.DoubleValue
2.922

@<SCITEGIC>MOL_PROPERTY
Coulomb
SciTegic.value.DoubleValue
45.269

@<SCITEGIC>MOL_PROPERTY
VdW
SciTegic.value.DoubleValue
0.449

@<SCITEGIC>MOL_PROPERTY
VdW6
SciTegic.value.DoubleValue
-7.045

@<SCITEGIC>MOL_PROPERTY
VdW12
SciTegic.value.DoubleValue
7.494

@<SCITEGIC>MOL_PROPERTY
Bond
SciTegic.value.DoubleValue
0.220

@<SCITEGIC>MOL_PROPERTY
Angle
SciTegic.value.DoubleValue
1.205

@<SCITEGIC>MOL_PROPERTY
Pdih
SciTegic.value.DoubleValue
1.497

@<SCITEGIC>MOL_PROPERTY
Idih
SciTegic.value.DoubleValue
0.000

@<SCITEGIC>MOL_PROPERTY
Tether
SciTegic.value.DoubleValue
0.000

@<TRIPOS>MOLECULE
guest-2_confgen4.mol2 : confsearch ligand conformer 749
          23          22           1
SMALL
USER_CHARGES
 
@<TRIPOS>ATOM
       1    N1      17.734401   19.187119   20.280993 N.4        1 MOL1        -0.5940
       2    H1      18.137885   19.188271   19.338665 H          1 MOL1         0.3649
       3    H2      16.850861   19.705213   20.227192 H          1 MOL1         0.3649
       4    H3      17.497164   18.215725   20.506325 H          1 MOL1         0.3649
       5    C1      18.679096   19.789925   21.300704 C.3        1 MOL1         0.0207
       6    H4      18.174869   19.783839   22.270576 H          1 MOL1         0.0950
       7    H5      18.865522   20.828955   21.016081 H          1 MOL1         0.0950
       8    C2      20.016667   19.033872   21.406090 C.3        1 MOL1        -0.1415
       9    H6      19.829920   17.987420   21.679033 H          1 MOL1         0.0976
      10    H7      20.496741   19.013767   20.418743 H          1 MOL1         0.0976
      11    C3      20.990337   19.680702   22.422278 C.3        1 MOL1        -0.1375
      12    H8      21.259118   20.684818   22.066161 H          1 MOL1         0.0976
      13    H9      21.928609   19.110202   22.433617 H          1 MOL1         0.0976
      14    C4      20.438089   19.800056   23.868492 C.3        1 MOL1        -0.1375
      15    H10     21.211835   20.254232   24.502692 H          1 MOL1         0.0976
      16    H11     19.596158   20.505257   23.880522 H          1 MOL1         0.0976
      17    C5      19.983609   18.465782   24.512995 C.3        1 MOL1        -0.1350
      18    H12     19.137143   18.043379   23.955150 H          1 MOL1         0.0976
      19    H13     19.603299   18.676208   25.522341 H          1 MOL1         0.0976
      20    C6      21.115278   17.418334   24.616410 C.3        1 MOL1        -0.2365
      21    H14     21.454752   17.093608   23.625013 H          1 MOL1         0.0987
      22    H15     20.766883   16.527499   25.154812 H          1 MOL1         0.0987
      23    H16     21.978742   17.823080   25.160056 H          1 MOL1         0.0987
@<TRIPOS>BOND
    1     1     2    1
    2     1     3    1
    3     1     4    1
    4     1     5    1
    5     5     6    1
    6     5     7    1
    7     5     8    1
    8     8     9    1
    9     8    10    1
   10     8    11    1
   11    11    12    1
   12    11    13    1
   13    11    14    1
   14    14    15    1
   15    14    16    1
   16    14    17    1
   17    17    18    1
   18    17    19    1
   19    17    20    1
   20    20    21    1
   21    20    22    1
   22    20    23    1
@<TRIPOS>SUBSTRUCTURE
       1 MOL1            1 RESIDUE      1      MOL     
@<SCITEGIC>MOL_PROPERTY
VConf Rank
SciTegic.value.IntegerValue
749

@<SCITEGIC>MOL_PROPERTY
Conf_Id
SciTegic.value.IntegerValue
90

@<SCITEGIC>MOL_PROPERTY
Delta U+W
SciTegic.value.DoubleValue
1.131

@<SCITEGIC>MOL_PROPERTY
U+W
SciTegic.value.DoubleValue
-7.251

@<SCITEGIC>MOL_PROPERTY
Grad RMS
SciTegic.value.DoubleValue
0.000000

@<SCITEGIC>MOL_PROPERTY
U
SciTegic.value.DoubleValue
48.641

@<SCITEGIC>MOL_PROPERTY
W
SciTegic.value.DoubleValue
-55.892

@<SCITEGIC>MOL_PROPERTY
W(PB)
SciTegic.value.DoubleValue
-57.962

@<SCITEGIC>MOL_PROPERTY
W(SA)
SciTegic.value.DoubleValue
2.070

@<SCITEGIC>MOL_PROPERTY
Valence
SciTegic.value.DoubleValue
2.922

@<SCITEGIC>MOL_PROPERTY
Coulomb
SciTegic.value.DoubleValue
45.269

@<SCITEGIC>MOL_PROPERTY
VdW
SciTegic.value.DoubleValue
0.450

@<SCITEGIC>MOL_PROPERTY
VdW6
SciTegic.value.DoubleValue
-7.045

@<SCITEGIC>MOL_PROPERTY
VdW12
SciTegic.value.DoubleValue
7.495

@<SCITEGIC>MOL_PROPERTY
Bond
SciTegic.value.DoubleValue
0.220

@<SCITEGIC>MOL_PROPERTY
Angle
SciTegic.value.DoubleValue
1.205

@<SCITEGIC>MOL_PROPERTY
Pdih
SciTegic.value.DoubleValue
1.497

@<SCITEGIC>MOL_PROPERTY
Idih
SciTegic.value.DoubleValue
0.000

@<SCITEGIC>MOL_PROPERTY
Tether
SciTegic.value.DoubleValue
0.000

@<TRIPOS>MOLECULE
guest-2_confgen4.mol2 : confsearch ligand conformer 750
          23          22           1
SMALL
USER_CHARGES
 
@<TRIPOS>ATOM
       1    N1      18.365562   16.724891   22.616990 N.4        1 MOL1        -0.5940
       2    H1      18.209938   15.947891   23.268069 H          1 MOL1         0.3649
       3    H2      19.376688   16.794762   22.467442 H          1 MOL1         0.3649
       4    H3      17.944127   16.454660   21.722597 H          1 MOL1         0.3649
       5    C1      17.787155   18.024205   23.141990 C.3        1 MOL1         0.0207
       6    H4      18.253989   18.237530   24.107016 H          1 MOL1         0.0950
       7    H5      16.717924   17.868963   23.309808 H          1 MOL1         0.0950
       8    C2      17.987210   19.221049   22.189924 C.3        1 MOL1        -0.1415
       9    H6      17.474255   19.015507   21.241020 H          1 MOL1         0.0976
      10    H7      17.491177   20.100703   22.621204 H          1 MOL1         0.0976
      11    C3      19.472511   19.559273   21.906962 C.3        1 MOL1        -0.1375
      12    H8      19.511582   20.409325   21.211982 H          1 MOL1         0.0976
      13    H9      19.947021   18.717325   21.387281 H          1 MOL1         0.0976
      14    C4      20.268758   19.913783   23.188285 C.3        1 MOL1        -0.1375
      15    H10     19.732133   20.699633   23.737595 H          1 MOL1         0.0976
      16    H11     20.315608   19.044800   23.858065 H          1 MOL1         0.0976
      17    C5      21.706188   20.409725   22.899793 C.3        1 MOL1        -0.1350
      18    H12     22.161840   20.739190   23.844075 H          1 MOL1         0.0976
      19    H13     21.670942   21.295635   22.250407 H          1 MOL1         0.0976
      20    C6      22.610199   19.331482   22.260035 C.3        1 MOL1        -0.2365
      21    H14     22.641111   18.424551   22.877659 H          1 MOL1         0.0987
      22    H15     23.638072   19.703182   22.158782 H          1 MOL1         0.0987
      23    H16     22.260257   19.054340   21.257965 H          1 MOL1         0.0987
@<TRIPOS>BOND
    1     1     2    1
    2     1     3    1
    3     1     4    1
    4     1     5    1
    5     5     6    1
    6     5     7    1
    7     5     8    1
    8     8     9    1
    9     8    10    1
   10     8    11    1
   11    11    12    1
   12    11    13    1
   13    11    14    1
   14    14    15    1
   15    14    16    1
   16    14    17    1
   17    17    18    1
   18    17    19    1
   19    17    20    1
   20    20    21    1
   21    20    22    1
   22    20    23    1
@<TRIPOS>SUBSTRUCTURE
       1 MOL1            1 RESIDUE      1      MOL     
@<SCITEGIC>MOL_PROPERTY
VConf Rank
SciTegic.value.IntegerValue
750

@<SCITEGIC>MOL_PROPERTY
Conf_Id
SciTegic.value.IntegerValue
85

@<SCITEGIC>MOL_PROPERTY
Delta U+W
SciTegic.value.DoubleValue
1.193

@<SCITEGIC>MOL_PROPERTY
U+W
SciTegic.value.DoubleValue
-7.189

@<SCITEGIC>MOL_PROPERTY
Grad RMS
SciTegic.value.DoubleValue
0.000000

@<SCITEGIC>MOL_PROPERTY
U
SciTegic.value.DoubleValue
48.775

@<SCITEGIC>MOL_PROPERTY
W
SciTegic.value.DoubleValue
-55.965

@<SCITEGIC>MOL_PROPERTY
W(PB)
SciTegic.value.DoubleValue
-58.038

@<SCITEGIC>MOL_PROPERTY
W(SA)
SciTegic.value.DoubleValue
2.073

@<SCITEGIC>MOL_PROPERTY
Valence
SciTegic.value.DoubleValue
2.602

@<SCITEGIC>MOL_PROPERTY
Coulomb
SciTegic.value.DoubleValue
45.581

@<SCITEGIC>MOL_PROPERTY
VdW
SciTegic.value.DoubleValue
0.592

@<SCITEGIC>MOL_PROPERTY
VdW6
SciTegic.value.DoubleValue
-6.616

@<SCITEGIC>MOL_PROPERTY
VdW12
SciTegic.value.DoubleValue
7.208

@<SCITEGIC>MOL_PROPERTY
Bond
SciTegic.value.DoubleValue
0.196

@<SCITEGIC>MOL_PROPERTY
Angle
SciTegic.value.DoubleValue
0.832

@<SCITEGIC>MOL_PROPERTY
Pdih
SciTegic.value.DoubleValue
1.574

@<SCITEGIC>MOL_PROPERTY
Idih
SciTegic.value.DoubleValue
0.000

@<SCITEGIC>MOL_PROPERTY
Tether
SciTegic.value.DoubleValue
0.000

@<TRIPOS>MOLECULE
guest-2_confgen4.mol2 : confsearch ligand conformer 751
          23          22           1
SMALL
USER_CHARGES
 
@<TRIPOS>ATOM
       1    N1      18.452572   20.531798   22.242061 N.4        1 MOL1        -0.5940
       2    H1      18.602844   19.849552   22.992148 H          1 MOL1         0.3649
       3    H2      17.441870   20.588689   22.076086 H          1 MOL1         0.3649
       4    H3      18.748884   21.446873   22.596818 H          1 MOL1         0.3649
       5    C1      19.208590   20.145867   20.985416 C.3        1 MOL1         0.0207
       6    H4      19.000738   20.916698   20.238337 H          1 MOL1         0.0950
       7    H5      18.810446   19.197785   20.614270 H          1 MOL1         0.0950
       8    C2      20.734270   20.032964   21.181050 C.3        1 MOL1        -0.1415
       9    H6      21.206538   20.151379   20.196785 H          1 MOL1         0.0976
      10    H7      21.093877   20.874721   21.787681 H          1 MOL1         0.0976
      11    C3      21.227116   18.690144   21.784414 C.3        1 MOL1        -0.1375
      12    H8      22.324946   18.727089   21.814568 H          1 MOL1         0.0976
      13    H9      20.980115   17.861331   21.106529 H          1 MOL1         0.0976
      14    C4      20.718050   18.379591   23.215382 C.3        1 MOL1        -0.1375
      15    H10     21.520022   17.870651   23.768157 H          1 MOL1         0.0976
      16    H11     20.529552   19.313232   23.761741 H          1 MOL1         0.0976
      17    C5      19.472064   17.460729   23.233014 C.3        1 MOL1        -0.1350
      18    H12     19.743532   16.474850   22.829922 H          1 MOL1         0.0976
      19    H13     18.685019   17.849098   22.575741 H          1 MOL1         0.0976
      20    C6      18.910832   17.287603   24.660205 C.3        1 MOL1        -0.2365
      21    H14     19.663434   16.849259   25.328646 H          1 MOL1         0.0987
      22    H15     18.037941   16.621859   24.655142 H          1 MOL1         0.0987
      23    H16     18.597550   18.250076   25.084781 H          1 MOL1         0.0987
@<TRIPOS>BOND
    1     1     2    1
    2     1     3    1
    3     1     4    1
    4     1     5    1
    5     5     6    1
    6     5     7    1
    7     5     8    1
    8     8     9    1
    9     8    10    1
   10     8    11    1
   11    11    12    1
   12    11    13    1
   13    11    14    1
   14    14    15    1
   15    14    16    1
   16    14    17    1
   17    17    18    1
   18    17    19    1
   19    17    20    1
   20    20    21    1
   21    20    22    1
   22    20    23    1
@<TRIPOS>SUBSTRUCTURE
       1 MOL1            1 RESIDUE      1      MOL     
@<SCITEGIC>MOL_PROPERTY
VConf Rank
SciTegic.value.IntegerValue
751

@<SCITEGIC>MOL_PROPERTY
Conf_Id
SciTegic.value.IntegerValue
82

@<SCITEGIC>MOL_PROPERTY
Delta U+W
SciTegic.value.DoubleValue
5.994

@<SCITEGIC>MOL_PROPERTY
U+W
SciTegic.value.DoubleValue
-2.388

@<SCITEGIC>MOL_PROPERTY
Grad RMS
SciTegic.value.DoubleValue
0.000000

@<SCITEGIC>MOL_PROPERTY
U
SciTegic.value.DoubleValue
52.836

@<SCITEGIC>MOL_PROPERTY
W
SciTegic.value.DoubleValue
-55.224

@<SCITEGIC>MOL_PROPERTY
W(PB)
SciTegic.value.DoubleValue
-57.261

@<SCITEGIC>MOL_PROPERTY
W(SA)
SciTegic.value.DoubleValue
2.037

@<SCITEGIC>MOL_PROPERTY
Valence
SciTegic.value.DoubleValue
5.785

@<SCITEGIC>MOL_PROPERTY
Coulomb
SciTegic.value.DoubleValue
46.744

@<SCITEGIC>MOL_PROPERTY
VdW
SciTegic.value.DoubleValue
0.307

@<SCITEGIC>MOL_PROPERTY
VdW6
SciTegic.value.DoubleValue
-7.672

@<SCITEGIC>MOL_PROPERTY
VdW12
SciTegic.value.DoubleValue
7.979

@<SCITEGIC>MOL_PROPERTY
Bond
SciTegic.value.DoubleValue
0.217

@<SCITEGIC>MOL_PROPERTY
Angle
SciTegic.value.DoubleValue
1.470

@<SCITEGIC>MOL_PROPERTY
Pdih
SciTegic.value.DoubleValue
4.098

@<SCITEGIC>MOL_PROPERTY
Idih
SciTegic.value.DoubleValue
0.000

@<SCITEGIC>MOL_PROPERTY
Tether
SciTegic.value.DoubleValue
0.000

@<TRIPOS>MOLECULE
guest-2_confgen4.mol2 : confsearch ligand conformer 752
          23          22           1
SMALL
USER_CHARGES
 
@<TRIPOS>ATOM
       1    N1      19.264374   17.404111   23.754972 N.4        1 MOL1        -0.5940
       2    H1      19.606992   17.386112   24.721049 H          1 MOL1         0.3649
       3    H2      18.456837   16.772934   23.712543 H          1 MOL1         0.3649
       4    H3      18.923116   18.352596   23.568974 H          1 MOL1         0.3649
       5    C1      20.344729   17.003119   22.769227 C.3        1 MOL1         0.0207
       6    H4      19.911048   16.975748   21.766082 H          1 MOL1         0.0950
       7    H5      20.656011   15.988433   23.031958 H          1 MOL1         0.0950
       8    C2      21.579356   17.927382   22.781469 C.3        1 MOL1        -0.1415
       9    H6      21.857207   18.161676   23.817701 H          1 MOL1         0.0976
      10    H7      22.424044   17.361321   22.366842 H          1 MOL1         0.0976
      11    C3      21.435766   19.235383   21.957679 C.3        1 MOL1        -0.1375
      12    H8      21.289173   18.995380   20.895427 H          1 MOL1         0.0976
      13    H9      22.398311   19.763000   22.008981 H          1 MOL1         0.0976
      14    C4      20.329634   20.206919   22.443326 C.3        1 MOL1        -0.1375
      15    H10     20.172490   20.092825   23.524073 H          1 MOL1         0.0976
      16    H11     20.684626   21.237555   22.303662 H          1 MOL1         0.0976
      17    C5      18.999398   20.053453   21.666137 C.3        1 MOL1        -0.1350
      18    H12     18.670286   19.007677   21.648220 H          1 MOL1         0.0976
      19    H13     19.158358   20.338494   20.616558 H          1 MOL1         0.0976
      20    C6      17.882822   20.933471   22.266681 C.3        1 MOL1        -0.2365
      21    H14     17.672486   20.655370   23.307443 H          1 MOL1         0.0987
      22    H15     16.952575   20.823260   21.694252 H          1 MOL1         0.0987
      23    H16     18.164802   21.994369   22.247928 H          1 MOL1         0.0987
@<TRIPOS>BOND
    1     1     2    1
    2     1     3    1
    3     1     4    1
    4     1     5    1
    5     5     6    1
    6     5     7    1
    7     5     8    1
    8     8     9    1
    9     8    10    1
   10     8    11    1
   11    11    12    1
   12    11    13    1
   13    11    14    1
   14    14    15    1
   15    14    16    1
   16    14    17    1
   17    17    18    1
   18    17    19    1
   19    17    20    1
   20    20    21    1
   21    20    22    1
   22    20    23    1
@<TRIPOS>SUBSTRUCTURE
       1 MOL1            1 RESIDUE      1      MOL     
@<SCITEGIC>MOL_PROPERTY
VConf Rank
SciTegic.value.IntegerValue
752

@<SCITEGIC>MOL_PROPERTY
Conf_Id
SciTegic.value.IntegerValue
5

@<SCITEGIC>MOL_PROPERTY
Delta U+W
SciTegic.value.DoubleValue
6.087

@<SCITEGIC>MOL_PROPERTY
U+W
SciTegic.value.DoubleValue
-2.295

@<SCITEGIC>MOL_PROPERTY
Grad RMS
SciTegic.value.DoubleValue
0.000000

@<SCITEGIC>MOL_PROPERTY
U
SciTegic.value.DoubleValue
52.836

@<SCITEGIC>MOL_PROPERTY
W
SciTegic.value.DoubleValue
-55.131

@<SCITEGIC>MOL_PROPERTY
W(PB)
SciTegic.value.DoubleValue
-57.202

@<SCITEGIC>MOL_PROPERTY
W(SA)
SciTegic.value.DoubleValue
2.071

@<SCITEGIC>MOL_PROPERTY
Valence
SciTegic.value.DoubleValue
5.785

@<SCITEGIC>MOL_PROPERTY
Coulomb
SciTegic.value.DoubleValue
46.744

@<SCITEGIC>MOL_PROPERTY
VdW
SciTegic.value.DoubleValue
0.307

@<SCITEGIC>MOL_PROPERTY
VdW6
SciTegic.value.DoubleValue
-7.672

@<SCITEGIC>MOL_PROPERTY
VdW12
SciTegic.value.DoubleValue
7.980

@<SCITEGIC>MOL_PROPERTY
Bond
SciTegic.value.DoubleValue
0.217

@<SCITEGIC>MOL_PROPERTY
Angle
SciTegic.value.DoubleValue
1.470

@<SCITEGIC>MOL_PROPERTY
Pdih
SciTegic.value.DoubleValue
4.098

@<SCITEGIC>MOL_PROPERTY
Idih
SciTegic.value.DoubleValue
0.000

@<SCITEGIC>MOL_PROPERTY
Tether
SciTegic.value.DoubleValue
0.000

@<TRIPOS>MOLECULE
guest-2_confgen4.mol2 : confsearch ligand conformer 753
          23          22           1
SMALL
USER_CHARGES
 
@<TRIPOS>ATOM
       1    N1      21.979115   16.575378   24.591540 N.4        1 MOL1        -0.5940
       2    H1      22.548020   17.290415   25.056248 H          1 MOL1         0.3649
       3    H2      22.587525   15.763956   24.438162 H          1 MOL1         0.3649
       4    H3      21.256998   16.284194   25.258355 H          1 MOL1         0.3649
       5    C1      21.380566   17.083008   23.295411 C.3        1 MOL1         0.0207
       6    H4      20.814985   16.264692   22.841570 H          1 MOL1         0.0950
       7    H5      22.202674   17.346197   22.624317 H          1 MOL1         0.0950
       8    C2      20.461417   18.301750   23.491396 C.3        1 MOL1        -0.1415
       9    H6      19.646584   18.037598   24.178690 H          1 MOL1         0.0976
      10    H7      21.029362   19.115249   23.962306 H          1 MOL1         0.0976
      11    C3      19.872573   18.787697   22.148526 C.3        1 MOL1        -0.1375
      12    H8      19.309633   17.969421   21.678073 H          1 MOL1         0.0976
      13    H9      20.690937   19.045964   21.461955 H          1 MOL1         0.0976
      14    C4      18.947401   20.011945   22.333667 C.3        1 MOL1        -0.1375
      15    H10     18.128990   19.753823   23.020026 H          1 MOL1         0.0976
      16    H11     19.510134   20.830231   22.804042 H          1 MOL1         0.0976
      17    C5      18.358739   20.497744   20.990448 C.3        1 MOL1        -0.1350
      18    H12     17.792672   19.683256   20.517003 H          1 MOL1         0.0976
      19    H13     19.173690   20.759579   20.301049 H          1 MOL1         0.0976
      20    C6      17.435504   21.720232   21.179306 C.3        1 MOL1        -0.2365
      21    H14     17.027388   22.050426   20.215221 H          1 MOL1         0.0987
      22    H15     17.982609   22.563797   21.620103 H          1 MOL1         0.0987
      23    H16     16.590814   21.479074   21.837768 H          1 MOL1         0.0987
@<TRIPOS>BOND
    1     1     2    1
    2     1     3    1
    3     1     4    1
    4     1     5    1
    5     5     6    1
    6     5     7    1
    7     5     8    1
    8     8     9    1
    9     8    10    1
   10     8    11    1
   11    11    12    1
   12    11    13    1
   13    11    14    1
   14    14    15    1
   15    14    16    1
   16    14    17    1
   17    17    18    1
   18    17    19    1
   19    17    20    1
   20    20    21    1
   21    20    22    1
   22    20    23    1
@<TRIPOS>SUBSTRUCTURE
       1 MOL1            1 RESIDUE      1      MOL     
@<SCITEGIC>MOL_PROPERTY
VConf Rank
SciTegic.value.IntegerValue
753

@<SCITEGIC>MOL_PROPERTY
Conf_Id
SciTegic.value.IntegerValue
40

@<SCITEGIC>MOL_PROPERTY
Delta U+W
SciTegic.value.DoubleValue
0.000

@<SCITEGIC>MOL_PROPERTY
U+W
SciTegic.value.DoubleValue
-8.382

@<SCITEGIC>MOL_PROPERTY
Grad RMS
SciTegic.value.DoubleValue
0.000000

@<SCITEGIC>MOL_PROPERTY
U
SciTegic.value.DoubleValue
46.604

@<SCITEGIC>MOL_PROPERTY
W
SciTegic.value.DoubleValue
-54.986

@<SCITEGIC>MOL_PROPERTY
W(PB)
SciTegic.value.DoubleValue
-57.162

@<SCITEGIC>MOL_PROPERTY
W(SA)
SciTegic.value.DoubleValue
2.176

@<SCITEGIC>MOL_PROPERTY
Valence
SciTegic.value.DoubleValue
1.727

@<SCITEGIC>MOL_PROPERTY
Coulomb
SciTegic.value.DoubleValue
44.434

@<SCITEGIC>MOL_PROPERTY
VdW
SciTegic.value.DoubleValue
0.443

@<SCITEGIC>MOL_PROPERTY
VdW6
SciTegic.value.DoubleValue
-4.623

@<SCITEGIC>MOL_PROPERTY
VdW12
SciTegic.value.DoubleValue
5.066

@<SCITEGIC>MOL_PROPERTY
Bond
SciTegic.value.DoubleValue
0.112

@<SCITEGIC>MOL_PROPERTY
Angle
SciTegic.value.DoubleValue
0.386

@<SCITEGIC>MOL_PROPERTY
Pdih
SciTegic.value.DoubleValue
1.228

@<SCITEGIC>MOL_PROPERTY
Idih
SciTegic.value.DoubleValue
0.000

@<SCITEGIC>MOL_PROPERTY
Tether
SciTegic.value.DoubleValue
0.000

@<TRIPOS>MOLECULE
guest-2_confgen4.mol2 : confsearch ligand conformer 754
          23          22           1
SMALL
USER_CHARGES
 
@<TRIPOS>ATOM
       1    N1      18.160874   21.906377   23.980658 N.4        1 MOL1        -0.5940
       2    H1      17.141990   21.805856   23.929560 H          1 MOL1         0.3649
       3    H2      18.436273   22.563792   23.243913 H          1 MOL1         0.3649
       4    H3      18.370958   22.358256   24.877151 H          1 MOL1         0.3649
       5    C1      18.868163   20.573541   23.842554 C.3        1 MOL1         0.0207
       6    H4      18.551177   19.935722   24.672082 H          1 MOL1         0.0950
       7    H5      19.942081   20.753133   23.937248 H          1 MOL1         0.0950
       8    C2      18.571937   19.869105   22.504962 C.3        1 MOL1        -0.1415
       9    H6      17.486385   19.738511   22.402646 H          1 MOL1         0.0976
      10    H7      18.891240   20.508793   21.671398 H          1 MOL1         0.0976
      11    C3      19.255574   18.485934   22.390505 C.3        1 MOL1        -0.1375
      12    H8      18.905166   18.005192   21.467974 H          1 MOL1         0.0976
      13    H9      18.926764   17.845020   23.220255 H          1 MOL1         0.0976
      14    C4      20.803161   18.571692   22.376563 C.3        1 MOL1        -0.1375
      15    H10     21.132109   19.195761   21.534213 H          1 MOL1         0.0976
      16    H11     21.151485   19.074797   23.288189 H          1 MOL1         0.0976
      17    C5      21.495868   17.189610   22.295742 C.3        1 MOL1        -0.1350
      18    H12     21.178499   16.564474   23.142076 H          1 MOL1         0.0976
      19    H13     22.579691   17.332240   22.409140 H          1 MOL1         0.0976
      20    C6      21.229987   16.442863   20.968690 C.3        1 MOL1        -0.2365
      21    H14     20.174008   16.164113   20.866405 H          1 MOL1         0.0987
      22    H15     21.820000   15.518301   20.923776 H          1 MOL1         0.0987
      23    H16     21.508605   17.060592   20.105097 H          1 MOL1         0.0987
@<TRIPOS>BOND
    1     1     2    1
    2     1     3    1
    3     1     4    1
    4     1     5    1
    5     5     6    1
    6     5     7    1
    7     5     8    1
    8     8     9    1
    9     8    10    1
   10     8    11    1
   11    11    12    1
   12    11    13    1
   13    11    14    1
   14    14    15    1
   15    14    16    1
   16    14    17    1
   17    17    18    1
   18    17    19    1
   19    17    20    1
   20    20    21    1
   21    20    22    1
   22    20    23    1
@<TRIPOS>SUBSTRUCTURE
       1 MOL1            1 RESIDUE      1      MOL     
@<SCITEGIC>MOL_PROPERTY
VConf Rank
SciTegic.value.IntegerValue
754

@<SCITEGIC>MOL_PROPERTY
Conf_Id
SciTegic.value.IntegerValue
65

@<SCITEGIC>MOL_PROPERTY
Delta U+W
SciTegic.value.DoubleValue
1.004

@<SCITEGIC>MOL_PROPERTY
U+W
SciTegic.value.DoubleValue
-7.378

@<SCITEGIC>MOL_PROPERTY
Grad RMS
SciTegic.value.DoubleValue
0.000000

@<SCITEGIC>MOL_PROPERTY
U
SciTegic.value.DoubleValue
48.047

@<SCITEGIC>MOL_PROPERTY
W
SciTegic.value.DoubleValue
-55.425

@<SCITEGIC>MOL_PROPERTY
W(PB)
SciTegic.value.DoubleValue
-57.542

@<SCITEGIC>MOL_PROPERTY
W(SA)
SciTegic.value.DoubleValue
2.116

@<SCITEGIC>MOL_PROPERTY
Valence
SciTegic.value.DoubleValue
2.583

@<SCITEGIC>MOL_PROPERTY
Coulomb
SciTegic.value.DoubleValue
44.791

@<SCITEGIC>MOL_PROPERTY
VdW
SciTegic.value.DoubleValue
0.673

@<SCITEGIC>MOL_PROPERTY
VdW6
SciTegic.value.DoubleValue
-5.788

@<SCITEGIC>MOL_PROPERTY
VdW12
SciTegic.value.DoubleValue
6.462

@<SCITEGIC>MOL_PROPERTY
Bond
SciTegic.value.DoubleValue
0.177

@<SCITEGIC>MOL_PROPERTY
Angle
SciTegic.value.DoubleValue
0.787

@<SCITEGIC>MOL_PROPERTY
Pdih
SciTegic.value.DoubleValue
1.619

@<SCITEGIC>MOL_PROPERTY
Idih
SciTegic.value.DoubleValue
0.000

@<SCITEGIC>MOL_PROPERTY
Tether
SciTegic.value.DoubleValue
0.000

@<TRIPOS>MOLECULE
guest-2_confgen4.mol2 : confsearch ligand conformer 755
          23          22           1
SMALL
USER_CHARGES
 
@<TRIPOS>ATOM
       1    N1      21.918876   18.664151   19.779178 N.4        1 MOL1        -0.5940
       2    H1      22.058264   17.672435   19.560298 H          1 MOL1         0.3649
       3    H2      22.819471   19.131623   19.629421 H          1 MOL1         0.3649
       4    H3      21.269006   19.038647   19.080425 H          1 MOL1         0.3649
       5    C1      21.408164   18.865118   21.191467 C.3        1 MOL1         0.0207
       6    H4      21.313612   19.940309   21.363348 H          1 MOL1         0.0950
       7    H5      22.159242   18.470809   21.881258 H          1 MOL1         0.0950
       8    C2      20.055591   18.173823   21.447968 C.3        1 MOL1        -0.1415
       9    H6      19.300493   18.570354   20.756176 H          1 MOL1         0.0976
      10    H7      20.153779   17.102932   21.225490 H          1 MOL1         0.0976
      11    C3      19.563562   18.339310   22.905410 C.3        1 MOL1        -0.1375
      12    H8      20.316620   17.932833   23.594649 H          1 MOL1         0.0976
      13    H9      18.661075   17.727901   23.034484 H          1 MOL1         0.0976
      14    C4      19.252179   19.811113   23.278788 C.3        1 MOL1        -0.1375
      15    H10     20.148526   20.426485   23.125862 H          1 MOL1         0.0976
      16    H11     18.484007   20.210444   22.602277 H          1 MOL1         0.0976
      17    C5      18.790892   19.990004   24.745666 C.3        1 MOL1        -0.1350
      18    H12     18.705993   21.064770   24.959074 H          1 MOL1         0.0976
      19    H13     19.560380   19.601692   25.427501 H          1 MOL1         0.0976
      20    C6      17.434778   19.314671   25.052698 C.3        1 MOL1        -0.2365
      21    H14     17.500814   18.222397   24.976325 H          1 MOL1         0.0987
      22    H15     16.655215   19.661947   24.362269 H          1 MOL1         0.0987
      23    H16     17.109353   19.553884   26.073394 H          1 MOL1         0.0987
@<TRIPOS>BOND
    1     1     2    1
    2     1     3    1
    3     1     4    1
    4     1     5    1
    5     5     6    1
    6     5     7    1
    7     5     8    1
    8     8     9    1
    9     8    10    1
   10     8    11    1
   11    11    12    1
   12    11    13    1
   13    11    14    1
   14    14    15    1
   15    14    16    1
   16    14    17    1
   17    17    18    1
   18    17    19    1
   19    17    20    1
   20    20    21    1
   21    20    22    1
   22    20    23    1
@<TRIPOS>SUBSTRUCTURE
       1 MOL1            1 RESIDUE      1      MOL     
@<SCITEGIC>MOL_PROPERTY
VConf Rank
SciTegic.value.IntegerValue
755

@<SCITEGIC>MOL_PROPERTY
Conf_Id
SciTegic.value.IntegerValue
92

@<SCITEGIC>MOL_PROPERTY
Delta U+W
SciTegic.value.DoubleValue
0.973

@<SCITEGIC>MOL_PROPERTY
U+W
SciTegic.value.DoubleValue
-7.409

@<SCITEGIC>MOL_PROPERTY
Grad RMS
SciTegic.value.DoubleValue
0.000000

@<SCITEGIC>MOL_PROPERTY
U
SciTegic.value.DoubleValue
48.047

@<SCITEGIC>MOL_PROPERTY
W
SciTegic.value.DoubleValue
-55.456

@<SCITEGIC>MOL_PROPERTY
W(PB)
SciTegic.value.DoubleValue
-57.595

@<SCITEGIC>MOL_PROPERTY
W(SA)
SciTegic.value.DoubleValue
2.138

@<SCITEGIC>MOL_PROPERTY
Valence
SciTegic.value.DoubleValue
2.583

@<SCITEGIC>MOL_PROPERTY
Coulomb
SciTegic.value.DoubleValue
44.791

@<SCITEGIC>MOL_PROPERTY
VdW
SciTegic.value.DoubleValue
0.674

@<SCITEGIC>MOL_PROPERTY
VdW6
SciTegic.value.DoubleValue
-5.789

@<SCITEGIC>MOL_PROPERTY
VdW12
SciTegic.value.DoubleValue
6.462

@<SCITEGIC>MOL_PROPERTY
Bond
SciTegic.value.DoubleValue
0.177

@<SCITEGIC>MOL_PROPERTY
Angle
SciTegic.value.DoubleValue
0.787

@<SCITEGIC>MOL_PROPERTY
Pdih
SciTegic.value.DoubleValue
1.619

@<SCITEGIC>MOL_PROPERTY
Idih
SciTegic.value.DoubleValue
0.000

@<SCITEGIC>MOL_PROPERTY
Tether
SciTegic.value.DoubleValue
0.000

@<TRIPOS>MOLECULE
guest-2_confgen4.mol2 : confsearch ligand conformer 756
          23          22           1
SMALL
USER_CHARGES
 
@<TRIPOS>ATOM
       1    N1      19.307825   22.431887   23.164073 N.4        1 MOL1        -0.5940
       2    H1      18.496697   22.787980   23.681085 H          1 MOL1         0.3649
       3    H2      19.435611   23.044522   22.352161 H          1 MOL1         0.3649
       4    H3      20.125688   22.558553   23.768966 H          1 MOL1         0.3649
       5    C1      19.124531   20.984068   22.756642 C.3        1 MOL1         0.0207
       6    H4      18.223590   20.918174   22.140701 H          1 MOL1         0.0950
       7    H5      18.964027   20.398008   23.665193 H          1 MOL1         0.0950
       8    C2      20.327353   20.419594   21.977254 C.3        1 MOL1        -0.1415
       9    H6      20.505295   21.043482   21.091226 H          1 MOL1         0.0976
      10    H7      21.232381   20.486581   22.595666 H          1 MOL1         0.0976
      11    C3      20.113519   18.955631   21.525458 C.3        1 MOL1        -0.1375
      12    H8      20.964678   18.652187   20.900237 H          1 MOL1         0.0976
      13    H9      19.221845   18.896143   20.885906 H          1 MOL1         0.0976
      14    C4      19.974231   17.968133   22.709057 C.3        1 MOL1        -0.1375
      15    H10     20.852142   18.054009   23.364278 H          1 MOL1         0.0976
      16    H11     19.097298   18.230432   23.315890 H          1 MOL1         0.0976
      17    C5      19.835802   16.507720   22.224490 C.3        1 MOL1        -0.1350
      18    H12     20.712803   16.231277   21.622486 H          1 MOL1         0.0976
      19    H13     18.959193   16.416233   21.567859 H          1 MOL1         0.0976
      20    C6      19.695579   15.523931   23.405616 C.3        1 MOL1        -0.2365
      21    H14     20.573882   15.568312   24.062762 H          1 MOL1         0.0987
      22    H15     19.598971   14.492743   23.041797 H          1 MOL1         0.0987
      23    H16     18.806456   15.753428   24.007291 H          1 MOL1         0.0987
@<TRIPOS>BOND
    1     1     2    1
    2     1     3    1
    3     1     4    1
    4     1     5    1
    5     5     6    1
    6     5     7    1
    7     5     8    1
    8     8     9    1
    9     8    10    1
   10     8    11    1
   11    11    12    1
   12    11    13    1
   13    11    14    1
   14    14    15    1
   15    14    16    1
   16    14    17    1
   17    17    18    1
   18    17    19    1
   19    17    20    1
   20    20    21    1
   21    20    22    1
   22    20    23    1
@<TRIPOS>SUBSTRUCTURE
       1 MOL1            1 RESIDUE      1      MOL     
@<SCITEGIC>MOL_PROPERTY
VConf Rank
SciTegic.value.IntegerValue
756

@<SCITEGIC>MOL_PROPERTY
Conf_Id
SciTegic.value.IntegerValue
42

@<SCITEGIC>MOL_PROPERTY
Delta U+W
SciTegic.value.DoubleValue
0.365

@<SCITEGIC>MOL_PROPERTY
U+W
SciTegic.value.DoubleValue
-8.017

@<SCITEGIC>MOL_PROPERTY
Grad RMS
SciTegic.value.DoubleValue
0.000000

@<SCITEGIC>MOL_PROPERTY
U
SciTegic.value.DoubleValue
47.375

@<SCITEGIC>MOL_PROPERTY
W
SciTegic.value.DoubleValue
-55.392

@<SCITEGIC>MOL_PROPERTY
W(PB)
SciTegic.value.DoubleValue
-57.543

@<SCITEGIC>MOL_PROPERTY
W(SA)
SciTegic.value.DoubleValue
2.152

@<SCITEGIC>MOL_PROPERTY
Valence
SciTegic.value.DoubleValue
2.032

@<SCITEGIC>MOL_PROPERTY
Coulomb
SciTegic.value.DoubleValue
44.843

@<SCITEGIC>MOL_PROPERTY
VdW
SciTegic.value.DoubleValue
0.499

@<SCITEGIC>MOL_PROPERTY
VdW6
SciTegic.value.DoubleValue
-5.218

@<SCITEGIC>MOL_PROPERTY
VdW12
SciTegic.value.DoubleValue
5.717

@<SCITEGIC>MOL_PROPERTY
Bond
SciTegic.value.DoubleValue
0.135

@<SCITEGIC>MOL_PROPERTY
Angle
SciTegic.value.DoubleValue
0.514

@<SCITEGIC>MOL_PROPERTY
Pdih
SciTegic.value.DoubleValue
1.383

@<SCITEGIC>MOL_PROPERTY
Idih
SciTegic.value.DoubleValue
0.000

@<SCITEGIC>MOL_PROPERTY
Tether
SciTegic.value.DoubleValue
0.000

@<TRIPOS>MOLECULE
guest-2_confgen4.mol2 : confsearch ligand conformer 757
          23          22           1
SMALL
USER_CHARGES
 
@<TRIPOS>ATOM
       1    N1      22.241795   20.880341   23.186795 N.4        1 MOL1        -0.5940
       2    H1      21.857269   21.218052   24.074897 H          1 MOL1         0.3649
       3    H2      22.984496   21.533464   22.915180 H          1 MOL1         0.3649
       4    H3      22.690472   19.978730   23.374378 H          1 MOL1         0.3649
       5    C1      21.173408   20.766806   22.116635 C.3        1 MOL1         0.0207
       6    H4      21.650969   20.426674   21.193777 H          1 MOL1         0.0950
       7    H5      20.772669   21.769202   21.942905 H          1 MOL1         0.0950
       8    C2      20.019656   19.814004   22.485762 C.3        1 MOL1        -0.1415
       9    H6      19.559450   20.141738   23.427277 H          1 MOL1         0.0976
      10    H7      19.252034   19.899973   21.706992 H          1 MOL1         0.0976
      11    C3      20.474765   18.338587   22.599021 C.3        1 MOL1        -0.1375
      12    H8      21.314536   18.268338   23.302713 H          1 MOL1         0.0976
      13    H9      20.861539   18.001605   21.627293 H          1 MOL1         0.0976
      14    C4      19.368551   17.363282   23.078739 C.3        1 MOL1        -0.1375
      15    H10     19.821474   16.365496   23.161024 H          1 MOL1         0.0976
      16    H11     19.048415   17.626516   24.096308 H          1 MOL1         0.0976
      17    C5      18.138939   17.258055   22.139899 C.3        1 MOL1        -0.1350
      18    H12     17.780484   16.219103   22.147689 H          1 MOL1         0.0976
      19    H13     18.431306   17.468230   21.101657 H          1 MOL1         0.0976
      20    C6      16.963634   18.169965   22.563385 C.3        1 MOL1        -0.2365
      21    H14     16.614926   17.915635   23.572730 H          1 MOL1         0.0987
      22    H15     16.115412   18.046279   21.877720 H          1 MOL1         0.0987
      23    H16     17.241058   19.229751   22.560287 H          1 MOL1         0.0987
@<TRIPOS>BOND
    1     1     2    1
    2     1     3    1
    3     1     4    1
    4     1     5    1
    5     5     6    1
    6     5     7    1
    7     5     8    1
    8     8     9    1
    9     8    10    1
   10     8    11    1
   11    11    12    1
   12    11    13    1
   13    11    14    1
   14    14    15    1
   15    14    16    1
   16    14    17    1
   17    17    18    1
   18    17    19    1
   19    17    20    1
   20    20    21    1
   21    20    22    1
   22    20    23    1
@<TRIPOS>SUBSTRUCTURE
       1 MOL1            1 RESIDUE      1      MOL     
@<SCITEGIC>MOL_PROPERTY
VConf Rank
SciTegic.value.IntegerValue
757

@<SCITEGIC>MOL_PROPERTY
Conf_Id
SciTegic.value.IntegerValue
3

@<SCITEGIC>MOL_PROPERTY
Delta U+W
SciTegic.value.DoubleValue
3.283

@<SCITEGIC>MOL_PROPERTY
U+W
SciTegic.value.DoubleValue
-5.099

@<SCITEGIC>MOL_PROPERTY
Grad RMS
SciTegic.value.DoubleValue
0.000000

@<SCITEGIC>MOL_PROPERTY
U
SciTegic.value.DoubleValue
50.701

@<SCITEGIC>MOL_PROPERTY
W
SciTegic.value.DoubleValue
-55.800

@<SCITEGIC>MOL_PROPERTY
W(PB)
SciTegic.value.DoubleValue
-57.867

@<SCITEGIC>MOL_PROPERTY
W(SA)
SciTegic.value.DoubleValue
2.067

@<SCITEGIC>MOL_PROPERTY
Valence
SciTegic.value.DoubleValue
4.880

@<SCITEGIC>MOL_PROPERTY
Coulomb
SciTegic.value.DoubleValue
45.095

@<SCITEGIC>MOL_PROPERTY
VdW
SciTegic.value.DoubleValue
0.726

@<SCITEGIC>MOL_PROPERTY
VdW6
SciTegic.value.DoubleValue
-6.620

@<SCITEGIC>MOL_PROPERTY
VdW12
SciTegic.value.DoubleValue
7.346

@<SCITEGIC>MOL_PROPERTY
Bond
SciTegic.value.DoubleValue
0.222

@<SCITEGIC>MOL_PROPERTY
Angle
SciTegic.value.DoubleValue
1.260

@<SCITEGIC>MOL_PROPERTY
Pdih
SciTegic.value.DoubleValue
3.398

@<SCITEGIC>MOL_PROPERTY
Idih
SciTegic.value.DoubleValue
0.000

@<SCITEGIC>MOL_PROPERTY
Tether
SciTegic.value.DoubleValue
0.000

@<TRIPOS>MOLECULE
guest-2_confgen4.mol2 : confsearch ligand conformer 758
          23          22           1
SMALL
USER_CHARGES
 
@<TRIPOS>ATOM
       1    N1      22.190946   20.675460   22.224141 N.4        1 MOL1        -0.5940
       2    H1      22.779964   20.366079   21.444464 H          1 MOL1         0.3649
       3    H2      22.631942   21.513320   22.618282 H          1 MOL1         0.3649
       4    H3      21.291971   20.966542   21.828269 H          1 MOL1         0.3649
       5    C1      22.017658   19.587185   23.265257 C.3        1 MOL1         0.0207
       6    H4      21.408990   19.989879   24.078799 H          1 MOL1         0.0950
       7    H5      23.006589   19.351428   23.667700 H          1 MOL1         0.0950
       8    C2      21.369898   18.300004   22.714942 C.3        1 MOL1        -0.1415
       9    H6      22.017714   17.878978   21.934637 H          1 MOL1         0.0976
      10    H7      21.334202   17.552308   23.518395 H          1 MOL1         0.0976
      11    C3      19.944298   18.501494   22.141607 C.3        1 MOL1        -0.1375
      12    H8      19.598955   17.538552   21.743666 H          1 MOL1         0.0976
      13    H9      19.978633   19.190491   21.287294 H          1 MOL1         0.0976
      14    C4      18.931350   19.020435   23.193778 C.3        1 MOL1        -0.1375
      15    H10     18.877740   18.315797   24.035075 H          1 MOL1         0.0976
      16    H11     19.288061   19.971676   23.610014 H          1 MOL1         0.0976
      17    C5      17.511385   19.249365   22.621295 C.3        1 MOL1        -0.1350
      18    H12     17.557290   19.962087   21.786042 H          1 MOL1         0.0976
      19    H13     16.892364   19.723739   23.395663 H          1 MOL1         0.0976
      20    C6      16.815847   17.948999   22.158024 C.3        1 MOL1        -0.2365
      21    H14     16.787005   17.206881   22.966378 H          1 MOL1         0.0987
      22    H15     17.328009   17.501238   21.297532 H          1 MOL1         0.0987
      23    H16     15.781148   18.154431   21.854493 H          1 MOL1         0.0987
@<TRIPOS>BOND
    1     1     2    1
    2     1     3    1
    3     1     4    1
    4     1     5    1
    5     5     6    1
    6     5     7    1
    7     5     8    1
    8     8     9    1
    9     8    10    1
   10     8    11    1
   11    11    12    1
   12    11    13    1
   13    11    14    1
   14    14    15    1
   15    14    16    1
   16    14    17    1
   17    17    18    1
   18    17    19    1
   19    17    20    1
   20    20    21    1
   21    20    22    1
   22    20    23    1
@<TRIPOS>SUBSTRUCTURE
       1 MOL1            1 RESIDUE      1      MOL     
@<SCITEGIC>MOL_PROPERTY
VConf Rank
SciTegic.value.IntegerValue
758

@<SCITEGIC>MOL_PROPERTY
Conf_Id
SciTegic.value.IntegerValue
83

@<SCITEGIC>MOL_PROPERTY
Delta U+W
SciTegic.value.DoubleValue
1.229

@<SCITEGIC>MOL_PROPERTY
U+W
SciTegic.value.DoubleValue
-7.154

@<SCITEGIC>MOL_PROPERTY
Grad RMS
SciTegic.value.DoubleValue
0.000000

@<SCITEGIC>MOL_PROPERTY
U
SciTegic.value.DoubleValue
48.727

@<SCITEGIC>MOL_PROPERTY
W
SciTegic.value.DoubleValue
-55.880

@<SCITEGIC>MOL_PROPERTY
W(PB)
SciTegic.value.DoubleValue
-57.960

@<SCITEGIC>MOL_PROPERTY
W(SA)
SciTegic.value.DoubleValue
2.080

@<SCITEGIC>MOL_PROPERTY
Valence
SciTegic.value.DoubleValue
2.671

@<SCITEGIC>MOL_PROPERTY
Coulomb
SciTegic.value.DoubleValue
45.371

@<SCITEGIC>MOL_PROPERTY
VdW
SciTegic.value.DoubleValue
0.684

@<SCITEGIC>MOL_PROPERTY
VdW6
SciTegic.value.DoubleValue
-6.511

@<SCITEGIC>MOL_PROPERTY
VdW12
SciTegic.value.DoubleValue
7.195

@<SCITEGIC>MOL_PROPERTY
Bond
SciTegic.value.DoubleValue
0.203

@<SCITEGIC>MOL_PROPERTY
Angle
SciTegic.value.DoubleValue
0.915

@<SCITEGIC>MOL_PROPERTY
Pdih
SciTegic.value.DoubleValue
1.554

@<SCITEGIC>MOL_PROPERTY
Idih
SciTegic.value.DoubleValue
0.000

@<SCITEGIC>MOL_PROPERTY
Tether
SciTegic.value.DoubleValue
0.000

@<TRIPOS>MOLECULE
guest-2_confgen4.mol2 : confsearch ligand conformer 759
          23          22           1
SMALL
USER_CHARGES
 
@<TRIPOS>ATOM
       1    N1      21.921624   20.705645   23.458750 N.4        1 MOL1        -0.5940
       2    H1      22.146100   20.597812   24.453001 H          1 MOL1         0.3649
       3    H2      20.966993   21.073058   23.401414 H          1 MOL1         0.3649
       4    H3      22.545902   21.429883   23.087816 H          1 MOL1         0.3649
       5    C1      22.064196   19.398425   22.704334 C.3        1 MOL1         0.0207
       6    H4      23.108857   19.084131   22.778026 H          1 MOL1         0.0950
       7    H5      21.842022   19.588576   21.651257 H          1 MOL1         0.0950
       8    C2      21.153348   18.272935   23.236221 C.3        1 MOL1        -0.1415
       9    H6      21.361298   17.354719   22.670981 H          1 MOL1         0.0976
      10    H7      21.422765   18.057348   24.278690 H          1 MOL1         0.0976
      11    C3      19.638594   18.590111   23.155173 C.3        1 MOL1        -0.1375
      12    H8      19.405404   19.463391   23.778673 H          1 MOL1         0.0976
      13    H9      19.090856   17.746303   23.594316 H          1 MOL1         0.0976
      14    C4      19.142639   18.832098   21.706760 C.3        1 MOL1        -0.1375
      15    H10     19.706838   19.660253   21.258216 H          1 MOL1         0.0976
      16    H11     19.351775   17.946501   21.091008 H          1 MOL1         0.0976
      17    C5      17.635693   19.175908   21.621015 C.3        1 MOL1        -0.1350
      18    H12     17.395024   19.445258   20.583040 H          1 MOL1         0.0976
      19    H13     17.422377   20.067755   22.226681 H          1 MOL1         0.0976
      20    C6      16.712355   18.016295   22.059291 C.3        1 MOL1        -0.2365
      21    H14     16.928772   17.102543   21.490759 H          1 MOL1         0.0987
      22    H15     15.660215   18.277267   21.886573 H          1 MOL1         0.0987
      23    H16     16.824293   17.792099   23.127210 H          1 MOL1         0.0987
@<TRIPOS>BOND
    1     1     2    1
    2     1     3    1
    3     1     4    1
    4     1     5    1
    5     5     6    1
    6     5     7    1
    7     5     8    1
    8     8     9    1
    9     8    10    1
   10     8    11    1
   11    11    12    1
   12    11    13    1
   13    11    14    1
   14    14    15    1
   15    14    16    1
   16    14    17    1
   17    17    18    1
   18    17    19    1
   19    17    20    1
   20    20    21    1
   21    20    22    1
   22    20    23    1
@<TRIPOS>SUBSTRUCTURE
       1 MOL1            1 RESIDUE      1      MOL     
@<SCITEGIC>MOL_PROPERTY
VConf Rank
SciTegic.value.IntegerValue
759

@<SCITEGIC>MOL_PROPERTY
Conf_Id
SciTegic.value.IntegerValue
50

@<SCITEGIC>MOL_PROPERTY
Delta U+W
SciTegic.value.DoubleValue
1.252

@<SCITEGIC>MOL_PROPERTY
U+W
SciTegic.value.DoubleValue
-7.130

@<SCITEGIC>MOL_PROPERTY
Grad RMS
SciTegic.value.DoubleValue
0.000000

@<SCITEGIC>MOL_PROPERTY
U
SciTegic.value.DoubleValue
48.727

@<SCITEGIC>MOL_PROPERTY
W
SciTegic.value.DoubleValue
-55.857

@<SCITEGIC>MOL_PROPERTY
W(PB)
SciTegic.value.DoubleValue
-57.937

@<SCITEGIC>MOL_PROPERTY
W(SA)
SciTegic.value.DoubleValue
2.080

@<SCITEGIC>MOL_PROPERTY
Valence
SciTegic.value.DoubleValue
2.671

@<SCITEGIC>MOL_PROPERTY
Coulomb
SciTegic.value.DoubleValue
45.371

@<SCITEGIC>MOL_PROPERTY
VdW
SciTegic.value.DoubleValue
0.684

@<SCITEGIC>MOL_PROPERTY
VdW6
SciTegic.value.DoubleValue
-6.511

@<SCITEGIC>MOL_PROPERTY
VdW12
SciTegic.value.DoubleValue
7.196

@<SCITEGIC>MOL_PROPERTY
Bond
SciTegic.value.DoubleValue
0.203

@<SCITEGIC>MOL_PROPERTY
Angle
SciTegic.value.DoubleValue
0.915

@<SCITEGIC>MOL_PROPERTY
Pdih
SciTegic.value.DoubleValue
1.554

@<SCITEGIC>MOL_PROPERTY
Idih
SciTegic.value.DoubleValue
0.000

@<SCITEGIC>MOL_PROPERTY
Tether
SciTegic.value.DoubleValue
0.000

@<TRIPOS>MOLECULE
guest-2_confgen4.mol2 : confsearch ligand conformer 760
          23          22           1
SMALL
USER_CHARGES
 
@<TRIPOS>ATOM
       1    N1      17.885048   21.502713   21.953472 N.4        1 MOL1        -0.5940
       2    H1      17.363232   21.010943   22.685184 H          1 MOL1         0.3649
       3    H2      17.193923   21.898348   21.307137 H          1 MOL1         0.3649
       4    H3      18.362598   22.292118   22.400026 H          1 MOL1         0.3649
       5    C1      18.859081   20.583603   21.242321 C.3        1 MOL1         0.0207
       6    H4      19.346044   21.163493   20.453544 H          1 MOL1         0.0950
       7    H5      18.285653   19.781249   20.770283 H          1 MOL1         0.0950
       8    C2      19.932481   19.978276   22.167604 C.3        1 MOL1        -0.1415
       9    H6      20.646156   19.424093   21.547755 H          1 MOL1         0.0976
      10    H7      20.502044   20.787769   22.643091 H          1 MOL1         0.0976
      11    C3      19.330468   19.050019   23.253235 C.3        1 MOL1        -0.1375
      12    H8      18.681137   18.293007   22.792088 H          1 MOL1         0.0976
      13    H9      18.682492   19.650697   23.905386 H          1 MOL1         0.0976
      14    C4      20.402791   18.362345   24.138296 C.3        1 MOL1        -0.1375
      15    H10     21.298631   18.994093   24.212854 H          1 MOL1         0.0976
      16    H11     20.007048   18.289151   25.160804 H          1 MOL1         0.0976
      17    C5      20.795019   16.931865   23.687638 C.3        1 MOL1        -0.1350
      18    H12     19.909513   16.281529   23.714384 H          1 MOL1         0.0976
      19    H13     21.499394   16.516104   24.421676 H          1 MOL1         0.0976
      20    C6      21.440785   16.860035   22.286618 C.3        1 MOL1        -0.2365
      21    H14     22.295600   17.544178   22.208678 H          1 MOL1         0.0987
      22    H15     20.717771   17.111644   21.500985 H          1 MOL1         0.0987
      23    H16     21.804329   15.844376   22.083736 H          1 MOL1         0.0987
@<TRIPOS>BOND
    1     1     2    1
    2     1     3    1
    3     1     4    1
    4     1     5    1
    5     5     6    1
    6     5     7    1
    7     5     8    1
    8     8     9    1
    9     8    10    1
   10     8    11    1
   11    11    12    1
   12    11    13    1
   13    11    14    1
   14    14    15    1
   15    14    16    1
   16    14    17    1
   17    17    18    1
   18    17    19    1
   19    17    20    1
   20    20    21    1
   21    20    22    1
   22    20    23    1
@<TRIPOS>SUBSTRUCTURE
       1 MOL1            1 RESIDUE      1      MOL     
@<SCITEGIC>MOL_PROPERTY
VConf Rank
SciTegic.value.IntegerValue
760

@<SCITEGIC>MOL_PROPERTY
Conf_Id
SciTegic.value.IntegerValue
55

@<SCITEGIC>MOL_PROPERTY
Delta U+W
SciTegic.value.DoubleValue
3.232

@<SCITEGIC>MOL_PROPERTY
U+W
SciTegic.value.DoubleValue
-5.150

@<SCITEGIC>MOL_PROPERTY
Grad RMS
SciTegic.value.DoubleValue
0.000000

@<SCITEGIC>MOL_PROPERTY
U
SciTegic.value.DoubleValue
50.625

@<SCITEGIC>MOL_PROPERTY
W
SciTegic.value.DoubleValue
-55.776

@<SCITEGIC>MOL_PROPERTY
W(PB)
SciTegic.value.DoubleValue
-57.839

@<SCITEGIC>MOL_PROPERTY
W(SA)
SciTegic.value.DoubleValue
2.064

@<SCITEGIC>MOL_PROPERTY
Valence
SciTegic.value.DoubleValue
4.837

@<SCITEGIC>MOL_PROPERTY
Coulomb
SciTegic.value.DoubleValue
45.097

@<SCITEGIC>MOL_PROPERTY
VdW
SciTegic.value.DoubleValue
0.692

@<SCITEGIC>MOL_PROPERTY
VdW6
SciTegic.value.DoubleValue
-6.655

@<SCITEGIC>MOL_PROPERTY
VdW12
SciTegic.value.DoubleValue
7.347

@<SCITEGIC>MOL_PROPERTY
Bond
SciTegic.value.DoubleValue
0.223

@<SCITEGIC>MOL_PROPERTY
Angle
SciTegic.value.DoubleValue
1.167

@<SCITEGIC>MOL_PROPERTY
Pdih
SciTegic.value.DoubleValue
3.447

@<SCITEGIC>MOL_PROPERTY
Idih
SciTegic.value.DoubleValue
0.000

@<SCITEGIC>MOL_PROPERTY
Tether
SciTegic.value.DoubleValue
0.000

@<TRIPOS>MOLECULE
guest-2_confgen4.mol2 : confsearch ligand conformer 761
          23          22           1
SMALL
USER_CHARGES
 
@<TRIPOS>ATOM
       1    N1      22.353156   20.213412   21.142103 N.4        1 MOL1        -0.5940
       2    H1      22.833654   21.053516   21.480001 H          1 MOL1         0.3649
       3    H2      22.400892   20.234972   20.117772 H          1 MOL1         0.3649
       4    H3      22.905400   19.406343   21.449386 H          1 MOL1         0.3649
       5    C1      20.923217   20.142365   21.637963 C.3        1 MOL1         0.0207
       6    H4      20.466614   19.247392   21.211491 H          1 MOL1         0.0950
       7    H5      20.389611   21.014528   21.250669 H          1 MOL1         0.0950
       8    C2      20.819457   20.115682   23.175593 C.3        1 MOL1        -0.1415
       9    H6      21.390091   19.270353   23.582605 H          1 MOL1         0.0976
      10    H7      21.294489   21.026223   23.564538 H          1 MOL1         0.0976
      11    C3      19.357013   20.066497   23.685792 C.3        1 MOL1        -0.1375
      12    H8      18.713676   20.685059   23.044619 H          1 MOL1         0.0976
      13    H9      19.325837   20.536152   24.678742 H          1 MOL1         0.0976
      14    C4      18.759828   18.641834   23.824273 C.3        1 MOL1        -0.1375
      15    H10     19.351966   18.065642   24.548612 H          1 MOL1         0.0976
      16    H11     17.754405   18.733723   24.258003 H          1 MOL1         0.0976
      17    C5      18.662530   17.852494   22.498385 C.3        1 MOL1        -0.1350
      18    H12     19.668880   17.614750   22.130075 H          1 MOL1         0.0976
      19    H13     18.171245   18.467993   21.731914 H          1 MOL1         0.0976
      20    C6      17.878554   16.534810   22.676630 C.3        1 MOL1        -0.2365
      21    H14     16.849880   16.728301   23.007696 H          1 MOL1         0.0987
      22    H15     18.360706   15.886328   23.419766 H          1 MOL1         0.0987
      23    H16     17.828540   15.982417   21.729323 H          1 MOL1         0.0987
@<TRIPOS>BOND
    1     1     2    1
    2     1     3    1
    3     1     4    1
    4     1     5    1
    5     5     6    1
    6     5     7    1
    7     5     8    1
    8     8     9    1
    9     8    10    1
   10     8    11    1
   11    11    12    1
   12    11    13    1
   13    11    14    1
   14    14    15    1
   15    14    16    1
   16    14    17    1
   17    17    18    1
   18    17    19    1
   19    17    20    1
   20    20    21    1
   21    20    22    1
   22    20    23    1
@<TRIPOS>SUBSTRUCTURE
       1 MOL1            1 RESIDUE      1      MOL     
@<SCITEGIC>MOL_PROPERTY
VConf Rank
SciTegic.value.IntegerValue
761

@<SCITEGIC>MOL_PROPERTY
Conf_Id
SciTegic.value.IntegerValue
93

@<SCITEGIC>MOL_PROPERTY
Delta U+W
SciTegic.value.DoubleValue
2.589

@<SCITEGIC>MOL_PROPERTY
U+W
SciTegic.value.DoubleValue
-5.793

@<SCITEGIC>MOL_PROPERTY
Grad RMS
SciTegic.value.DoubleValue
0.000000

@<SCITEGIC>MOL_PROPERTY
U
SciTegic.value.DoubleValue
50.122

@<SCITEGIC>MOL_PROPERTY
W
SciTegic.value.DoubleValue
-55.915

@<SCITEGIC>MOL_PROPERTY
W(PB)
SciTegic.value.DoubleValue
-58.031

@<SCITEGIC>MOL_PROPERTY
W(SA)
SciTegic.value.DoubleValue
2.115

@<SCITEGIC>MOL_PROPERTY
Valence
SciTegic.value.DoubleValue
4.132

@<SCITEGIC>MOL_PROPERTY
Coulomb
SciTegic.value.DoubleValue
45.536

@<SCITEGIC>MOL_PROPERTY
VdW
SciTegic.value.DoubleValue
0.454

@<SCITEGIC>MOL_PROPERTY
VdW6
SciTegic.value.DoubleValue
-6.262

@<SCITEGIC>MOL_PROPERTY
VdW12
SciTegic.value.DoubleValue
6.715

@<SCITEGIC>MOL_PROPERTY
Bond
SciTegic.value.DoubleValue
0.182

@<SCITEGIC>MOL_PROPERTY
Angle
SciTegic.value.DoubleValue
1.157

@<SCITEGIC>MOL_PROPERTY
Pdih
SciTegic.value.DoubleValue
2.794

@<SCITEGIC>MOL_PROPERTY
Idih
SciTegic.value.DoubleValue
0.000

@<SCITEGIC>MOL_PROPERTY
Tether
SciTegic.value.DoubleValue
0.000

@<TRIPOS>MOLECULE
guest-2_confgen4.mol2 : confsearch ligand conformer 762
          23          22           1
SMALL
USER_CHARGES
 
@<TRIPOS>ATOM
       1    N1      22.326119   17.386267   21.896319 N.4        1 MOL1        -0.5940
       2    H1      22.798659   18.273773   21.696832 H          1 MOL1         0.3649
       3    H2      22.383198   16.819588   21.043314 H          1 MOL1         0.3649
       4    H3      22.880136   16.904033   22.611402 H          1 MOL1         0.3649
       5    C1      20.892155   17.595674   22.338521 C.3        1 MOL1         0.0207
       6    H4      20.444780   16.611986   22.504691 H          1 MOL1         0.0950
       7    H5      20.357505   18.078192   21.518359 H          1 MOL1         0.0950
       8    C2      20.775046   18.438764   23.623539 C.3        1 MOL1        -0.1415
       9    H6      21.329763   17.924467   24.419659 H          1 MOL1         0.0976
      10    H7      21.261638   19.413641   23.486774 H          1 MOL1         0.0976
      11    C3      19.310644   18.634906   24.090999 C.3        1 MOL1        -0.1375
      12    H8      19.315938   18.774231   25.180980 H          1 MOL1         0.0976
      13    H9      18.732313   17.717819   23.911867 H          1 MOL1         0.0976
      14    C4      18.582640   19.854486   23.468014 C.3        1 MOL1        -0.1375
      15    H10     17.586920   19.928694   23.926790 H          1 MOL1         0.0976
      16    H11     19.113286   20.776712   23.742252 H          1 MOL1         0.0976
      17    C5      18.422242   19.793010   21.931461 C.3        1 MOL1        -0.1350
      18    H12     17.996019   18.823397   21.638438 H          1 MOL1         0.0976
      19    H13     19.404843   19.876447   21.449333 H          1 MOL1         0.0976
      20    C6      17.517849   20.928970   21.407678 C.3        1 MOL1        -0.2365
      21    H14     17.423759   20.876973   20.315217 H          1 MOL1         0.0987
      22    H15     17.932065   21.912895   21.663742 H          1 MOL1         0.0987
      23    H16     16.509179   20.860674   21.835621 H          1 MOL1         0.0987
@<TRIPOS>BOND
    1     1     2    1
    2     1     3    1
    3     1     4    1
    4     1     5    1
    5     5     6    1
    6     5     7    1
    7     5     8    1
    8     8     9    1
    9     8    10    1
   10     8    11    1
   11    11    12    1
   12    11    13    1
   13    11    14    1
   14    14    15    1
   15    14    16    1
   16    14    17    1
   17    17    18    1
   18    17    19    1
   19    17    20    1
   20    20    21    1
   21    20    22    1
   22    20    23    1
@<TRIPOS>SUBSTRUCTURE
       1 MOL1            1 RESIDUE      1      MOL     
@<SCITEGIC>MOL_PROPERTY
VConf Rank
SciTegic.value.IntegerValue
762

@<SCITEGIC>MOL_PROPERTY
Conf_Id
SciTegic.value.IntegerValue
70

@<SCITEGIC>MOL_PROPERTY
Delta U+W
SciTegic.value.DoubleValue
2.599

@<SCITEGIC>MOL_PROPERTY
U+W
SciTegic.value.DoubleValue
-5.783

@<SCITEGIC>MOL_PROPERTY
Grad RMS
SciTegic.value.DoubleValue
0.000000

@<SCITEGIC>MOL_PROPERTY
U
SciTegic.value.DoubleValue
50.122

@<SCITEGIC>MOL_PROPERTY
W
SciTegic.value.DoubleValue
-55.906

@<SCITEGIC>MOL_PROPERTY
W(PB)
SciTegic.value.DoubleValue
-58.010

@<SCITEGIC>MOL_PROPERTY
W(SA)
SciTegic.value.DoubleValue
2.105

@<SCITEGIC>MOL_PROPERTY
Valence
SciTegic.value.DoubleValue
4.132

@<SCITEGIC>MOL_PROPERTY
Coulomb
SciTegic.value.DoubleValue
45.536

@<SCITEGIC>MOL_PROPERTY
VdW
SciTegic.value.DoubleValue
0.454

@<SCITEGIC>MOL_PROPERTY
VdW6
SciTegic.value.DoubleValue
-6.262

@<SCITEGIC>MOL_PROPERTY
VdW12
SciTegic.value.DoubleValue
6.715

@<SCITEGIC>MOL_PROPERTY
Bond
SciTegic.value.DoubleValue
0.182

@<SCITEGIC>MOL_PROPERTY
Angle
SciTegic.value.DoubleValue
1.157

@<SCITEGIC>MOL_PROPERTY
Pdih
SciTegic.value.DoubleValue
2.794

@<SCITEGIC>MOL_PROPERTY
Idih
SciTegic.value.DoubleValue
0.000

@<SCITEGIC>MOL_PROPERTY
Tether
SciTegic.value.DoubleValue
0.000

@<TRIPOS>MOLECULE
guest-2_confgen4.mol2 : confsearch ligand conformer 763
          23          22           1
SMALL
USER_CHARGES
 
@<TRIPOS>ATOM
       1    N1      21.002776   21.518806   23.084250 N.4        1 MOL1        -0.5940
       2    H1      21.399075   22.126977   22.360660 H          1 MOL1         0.3649
       3    H2      21.302891   21.895902   23.989508 H          1 MOL1         0.3649
       4    H3      19.984194   21.618367   23.039032 H          1 MOL1         0.3649
       5    C1      21.432337   20.076158   22.904033 C.3        1 MOL1         0.0207
       6    H4      21.005855   19.489978   23.722233 H          1 MOL1         0.0950
       7    H5      22.521578   20.039493   22.991814 H          1 MOL1         0.0950
       8    C2      21.006536   19.468940   21.552085 C.3        1 MOL1        -0.1415
       9    H6      21.468343   20.044322   20.738829 H          1 MOL1         0.0976
      10    H7      21.420105   18.455467   21.473045 H          1 MOL1         0.0976
      11    C3      19.470739   19.424624   21.336749 C.3        1 MOL1        -0.1375
      12    H8      19.262475   18.942698   20.371567 H          1 MOL1         0.0976
      13    H9      19.088401   20.450066   21.244450 H          1 MOL1         0.0976
      14    C4      18.676191   18.692711   22.449312 C.3        1 MOL1        -0.1375
      15    H10     18.797211   19.217332   23.406401 H          1 MOL1         0.0976
      16    H11     17.606280   18.750863   22.205905 H          1 MOL1         0.0976
      17    C5      19.072761   17.206872   22.616365 C.3        1 MOL1        -0.1350
      18    H12     20.122306   17.127784   22.929638 H          1 MOL1         0.0976
      19    H13     18.988432   16.689545   21.650459 H          1 MOL1         0.0976
      20    C6      18.184303   16.494285   23.658116 C.3        1 MOL1        -0.2365
      21    H14     18.480646   15.442822   23.765912 H          1 MOL1         0.0987
      22    H15     17.128332   16.517300   23.358801 H          1 MOL1         0.0987
      23    H16     18.271047   16.971447   24.642999 H          1 MOL1         0.0987
@<TRIPOS>BOND
    1     1     2    1
    2     1     3    1
    3     1     4    1
    4     1     5    1
    5     5     6    1
    6     5     7    1
    7     5     8    1
    8     8     9    1
    9     8    10    1
   10     8    11    1
   11    11    12    1
   12    11    13    1
   13    11    14    1
   14    14    15    1
   15    14    16    1
   16    14    17    1
   17    17    18    1
   18    17    19    1
   19    17    20    1
   20    20    21    1
   21    20    22    1
   22    20    23    1
@<TRIPOS>SUBSTRUCTURE
       1 MOL1            1 RESIDUE      1      MOL     
@<SCITEGIC>MOL_PROPERTY
VConf Rank
SciTegic.value.IntegerValue
763

@<SCITEGIC>MOL_PROPERTY
Conf_Id
SciTegic.value.IntegerValue
72

@<SCITEGIC>MOL_PROPERTY
Delta U+W
SciTegic.value.DoubleValue
1.051

@<SCITEGIC>MOL_PROPERTY
U+W
SciTegic.value.DoubleValue
-7.331

@<SCITEGIC>MOL_PROPERTY
Grad RMS
SciTegic.value.DoubleValue
0.000000

@<SCITEGIC>MOL_PROPERTY
U
SciTegic.value.DoubleValue
48.590

@<SCITEGIC>MOL_PROPERTY
W
SciTegic.value.DoubleValue
-55.922

@<SCITEGIC>MOL_PROPERTY
W(PB)
SciTegic.value.DoubleValue
-58.012

@<SCITEGIC>MOL_PROPERTY
W(SA)
SciTegic.value.DoubleValue
2.090

@<SCITEGIC>MOL_PROPERTY
Valence
SciTegic.value.DoubleValue
2.601

@<SCITEGIC>MOL_PROPERTY
Coulomb
SciTegic.value.DoubleValue
45.520

@<SCITEGIC>MOL_PROPERTY
VdW
SciTegic.value.DoubleValue
0.469

@<SCITEGIC>MOL_PROPERTY
VdW6
SciTegic.value.DoubleValue
-6.867

@<SCITEGIC>MOL_PROPERTY
VdW12
SciTegic.value.DoubleValue
7.336

@<SCITEGIC>MOL_PROPERTY
Bond
SciTegic.value.DoubleValue
0.205

@<SCITEGIC>MOL_PROPERTY
Angle
SciTegic.value.DoubleValue
0.962

@<SCITEGIC>MOL_PROPERTY
Pdih
SciTegic.value.DoubleValue
1.434

@<SCITEGIC>MOL_PROPERTY
Idih
SciTegic.value.DoubleValue
0.000

@<SCITEGIC>MOL_PROPERTY
Tether
SciTegic.value.DoubleValue
0.000

@<TRIPOS>MOLECULE
guest-2_confgen4.mol2 : confsearch ligand conformer 764
          23          22           1
SMALL
USER_CHARGES
 
@<TRIPOS>ATOM
       1    N1      19.800309   15.945698   23.448734 N.4        1 MOL1        -0.5940
       2    H1      19.322797   15.467519   24.220280 H          1 MOL1         0.3649
       3    H2      20.700719   15.473566   23.317823 H          1 MOL1         0.3649
       4    H3      19.245239   15.776233   22.603843 H          1 MOL1         0.3649
       5    C1      19.973239   17.425420   23.724698 C.3        1 MOL1         0.0207
       6    H4      20.546340   17.532096   24.649644 H          1 MOL1         0.0950
       7    H5      18.980959   17.855845   23.882966 H          1 MOL1         0.0950
       8    C2      20.687696   18.173293   22.583622 C.3        1 MOL1        -0.1415
       9    H6      21.667332   17.709373   22.408068 H          1 MOL1         0.0976
      10    H7      20.120052   18.056059   21.651706 H          1 MOL1         0.0976
      11    C3      20.894768   19.676950   22.892166 C.3        1 MOL1        -0.1375
      12    H8      21.426572   20.145626   22.053431 H          1 MOL1         0.0976
      13    H9      21.565022   19.772378   23.757593 H          1 MOL1         0.0976
      14    C4      19.591089   20.467210   23.186562 C.3        1 MOL1        -0.1375
      15    H10     19.146915   20.102658   24.122572 H          1 MOL1         0.0976
      16    H11     19.852872   21.517644   23.374257 H          1 MOL1         0.0976
      17    C5      18.519468   20.411570   22.068191 C.3        1 MOL1        -0.1350
      18    H12     17.644429   20.991872   22.392607 H          1 MOL1         0.0976
      19    H13     18.163610   19.381294   21.933978 H          1 MOL1         0.0976
      20    C6      19.014901   20.972897   20.716165 C.3        1 MOL1        -0.2365
      21    H14     19.387812   21.999217   20.828166 H          1 MOL1         0.0987
      22    H15     18.197151   20.990673   19.984173 H          1 MOL1         0.0987
      23    H16     19.820873   20.358253   20.296427 H          1 MOL1         0.0987
@<TRIPOS>BOND
    1     1     2    1
    2     1     3    1
    3     1     4    1
    4     1     5    1
    5     5     6    1
    6     5     7    1
    7     5     8    1
    8     8     9    1
    9     8    10    1
   10     8    11    1
   11    11    12    1
   12    11    13    1
   13    11    14    1
   14    14    15    1
   15    14    16    1
   16    14    17    1
   17    17    18    1
   18    17    19    1
   19    17    20    1
   20    20    21    1
   21    20    22    1
   22    20    23    1
@<TRIPOS>SUBSTRUCTURE
       1 MOL1            1 RESIDUE      1      MOL     
@<SCITEGIC>MOL_PROPERTY
VConf Rank
SciTegic.value.IntegerValue
764

@<SCITEGIC>MOL_PROPERTY
Conf_Id
SciTegic.value.IntegerValue
26

@<SCITEGIC>MOL_PROPERTY
Delta U+W
SciTegic.value.DoubleValue
1.076

@<SCITEGIC>MOL_PROPERTY
U+W
SciTegic.value.DoubleValue
-7.306

@<SCITEGIC>MOL_PROPERTY
Grad RMS
SciTegic.value.DoubleValue
0.000000

@<SCITEGIC>MOL_PROPERTY
U
SciTegic.value.DoubleValue
48.641

@<SCITEGIC>MOL_PROPERTY
W
SciTegic.value.DoubleValue
-55.947

@<SCITEGIC>MOL_PROPERTY
W(PB)
SciTegic.value.DoubleValue
-58.031

@<SCITEGIC>MOL_PROPERTY
W(SA)
SciTegic.value.DoubleValue
2.084

@<SCITEGIC>MOL_PROPERTY
Valence
SciTegic.value.DoubleValue
2.922

@<SCITEGIC>MOL_PROPERTY
Coulomb
SciTegic.value.DoubleValue
45.269

@<SCITEGIC>MOL_PROPERTY
VdW
SciTegic.value.DoubleValue
0.449

@<SCITEGIC>MOL_PROPERTY
VdW6
SciTegic.value.DoubleValue
-7.045

@<SCITEGIC>MOL_PROPERTY
VdW12
SciTegic.value.DoubleValue
7.494

@<SCITEGIC>MOL_PROPERTY
Bond
SciTegic.value.DoubleValue
0.220

@<SCITEGIC>MOL_PROPERTY
Angle
SciTegic.value.DoubleValue
1.205

@<SCITEGIC>MOL_PROPERTY
Pdih
SciTegic.value.DoubleValue
1.497

@<SCITEGIC>MOL_PROPERTY
Idih
SciTegic.value.DoubleValue
0.000

@<SCITEGIC>MOL_PROPERTY
Tether
SciTegic.value.DoubleValue
0.000

@<TRIPOS>MOLECULE
guest-2_confgen4.mol2 : confsearch ligand conformer 765
          23          22           1
SMALL
USER_CHARGES
 
@<TRIPOS>ATOM
       1    N1      20.379290   16.861657   20.388308 N.4        1 MOL1        -0.5940
       2    H1      19.703015   16.849120   19.618064 H          1 MOL1         0.3649
       3    H2      20.760271   15.912523   20.465494 H          1 MOL1         0.3649
       4    H3      21.152145   17.470709   20.101230 H          1 MOL1         0.3649
       5    C1      19.748317   17.322124   21.686567 C.3        1 MOL1         0.0207
       6    H4      20.514462   17.281896   22.465242 H          1 MOL1         0.0950
       7    H5      18.955704   16.615359   21.946562 H          1 MOL1         0.0950
       8    C2      19.166256   18.745564   21.603837 C.3        1 MOL1        -0.1415
       9    H6      19.958388   19.454112   21.330123 H          1 MOL1         0.0976
      10    H7      18.425207   18.784192   20.794465 H          1 MOL1         0.0976
      11    C3      18.489035   19.191940   22.923375 C.3        1 MOL1        -0.1375
      12    H8      17.623988   18.542247   23.115483 H          1 MOL1         0.0976
      13    H9      18.077057   20.201364   22.791882 H          1 MOL1         0.0976
      14    C4      19.413161   19.167073   24.170825 C.3        1 MOL1        -0.1375
      15    H10     18.838150   19.515245   25.039908 H          1 MOL1         0.0976
      16    H11     19.691181   18.129164   24.398317 H          1 MOL1         0.0976
      17    C5      20.703674   20.017245   24.052480 C.3        1 MOL1        -0.1350
      18    H12     21.347337   19.621772   23.255348 H          1 MOL1         0.0976
      19    H13     21.278748   19.912077   24.983028 H          1 MOL1         0.0976
      20    C6      20.428530   21.517752   23.804905 C.3        1 MOL1        -0.2365
      21    H14     19.950851   21.683915   22.831369 H          1 MOL1         0.0987
      22    H15     21.366648   22.087562   23.814485 H          1 MOL1         0.0987
      23    H16     19.775560   21.932652   24.583641 H          1 MOL1         0.0987
@<TRIPOS>BOND
    1     1     2    1
    2     1     3    1
    3     1     4    1
    4     1     5    1
    5     5     6    1
    6     5     7    1
    7     5     8    1
    8     8     9    1
    9     8    10    1
   10     8    11    1
   11    11    12    1
   12    11    13    1
   13    11    14    1
   14    14    15    1
   15    14    16    1
   16    14    17    1
   17    17    18    1
   18    17    19    1
   19    17    20    1
   20    20    21    1
   21    20    22    1
   22    20    23    1
@<TRIPOS>SUBSTRUCTURE
       1 MOL1            1 RESIDUE      1      MOL     
@<SCITEGIC>MOL_PROPERTY
VConf Rank
SciTegic.value.IntegerValue
765

@<SCITEGIC>MOL_PROPERTY
Conf_Id
SciTegic.value.IntegerValue
90

@<SCITEGIC>MOL_PROPERTY
Delta U+W
SciTegic.value.DoubleValue
1.131

@<SCITEGIC>MOL_PROPERTY
U+W
SciTegic.value.DoubleValue
-7.251

@<SCITEGIC>MOL_PROPERTY
Grad RMS
SciTegic.value.DoubleValue
0.000000

@<SCITEGIC>MOL_PROPERTY
U
SciTegic.value.DoubleValue
48.641

@<SCITEGIC>MOL_PROPERTY
W
SciTegic.value.DoubleValue
-55.892

@<SCITEGIC>MOL_PROPERTY
W(PB)
SciTegic.value.DoubleValue
-57.962

@<SCITEGIC>MOL_PROPERTY
W(SA)
SciTegic.value.DoubleValue
2.070

@<SCITEGIC>MOL_PROPERTY
Valence
SciTegic.value.DoubleValue
2.922

@<SCITEGIC>MOL_PROPERTY
Coulomb
SciTegic.value.DoubleValue
45.269

@<SCITEGIC>MOL_PROPERTY
VdW
SciTegic.value.DoubleValue
0.450

@<SCITEGIC>MOL_PROPERTY
VdW6
SciTegic.value.DoubleValue
-7.045

@<SCITEGIC>MOL_PROPERTY
VdW12
SciTegic.value.DoubleValue
7.495

@<SCITEGIC>MOL_PROPERTY
Bond
SciTegic.value.DoubleValue
0.220

@<SCITEGIC>MOL_PROPERTY
Angle
SciTegic.value.DoubleValue
1.205

@<SCITEGIC>MOL_PROPERTY
Pdih
SciTegic.value.DoubleValue
1.497

@<SCITEGIC>MOL_PROPERTY
Idih
SciTegic.value.DoubleValue
0.000

@<SCITEGIC>MOL_PROPERTY
Tether
SciTegic.value.DoubleValue
0.000

@<TRIPOS>MOLECULE
guest-2_confgen4.mol2 : confsearch ligand conformer 766
          23          22           1
SMALL
USER_CHARGES
 
@<TRIPOS>ATOM
       1    N1      21.580654   17.402506   21.373491 N.4        1 MOL1        -0.5940
       2    H1      21.741855   17.064294   20.418777 H          1 MOL1         0.3649
       3    H2      20.620917   17.147477   21.625458 H          1 MOL1         0.3649
       4    H3      22.207045   16.872984   21.988157 H          1 MOL1         0.3649
       5    C1      21.810291   18.896671   21.488089 C.3        1 MOL1         0.0207
       6    H4      21.136453   19.397765   20.788401 H          1 MOL1         0.0950
       7    H5      22.837582   19.100744   21.174169 H          1 MOL1         0.0950
       8    C2      21.590501   19.450125   22.910858 C.3        1 MOL1        -0.1415
       9    H6      22.304403   18.974262   23.596195 H          1 MOL1         0.0976
      10    H7      21.832215   20.521299   22.913141 H          1 MOL1         0.0976
      11    C3      20.151561   19.249699   23.449248 C.3        1 MOL1        -0.1375
      12    H8      20.098535   19.659654   24.467204 H          1 MOL1         0.0976
      13    H9      19.941028   18.176630   23.540366 H          1 MOL1         0.0976
      14    C4      19.074050   19.933014   22.569745 C.3        1 MOL1        -0.1375
      15    H10     19.348690   20.986366   22.420449 H          1 MOL1         0.0976
      16    H11     19.052285   19.474412   21.572177 H          1 MOL1         0.0976
      17    C5      17.654743   19.877455   23.184458 C.3        1 MOL1        -0.1350
      18    H12     16.975330   20.471852   22.557619 H          1 MOL1         0.0976
      19    H13     17.658411   20.356898   24.173347 H          1 MOL1         0.0976
      20    C6      17.094052   18.442055   23.304399 C.3        1 MOL1        -0.2365
      21    H14     17.104365   17.931377   22.332782 H          1 MOL1         0.0987
      22    H15     16.055934   18.464046   23.660437 H          1 MOL1         0.0987
      23    H16     17.673345   17.840820   24.015979 H          1 MOL1         0.0987
@<TRIPOS>BOND
    1     1     2    1
    2     1     3    1
    3     1     4    1
    4     1     5    1
    5     5     6    1
    6     5     7    1
    7     5     8    1
    8     8     9    1
    9     8    10    1
   10     8    11    1
   11    11    12    1
   12    11    13    1
   13    11    14    1
   14    14    15    1
   15    14    16    1
   16    14    17    1
   17    17    18    1
   18    17    19    1
   19    17    20    1
   20    20    21    1
   21    20    22    1
   22    20    23    1
@<TRIPOS>SUBSTRUCTURE
       1 MOL1            1 RESIDUE      1      MOL     
@<SCITEGIC>MOL_PROPERTY
VConf Rank
SciTegic.value.IntegerValue
766

@<SCITEGIC>MOL_PROPERTY
Conf_Id
SciTegic.value.IntegerValue
85

@<SCITEGIC>MOL_PROPERTY
Delta U+W
SciTegic.value.DoubleValue
1.193

@<SCITEGIC>MOL_PROPERTY
U+W
SciTegic.value.DoubleValue
-7.189

@<SCITEGIC>MOL_PROPERTY
Grad RMS
SciTegic.value.DoubleValue
0.000000

@<SCITEGIC>MOL_PROPERTY
U
SciTegic.value.DoubleValue
48.775

@<SCITEGIC>MOL_PROPERTY
W
SciTegic.value.DoubleValue
-55.965

@<SCITEGIC>MOL_PROPERTY
W(PB)
SciTegic.value.DoubleValue
-58.038

@<SCITEGIC>MOL_PROPERTY
W(SA)
SciTegic.value.DoubleValue
2.073

@<SCITEGIC>MOL_PROPERTY
Valence
SciTegic.value.DoubleValue
2.602

@<SCITEGIC>MOL_PROPERTY
Coulomb
SciTegic.value.DoubleValue
45.581

@<SCITEGIC>MOL_PROPERTY
VdW
SciTegic.value.DoubleValue
0.592

@<SCITEGIC>MOL_PROPERTY
VdW6
SciTegic.value.DoubleValue
-6.616

@<SCITEGIC>MOL_PROPERTY
VdW12
SciTegic.value.DoubleValue
7.208

@<SCITEGIC>MOL_PROPERTY
Bond
SciTegic.value.DoubleValue
0.196

@<SCITEGIC>MOL_PROPERTY
Angle
SciTegic.value.DoubleValue
0.832

@<SCITEGIC>MOL_PROPERTY
Pdih
SciTegic.value.DoubleValue
1.574

@<SCITEGIC>MOL_PROPERTY
Idih
SciTegic.value.DoubleValue
0.000

@<SCITEGIC>MOL_PROPERTY
Tether
SciTegic.value.DoubleValue
0.000

@<TRIPOS>MOLECULE
guest-2_confgen4.mol2 : confsearch ligand conformer 767
          23          22           1
SMALL
USER_CHARGES
 
@<TRIPOS>ATOM
       1    N1      19.151220   17.197675   23.532739 N.4        1 MOL1        -0.5940
       2    H1      19.935876   17.853475   23.602817 H          1 MOL1         0.3649
       3    H2      19.541299   16.248999   23.545228 H          1 MOL1         0.3649
       4    H3      18.589310   17.300709   24.384006 H          1 MOL1         0.3649
       5    C1      18.329257   17.451994   22.283994 C.3        1 MOL1         0.0207
       6    H4      17.517293   16.719724   22.281582 H          1 MOL1         0.0950
       7    H5      18.956236   17.266008   21.407961 H          1 MOL1         0.0950
       8    C2      17.728170   18.870250   22.206789 C.3        1 MOL1        -0.1415
       9    H6      16.868050   18.831454   21.525228 H          1 MOL1         0.0976
      10    H7      17.320279   19.154197   23.186009 H          1 MOL1         0.0976
      11    C3      18.692860   19.971266   21.689828 C.3        1 MOL1        -0.1375
      12    H8      18.121644   20.908323   21.633773 H          1 MOL1         0.0976
      13    H9      18.995358   19.750002   20.656868 H          1 MOL1         0.0976
      14    C4      19.943638   20.223782   22.570197 C.3        1 MOL1        -0.1375
      15    H10     20.171255   21.298782   22.552757 H          1 MOL1         0.0976
      16    H11     19.723281   19.985762   23.619252 H          1 MOL1         0.0976
      17    C5      21.199515   19.464420   22.077001 C.3        1 MOL1        -0.1350
      18    H12     21.490333   19.848810   21.089173 H          1 MOL1         0.0976
      19    H13     20.986580   18.398210   21.935108 H          1 MOL1         0.0976
      20    C6      22.384231   19.626548   23.052700 C.3        1 MOL1        -0.2365
      21    H14     22.653967   20.684073   23.172082 H          1 MOL1         0.0987
      22    H15     23.269048   19.094533   22.679556 H          1 MOL1         0.0987
      23    H16     22.142104   19.222842   24.044245 H          1 MOL1         0.0987
@<TRIPOS>BOND
    1     1     2    1
    2     1     3    1
    3     1     4    1
    4     1     5    1
    5     5     6    1
    6     5     7    1
    7     5     8    1
    8     8     9    1
    9     8    10    1
   10     8    11    1
   11    11    12    1
   12    11    13    1
   13    11    14    1
   14    14    15    1
   15    14    16    1
   16    14    17    1
   17    17    18    1
   18    17    19    1
   19    17    20    1
   20    20    21    1
   21    20    22    1
   22    20    23    1
@<TRIPOS>SUBSTRUCTURE
       1 MOL1            1 RESIDUE      1      MOL     
@<SCITEGIC>MOL_PROPERTY
VConf Rank
SciTegic.value.IntegerValue
767

@<SCITEGIC>MOL_PROPERTY
Conf_Id
SciTegic.value.IntegerValue
82

@<SCITEGIC>MOL_PROPERTY
Delta U+W
SciTegic.value.DoubleValue
5.994

@<SCITEGIC>MOL_PROPERTY
U+W
SciTegic.value.DoubleValue
-2.388

@<SCITEGIC>MOL_PROPERTY
Grad RMS
SciTegic.value.DoubleValue
0.000000

@<SCITEGIC>MOL_PROPERTY
U
SciTegic.value.DoubleValue
52.836

@<SCITEGIC>MOL_PROPERTY
W
SciTegic.value.DoubleValue
-55.224

@<SCITEGIC>MOL_PROPERTY
W(PB)
SciTegic.value.DoubleValue
-57.261

@<SCITEGIC>MOL_PROPERTY
W(SA)
SciTegic.value.DoubleValue
2.037

@<SCITEGIC>MOL_PROPERTY
Valence
SciTegic.value.DoubleValue
5.785

@<SCITEGIC>MOL_PROPERTY
Coulomb
SciTegic.value.DoubleValue
46.744

@<SCITEGIC>MOL_PROPERTY
VdW
SciTegic.value.DoubleValue
0.307

@<SCITEGIC>MOL_PROPERTY
VdW6
SciTegic.value.DoubleValue
-7.672

@<SCITEGIC>MOL_PROPERTY
VdW12
SciTegic.value.DoubleValue
7.979

@<SCITEGIC>MOL_PROPERTY
Bond
SciTegic.value.DoubleValue
0.217

@<SCITEGIC>MOL_PROPERTY
Angle
SciTegic.value.DoubleValue
1.470

@<SCITEGIC>MOL_PROPERTY
Pdih
SciTegic.value.DoubleValue
4.098

@<SCITEGIC>MOL_PROPERTY
Idih
SciTegic.value.DoubleValue
0.000

@<SCITEGIC>MOL_PROPERTY
Tether
SciTegic.value.DoubleValue
0.000

@<TRIPOS>MOLECULE
guest-2_confgen4.mol2 : confsearch ligand conformer 768
          23          22           1
SMALL
USER_CHARGES
 
@<TRIPOS>ATOM
       1    N1      20.206956   20.952407   22.010931 N.4        1 MOL1        -0.5940
       2    H1      21.170104   21.216538   21.779425 H          1 MOL1         0.3649
       3    H2      19.595997   21.677596   21.619610 H          1 MOL1         0.3649
       4    H3      20.002102   20.078292   21.516327 H          1 MOL1         0.3649
       5    C1      20.011717   20.798820   23.506908 C.3        1 MOL1         0.0207
       6    H4      18.958162   20.582098   23.702306 H          1 MOL1         0.0950
       7    H5      20.249103   21.764845   23.960730 H          1 MOL1         0.0950
       8    C2      20.898068   19.710800   24.146683 C.3        1 MOL1        -0.1415
       9    H6      21.916555   19.776194   23.741368 H          1 MOL1         0.0976
      10    H7      20.987603   19.940042   25.216856 H          1 MOL1         0.0976
      11    C3      20.362974   18.259318   24.016346 C.3        1 MOL1        -0.1375
      12    H8      19.401270   18.165759   24.539646 H          1 MOL1         0.0976
      13    H9      21.057411   17.603412   24.559530 H          1 MOL1         0.0976
      14    C4      20.235751   17.727172   22.565864 C.3        1 MOL1        -0.1375
      15    H10     20.976977   18.212792   21.917418 H          1 MOL1         0.0976
      16    H11     20.494679   16.659146   22.562141 H          1 MOL1         0.0976
      17    C5      18.807119   17.871445   21.986815 C.3        1 MOL1        -0.1350
      18    H12     18.437021   18.897544   22.098309 H          1 MOL1         0.0976
      19    H13     18.117699   17.237151   22.561711 H          1 MOL1         0.0976
      20    C6      18.750285   17.463302   20.499531 C.3        1 MOL1        -0.2365
      21    H14     19.403213   18.098108   19.886773 H          1 MOL1         0.0987
      22    H15     17.727970   17.557504   20.110715 H          1 MOL1         0.0987
      23    H16     19.065706   16.420305   20.365239 H          1 MOL1         0.0987
@<TRIPOS>BOND
    1     1     2    1
    2     1     3    1
    3     1     4    1
    4     1     5    1
    5     5     6    1
    6     5     7    1
    7     5     8    1
    8     8     9    1
    9     8    10    1
   10     8    11    1
   11    11    12    1
   12    11    13    1
   13    11    14    1
   14    14    15    1
   15    14    16    1
   16    14    17    1
   17    17    18    1
   18    17    19    1
   19    17    20    1
   20    20    21    1
   21    20    22    1
   22    20    23    1
@<TRIPOS>SUBSTRUCTURE
       1 MOL1            1 RESIDUE      1      MOL     
@<SCITEGIC>MOL_PROPERTY
VConf Rank
SciTegic.value.IntegerValue
768

@<SCITEGIC>MOL_PROPERTY
Conf_Id
SciTegic.value.IntegerValue
5

@<SCITEGIC>MOL_PROPERTY
Delta U+W
SciTegic.value.DoubleValue
6.087

@<SCITEGIC>MOL_PROPERTY
U+W
SciTegic.value.DoubleValue
-2.295

@<SCITEGIC>MOL_PROPERTY
Grad RMS
SciTegic.value.DoubleValue
0.000000

@<SCITEGIC>MOL_PROPERTY
U
SciTegic.value.DoubleValue
52.836

@<SCITEGIC>MOL_PROPERTY
W
SciTegic.value.DoubleValue
-55.131

@<SCITEGIC>MOL_PROPERTY
W(PB)
SciTegic.value.DoubleValue
-57.202

@<SCITEGIC>MOL_PROPERTY
W(SA)
SciTegic.value.DoubleValue
2.071

@<SCITEGIC>MOL_PROPERTY
Valence
SciTegic.value.DoubleValue
5.785

@<SCITEGIC>MOL_PROPERTY
Coulomb
SciTegic.value.DoubleValue
46.744

@<SCITEGIC>MOL_PROPERTY
VdW
SciTegic.value.DoubleValue
0.307

@<SCITEGIC>MOL_PROPERTY
VdW6
SciTegic.value.DoubleValue
-7.672

@<SCITEGIC>MOL_PROPERTY
VdW12
SciTegic.value.DoubleValue
7.980

@<SCITEGIC>MOL_PROPERTY
Bond
SciTegic.value.DoubleValue
0.217

@<SCITEGIC>MOL_PROPERTY
Angle
SciTegic.value.DoubleValue
1.470

@<SCITEGIC>MOL_PROPERTY
Pdih
SciTegic.value.DoubleValue
4.098

@<SCITEGIC>MOL_PROPERTY
Idih
SciTegic.value.DoubleValue
0.000

@<SCITEGIC>MOL_PROPERTY
Tether
SciTegic.value.DoubleValue
0.000

@<TRIPOS>MOLECULE
guest-2_confgen4.mol2 : confsearch ligand conformer 769
          23          22           1
SMALL
USER_CHARGES
 
@<TRIPOS>ATOM
       1    N1      16.459008   17.471259   21.407949 N.4        1 MOL1        -0.5940
       2    H1      15.989675   18.358188   21.198266 H          1 MOL1         0.3649
       3    H2      15.735091   16.820227   21.730742 H          1 MOL1         0.3649
       4    H3      16.816994   17.102441   20.520986 H          1 MOL1         0.3649
       5    C1      17.559987   17.642821   22.434746 C.3        1 MOL1         0.0207
       6    H4      17.994445   16.658899   22.631316 H          1 MOL1         0.0950
       7    H5      17.105167   18.008615   23.359316 H          1 MOL1         0.0950
       8    C2      18.663256   18.614850   21.980288 C.3        1 MOL1        -0.1415
       9    H6      19.105979   18.252032   21.043026 H          1 MOL1         0.0976
      10    H7      18.219809   19.596959   21.768354 H          1 MOL1         0.0976
      11    C3      19.764633   18.761824   23.053392 C.3        1 MOL1        -0.1375
      12    H8      20.202089   17.776409   23.266445 H          1 MOL1         0.0976
      13    H9      19.316863   19.119946   23.990970 H          1 MOL1         0.0976
      14    C4      20.878378   19.736251   22.607222 C.3        1 MOL1        -0.1375
      15    H10     21.326298   19.378229   21.669831 H          1 MOL1         0.0976
      16    H11     20.441136   20.721614   22.394170 H          1 MOL1         0.0976
      17    C5      21.979661   19.883081   23.680710 C.3        1 MOL1        -0.1350
      18    H12     22.421958   18.900150   23.895631 H          1 MOL1         0.0976
      19    H13     21.536877   20.243426   24.619894 H          1 MOL1         0.0976
      20    C6      23.089967   20.856777   23.231660 C.3        1 MOL1        -0.2365
      21    H14     23.862300   20.947921   24.006411 H          1 MOL1         0.0987
      22    H15     22.683391   21.858733   23.041898 H          1 MOL1         0.0987
      23    H16     23.575370   20.504976   22.311959 H          1 MOL1         0.0987
@<TRIPOS>BOND
    1     1     2    1
    2     1     3    1
    3     1     4    1
    4     1     5    1
    5     5     6    1
    6     5     7    1
    7     5     8    1
    8     8     9    1
    9     8    10    1
   10     8    11    1
   11    11    12    1
   12    11    13    1
   13    11    14    1
   14    14    15    1
   15    14    16    1
   16    14    17    1
   17    17    18    1
   18    17    19    1
   19    17    20    1
   20    20    21    1
   21    20    22    1
   22    20    23    1
@<TRIPOS>SUBSTRUCTURE
       1 MOL1            1 RESIDUE      1      MOL     
@<SCITEGIC>MOL_PROPERTY
VConf Rank
SciTegic.value.IntegerValue
769

@<SCITEGIC>MOL_PROPERTY
Conf_Id
SciTegic.value.IntegerValue
40

@<SCITEGIC>MOL_PROPERTY
Delta U+W
SciTegic.value.DoubleValue
0.000

@<SCITEGIC>MOL_PROPERTY
U+W
SciTegic.value.DoubleValue
-8.382

@<SCITEGIC>MOL_PROPERTY
Grad RMS
SciTegic.value.DoubleValue
0.000000

@<SCITEGIC>MOL_PROPERTY
U
SciTegic.value.DoubleValue
46.604

@<SCITEGIC>MOL_PROPERTY
W
SciTegic.value.DoubleValue
-54.986

@<SCITEGIC>MOL_PROPERTY
W(PB)
SciTegic.value.DoubleValue
-57.162

@<SCITEGIC>MOL_PROPERTY
W(SA)
SciTegic.value.DoubleValue
2.176

@<SCITEGIC>MOL_PROPERTY
Valence
SciTegic.value.DoubleValue
1.727

@<SCITEGIC>MOL_PROPERTY
Coulomb
SciTegic.value.DoubleValue
44.434

@<SCITEGIC>MOL_PROPERTY
VdW
SciTegic.value.DoubleValue
0.443

@<SCITEGIC>MOL_PROPERTY
VdW6
SciTegic.value.DoubleValue
-4.623

@<SCITEGIC>MOL_PROPERTY
VdW12
SciTegic.value.DoubleValue
5.066

@<SCITEGIC>MOL_PROPERTY
Bond
SciTegic.value.DoubleValue
0.112

@<SCITEGIC>MOL_PROPERTY
Angle
SciTegic.value.DoubleValue
0.386

@<SCITEGIC>MOL_PROPERTY
Pdih
SciTegic.value.DoubleValue
1.228

@<SCITEGIC>MOL_PROPERTY
Idih
SciTegic.value.DoubleValue
0.000

@<SCITEGIC>MOL_PROPERTY
Tether
SciTegic.value.DoubleValue
0.000

@<TRIPOS>MOLECULE
guest-2_confgen4.mol2 : confsearch ligand conformer 770
          23          22           1
SMALL
USER_CHARGES
 
@<TRIPOS>ATOM
       1    N1      18.418228   16.122868   21.007374 N.4        1 MOL1        -0.5940
       2    H1      18.467650   15.313310   21.634282 H          1 MOL1         0.3649
       3    H2      19.160809   16.009745   20.309799 H          1 MOL1         0.3649
       4    H3      17.525815   16.057271   20.506051 H          1 MOL1         0.3649
       5    C1      18.545451   17.430750   21.761722 C.3        1 MOL1         0.0207
       6    H4      17.710225   17.497869   22.464079 H          1 MOL1         0.0950
       7    H5      18.453157   18.244749   21.038254 H          1 MOL1         0.0950
       8    C2      19.876710   17.559272   22.526158 C.3        1 MOL1        -0.1415
       9    H6      19.977036   16.709412   23.214359 H          1 MOL1         0.0976
      10    H7      20.715988   17.493138   21.821018 H          1 MOL1         0.0976
      11    C3      19.979834   18.873768   23.335532 C.3        1 MOL1        -0.1375
      12    H8      20.897925   18.835925   23.936063 H          1 MOL1         0.0976
      13    H9      19.144352   18.932514   24.046791 H          1 MOL1         0.0976
      14    C4      19.995745   20.139321   22.440715 C.3        1 MOL1        -0.1375
      15    H10     20.843682   20.089691   21.743750 H          1 MOL1         0.0976
      16    H11     19.088749   20.163560   21.822429 H          1 MOL1         0.0976
      17    C5      20.065252   21.460793   23.244087 C.3        1 MOL1        -0.1350
      18    H12     19.213331   21.520783   23.935774 H          1 MOL1         0.0976
      19    H13     19.953946   22.302748   22.546523 H          1 MOL1         0.0976
      20    C6      21.385633   21.637461   24.028162 C.3        1 MOL1        -0.2365
      21    H14     21.484680   20.891372   24.826158 H          1 MOL1         0.0987
      22    H15     21.423080   22.628707   24.498243 H          1 MOL1         0.0987
      23    H16     22.254718   21.548644   23.363472 H          1 MOL1         0.0987
@<TRIPOS>BOND
    1     1     2    1
    2     1     3    1
    3     1     4    1
    4     1     5    1
    5     5     6    1
    6     5     7    1
    7     5     8    1
    8     8     9    1
    9     8    10    1
   10     8    11    1
   11    11    12    1
   12    11    13    1
   13    11    14    1
   14    14    15    1
   15    14    16    1
   16    14    17    1
   17    17    18    1
   18    17    19    1
   19    17    20    1
   20    20    21    1
   21    20    22    1
   22    20    23    1
@<TRIPOS>SUBSTRUCTURE
       1 MOL1            1 RESIDUE      1      MOL     
@<SCITEGIC>MOL_PROPERTY
VConf Rank
SciTegic.value.IntegerValue
770

@<SCITEGIC>MOL_PROPERTY
Conf_Id
SciTegic.value.IntegerValue
65

@<SCITEGIC>MOL_PROPERTY
Delta U+W
SciTegic.value.DoubleValue
1.004

@<SCITEGIC>MOL_PROPERTY
U+W
SciTegic.value.DoubleValue
-7.378

@<SCITEGIC>MOL_PROPERTY
Grad RMS
SciTegic.value.DoubleValue
0.000000

@<SCITEGIC>MOL_PROPERTY
U
SciTegic.value.DoubleValue
48.047

@<SCITEGIC>MOL_PROPERTY
W
SciTegic.value.DoubleValue
-55.425

@<SCITEGIC>MOL_PROPERTY
W(PB)
SciTegic.value.DoubleValue
-57.542

@<SCITEGIC>MOL_PROPERTY
W(SA)
SciTegic.value.DoubleValue
2.116

@<SCITEGIC>MOL_PROPERTY
Valence
SciTegic.value.DoubleValue
2.583

@<SCITEGIC>MOL_PROPERTY
Coulomb
SciTegic.value.DoubleValue
44.791

@<SCITEGIC>MOL_PROPERTY
VdW
SciTegic.value.DoubleValue
0.673

@<SCITEGIC>MOL_PROPERTY
VdW6
SciTegic.value.DoubleValue
-5.788

@<SCITEGIC>MOL_PROPERTY
VdW12
SciTegic.value.DoubleValue
6.462

@<SCITEGIC>MOL_PROPERTY
Bond
SciTegic.value.DoubleValue
0.177

@<SCITEGIC>MOL_PROPERTY
Angle
SciTegic.value.DoubleValue
0.787

@<SCITEGIC>MOL_PROPERTY
Pdih
SciTegic.value.DoubleValue
1.619

@<SCITEGIC>MOL_PROPERTY
Idih
SciTegic.value.DoubleValue
0.000

@<SCITEGIC>MOL_PROPERTY
Tether
SciTegic.value.DoubleValue
0.000

@<TRIPOS>MOLECULE
guest-2_confgen4.mol2 : confsearch ligand conformer 771
          23          22           1
SMALL
USER_CHARGES
 
@<TRIPOS>ATOM
       1    N1      17.590385   19.365729   19.796513 N.4        1 MOL1        -0.5940
       2    H1      18.060447   19.877779   19.043065 H          1 MOL1         0.3649
       3    H2      16.615340   19.683764   19.809530 H          1 MOL1         0.3649
       4    H3      17.577620   18.376864   19.526669 H          1 MOL1         0.3649
       5    C1      18.269814   19.578177   21.134054 C.3        1 MOL1         0.0207
       6    H4      17.699832   19.031499   21.889556 H          1 MOL1         0.0950
       7    H5      18.222020   20.644407   21.371289 H          1 MOL1         0.0950
       8    C2      19.737407   19.110037   21.146339 C.3        1 MOL1        -0.1415
       9    H6      19.785927   18.038854   20.909278 H          1 MOL1         0.0976
      10    H7      20.285857   19.632760   20.351412 H          1 MOL1         0.0976
      11    C3      20.441128   19.375865   22.498273 C.3        1 MOL1        -0.1375
      12    H8      20.399599   20.449590   22.727968 H          1 MOL1         0.0976
      13    H9      21.503347   19.121880   22.388060 H          1 MOL1         0.0976
      14    C4      19.831805   18.565586   23.670770 C.3        1 MOL1        -0.1375
      15    H10     18.763658   18.801731   23.764584 H          1 MOL1         0.0976
      16    H11     19.892527   17.491056   23.449591 H          1 MOL1         0.0976
      17    C5      20.508553   18.850582   25.033601 C.3        1 MOL1        -0.1350
      18    H12     19.945456   18.330844   25.821425 H          1 MOL1         0.0976
      19    H13     20.441544   19.922828   25.265112 H          1 MOL1         0.0976
      20    C6      21.984570   18.395833   25.096585 C.3        1 MOL1        -0.2365
      21    H14     22.616020   18.977168   24.413521 H          1 MOL1         0.0987
      22    H15     22.082201   17.333838   24.836499 H          1 MOL1         0.0987
      23    H16     22.384835   18.530982   26.109732 H          1 MOL1         0.0987
@<TRIPOS>BOND
    1     1     2    1
    2     1     3    1
    3     1     4    1
    4     1     5    1
    5     5     6    1
    6     5     7    1
    7     5     8    1
    8     8     9    1
    9     8    10    1
   10     8    11    1
   11    11    12    1
   12    11    13    1
   13    11    14    1
   14    14    15    1
   15    14    16    1
   16    14    17    1
   17    17    18    1
   18    17    19    1
   19    17    20    1
   20    20    21    1
   21    20    22    1
   22    20    23    1
@<TRIPOS>SUBSTRUCTURE
       1 MOL1            1 RESIDUE      1      MOL     
@<SCITEGIC>MOL_PROPERTY
VConf Rank
SciTegic.value.IntegerValue
771

@<SCITEGIC>MOL_PROPERTY
Conf_Id
SciTegic.value.IntegerValue
92

@<SCITEGIC>MOL_PROPERTY
Delta U+W
SciTegic.value.DoubleValue
0.973

@<SCITEGIC>MOL_PROPERTY
U+W
SciTegic.value.DoubleValue
-7.409

@<SCITEGIC>MOL_PROPERTY
Grad RMS
SciTegic.value.DoubleValue
0.000000

@<SCITEGIC>MOL_PROPERTY
U
SciTegic.value.DoubleValue
48.047

@<SCITEGIC>MOL_PROPERTY
W
SciTegic.value.DoubleValue
-55.456

@<SCITEGIC>MOL_PROPERTY
W(PB)
SciTegic.value.DoubleValue
-57.595

@<SCITEGIC>MOL_PROPERTY
W(SA)
SciTegic.value.DoubleValue
2.138

@<SCITEGIC>MOL_PROPERTY
Valence
SciTegic.value.DoubleValue
2.583

@<SCITEGIC>MOL_PROPERTY
Coulomb
SciTegic.value.DoubleValue
44.791

@<SCITEGIC>MOL_PROPERTY
VdW
SciTegic.value.DoubleValue
0.674

@<SCITEGIC>MOL_PROPERTY
VdW6
SciTegic.value.DoubleValue
-5.789

@<SCITEGIC>MOL_PROPERTY
VdW12
SciTegic.value.DoubleValue
6.462

@<SCITEGIC>MOL_PROPERTY
Bond
SciTegic.value.DoubleValue
0.177

@<SCITEGIC>MOL_PROPERTY
Angle
SciTegic.value.DoubleValue
0.787

@<SCITEGIC>MOL_PROPERTY
Pdih
SciTegic.value.DoubleValue
1.619

@<SCITEGIC>MOL_PROPERTY
Idih
SciTegic.value.DoubleValue
0.000

@<SCITEGIC>MOL_PROPERTY
Tether
SciTegic.value.DoubleValue
0.000

@<TRIPOS>MOLECULE
guest-2_confgen4.mol2 : confsearch ligand conformer 772
          23          22           1
SMALL
USER_CHARGES
 
@<TRIPOS>ATOM
       1    N1      16.723590   19.897619   21.020888 N.4        1 MOL1        -0.5940
       2    H1      16.525242   20.875976   20.785285 H          1 MOL1         0.3649
       3    H2      15.863546   19.507187   21.419312 H          1 MOL1         0.3649
       4    H3      16.896030   19.407470   20.137227 H          1 MOL1         0.3649
       5    C1      17.895013   19.774314   21.973957 C.3        1 MOL1         0.0207
       6    H4      17.655856   20.340980   22.877900 H          1 MOL1         0.0950
       7    H5      18.764123   20.235826   21.498195 H          1 MOL1         0.0950
       8    C2      18.218048   18.315214   22.347496 C.3        1 MOL1        -0.1415
       9    H6      17.323753   17.850189   22.783312 H          1 MOL1         0.0976
      10    H7      18.457435   17.745916   21.439427 H          1 MOL1         0.0976
      11    C3      19.385434   18.200438   23.355994 C.3        1 MOL1        -0.1375
      12    H8      19.497737   17.146570   23.646167 H          1 MOL1         0.0976
      13    H9      19.132240   18.749701   24.273519 H          1 MOL1         0.0976
      14    C4      20.730074   18.718577   22.791249 C.3        1 MOL1        -0.1375
      15    H10     20.963680   18.190465   21.856399 H          1 MOL1         0.0976
      16    H11     20.646925   19.784929   22.542180 H          1 MOL1         0.0976
      17    C5      21.887746   18.522205   23.795244 C.3        1 MOL1        -0.1350
      18    H12     21.985778   17.456506   24.045513 H          1 MOL1         0.0976
      19    H13     21.658900   19.048072   24.732832 H          1 MOL1         0.0976
      20    C6      23.227961   19.040521   23.231564 C.3        1 MOL1        -0.2365
      21    H14     23.500665   18.509218   22.310381 H          1 MOL1         0.0987
      22    H15     24.037367   18.892093   23.958115 H          1 MOL1         0.0987
      23    H16     23.172255   20.113044   23.003943 H          1 MOL1         0.0987
@<TRIPOS>BOND
    1     1     2    1
    2     1     3    1
    3     1     4    1
    4     1     5    1
    5     5     6    1
    6     5     7    1
    7     5     8    1
    8     8     9    1
    9     8    10    1
   10     8    11    1
   11    11    12    1
   12    11    13    1
   13    11    14    1
   14    14    15    1
   15    14    16    1
   16    14    17    1
   17    17    18    1
   18    17    19    1
   19    17    20    1
   20    20    21    1
   21    20    22    1
   22    20    23    1
@<TRIPOS>SUBSTRUCTURE
       1 MOL1            1 RESIDUE      1      MOL     
@<SCITEGIC>MOL_PROPERTY
VConf Rank
SciTegic.value.IntegerValue
772

@<SCITEGIC>MOL_PROPERTY
Conf_Id
SciTegic.value.IntegerValue
42

@<SCITEGIC>MOL_PROPERTY
Delta U+W
SciTegic.value.DoubleValue
0.365

@<SCITEGIC>MOL_PROPERTY
U+W
SciTegic.value.DoubleValue
-8.017

@<SCITEGIC>MOL_PROPERTY
Grad RMS
SciTegic.value.DoubleValue
0.000000

@<SCITEGIC>MOL_PROPERTY
U
SciTegic.value.DoubleValue
47.375

@<SCITEGIC>MOL_PROPERTY
W
SciTegic.value.DoubleValue
-55.392

@<SCITEGIC>MOL_PROPERTY
W(PB)
SciTegic.value.DoubleValue
-57.543

@<SCITEGIC>MOL_PROPERTY
W(SA)
SciTegic.value.DoubleValue
2.152

@<SCITEGIC>MOL_PROPERTY
Valence
SciTegic.value.DoubleValue
2.032

@<SCITEGIC>MOL_PROPERTY
Coulomb
SciTegic.value.DoubleValue
44.843

@<SCITEGIC>MOL_PROPERTY
VdW
SciTegic.value.DoubleValue
0.499

@<SCITEGIC>MOL_PROPERTY
VdW6
SciTegic.value.DoubleValue
-5.218

@<SCITEGIC>MOL_PROPERTY
VdW12
SciTegic.value.DoubleValue
5.717

@<SCITEGIC>MOL_PROPERTY
Bond
SciTegic.value.DoubleValue
0.135

@<SCITEGIC>MOL_PROPERTY
Angle
SciTegic.value.DoubleValue
0.514

@<SCITEGIC>MOL_PROPERTY
Pdih
SciTegic.value.DoubleValue
1.383

@<SCITEGIC>MOL_PROPERTY
Idih
SciTegic.value.DoubleValue
0.000

@<SCITEGIC>MOL_PROPERTY
Tether
SciTegic.value.DoubleValue
0.000

@<TRIPOS>MOLECULE
guest-2_confgen4.mol2 : confsearch ligand conformer 773
          23          22           1
SMALL
USER_CHARGES
 
@<TRIPOS>ATOM
       1    N1      21.771347   21.113587   23.845233 N.4        1 MOL1        -0.5940
       2    H1      22.344754   20.395935   24.299999 H          1 MOL1         0.3649
       3    H2      22.014114   22.010048   24.280401 H          1 MOL1         0.3649
       4    H3      22.070742   21.165417   22.866929 H          1 MOL1         0.3649
       5    C1      20.290111   20.812232   23.966511 C.3        1 MOL1         0.0207
       6    H4      19.737307   21.623248   23.484761 H          1 MOL1         0.0950
       7    H5      20.039040   20.814563   25.030714 H          1 MOL1         0.0950
       8    C2      19.875543   19.462677   23.348396 C.3        1 MOL1        -0.1415
       9    H6      20.451919   18.652591   23.814446 H          1 MOL1         0.0976
      10    H7      18.821320   19.290007   23.597225 H          1 MOL1         0.0976
      11    C3      20.053586   19.428624   21.810883 C.3        1 MOL1        -0.1375
      12    H8      21.085447   19.704045   21.556447 H          1 MOL1         0.0976
      13    H9      19.411503   20.193971   21.353302 H          1 MOL1         0.0976
      14    C4      19.754602   18.051727   21.162946 C.3        1 MOL1        -0.1375
      15    H10     19.957688   18.142468   20.086838 H          1 MOL1         0.0976
      16    H11     20.462759   17.298055   21.534048 H          1 MOL1         0.0976
      17    C5      18.297581   17.550657   21.337473 C.3        1 MOL1        -0.1350
      18    H12     17.998269   17.019298   20.423120 H          1 MOL1         0.0976
      19    H13     17.608890   18.401922   21.430495 H          1 MOL1         0.0976
      20    C6      18.120439   16.581997   22.530192 C.3        1 MOL1        -0.2365
      21    H14     18.749890   15.691027   22.407623 H          1 MOL1         0.0987
      22    H15     17.077956   16.245406   22.599823 H          1 MOL1         0.0987
      23    H16     18.382450   17.050321   23.485254 H          1 MOL1         0.0987
@<TRIPOS>BOND
    1     1     2    1
    2     1     3    1
    3     1     4    1
    4     1     5    1
    5     5     6    1
    6     5     7    1
    7     5     8    1
    8     8     9    1
    9     8    10    1
   10     8    11    1
   11    11    12    1
   12    11    13    1
   13    11    14    1
   14    14    15    1
   15    14    16    1
   16    14    17    1
   17    17    18    1
   18    17    19    1
   19    17    20    1
   20    20    21    1
   21    20    22    1
   22    20    23    1
@<TRIPOS>SUBSTRUCTURE
       1 MOL1            1 RESIDUE      1      MOL     
@<SCITEGIC>MOL_PROPERTY
VConf Rank
SciTegic.value.IntegerValue
773

@<SCITEGIC>MOL_PROPERTY
Conf_Id
SciTegic.value.IntegerValue
3

@<SCITEGIC>MOL_PROPERTY
Delta U+W
SciTegic.value.DoubleValue
3.283

@<SCITEGIC>MOL_PROPERTY
U+W
SciTegic.value.DoubleValue
-5.099

@<SCITEGIC>MOL_PROPERTY
Grad RMS
SciTegic.value.DoubleValue
0.000000

@<SCITEGIC>MOL_PROPERTY
U
SciTegic.value.DoubleValue
50.701

@<SCITEGIC>MOL_PROPERTY
W
SciTegic.value.DoubleValue
-55.800

@<SCITEGIC>MOL_PROPERTY
W(PB)
SciTegic.value.DoubleValue
-57.867

@<SCITEGIC>MOL_PROPERTY
W(SA)
SciTegic.value.DoubleValue
2.067

@<SCITEGIC>MOL_PROPERTY
Valence
SciTegic.value.DoubleValue
4.880

@<SCITEGIC>MOL_PROPERTY
Coulomb
SciTegic.value.DoubleValue
45.095

@<SCITEGIC>MOL_PROPERTY
VdW
SciTegic.value.DoubleValue
0.726

@<SCITEGIC>MOL_PROPERTY
VdW6
SciTegic.value.DoubleValue
-6.620

@<SCITEGIC>MOL_PROPERTY
VdW12
SciTegic.value.DoubleValue
7.346

@<SCITEGIC>MOL_PROPERTY
Bond
SciTegic.value.DoubleValue
0.222

@<SCITEGIC>MOL_PROPERTY
Angle
SciTegic.value.DoubleValue
1.260

@<SCITEGIC>MOL_PROPERTY
Pdih
SciTegic.value.DoubleValue
3.398

@<SCITEGIC>MOL_PROPERTY
Idih
SciTegic.value.DoubleValue
0.000

@<SCITEGIC>MOL_PROPERTY
Tether
SciTegic.value.DoubleValue
0.000

@<TRIPOS>MOLECULE
guest-2_confgen4.mol2 : confsearch ligand conformer 774
          23          22           1
SMALL
USER_CHARGES
 
@<TRIPOS>ATOM
       1    N1      21.864220   17.139168   23.273997 N.4        1 MOL1        -0.5940
       2    H1      22.701455   17.566694   23.682426 H          1 MOL1         0.3649
       3    H2      22.013753   16.124547   23.278450 H          1 MOL1         0.3649
       4    H3      21.084466   17.331183   23.910167 H          1 MOL1         0.3649
       5    C1      21.588978   17.662043   21.877883 C.3        1 MOL1         0.0207
       6    H4      20.706759   17.146307   21.490330 H          1 MOL1         0.0950
       7    H5      22.441460   17.393437   21.248080 H          1 MOL1         0.0950
       8    C2      21.370965   19.187911   21.818955 C.3        1 MOL1        -0.1415
       9    H6      22.283445   19.693126   22.162384 H          1 MOL1         0.0976
      10    H7      21.234257   19.484004   20.770385 H          1 MOL1         0.0976
      11    C3      20.164649   19.689742   22.652390 C.3        1 MOL1        -0.1375
      12    H8      20.128296   20.783903   22.572619 H          1 MOL1         0.0976
      13    H9      20.325450   19.466085   23.715343 H          1 MOL1         0.0976
      14    C4      18.811966   19.091361   22.189121 C.3        1 MOL1        -0.1375
      15    H10     18.639664   19.339702   21.132803 H          1 MOL1         0.0976
      16    H11     18.855700   17.995798   22.245560 H          1 MOL1         0.0976
      17    C5      17.605816   19.567827   23.034478 C.3        1 MOL1        -0.1350
      18    H12     17.767670   19.312273   24.090992 H          1 MOL1         0.0976
      19    H13     16.712646   19.011313   22.717615 H          1 MOL1         0.0976
      20    C6      17.319701   21.081182   22.903172 C.3        1 MOL1        -0.2365
      21    H14     17.186999   21.368365   21.852019 H          1 MOL1         0.0987
      22    H15     18.133080   21.684323   23.324934 H          1 MOL1         0.0987
      23    H16     16.400563   21.346075   23.441644 H          1 MOL1         0.0987
@<TRIPOS>BOND
    1     1     2    1
    2     1     3    1
    3     1     4    1
    4     1     5    1
    5     5     6    1
    6     5     7    1
    7     5     8    1
    8     8     9    1
    9     8    10    1
   10     8    11    1
   11    11    12    1
   12    11    13    1
   13    11    14    1
   14    14    15    1
   15    14    16    1
   16    14    17    1
   17    17    18    1
   18    17    19    1
   19    17    20    1
   20    20    21    1
   21    20    22    1
   22    20    23    1
@<TRIPOS>SUBSTRUCTURE
       1 MOL1            1 RESIDUE      1      MOL     
@<SCITEGIC>MOL_PROPERTY
VConf Rank
SciTegic.value.IntegerValue
774

@<SCITEGIC>MOL_PROPERTY
Conf_Id
SciTegic.value.IntegerValue
83

@<SCITEGIC>MOL_PROPERTY
Delta U+W
SciTegic.value.DoubleValue
1.229

@<SCITEGIC>MOL_PROPERTY
U+W
SciTegic.value.DoubleValue
-7.154

@<SCITEGIC>MOL_PROPERTY
Grad RMS
SciTegic.value.DoubleValue
0.000000

@<SCITEGIC>MOL_PROPERTY
U
SciTegic.value.DoubleValue
48.727

@<SCITEGIC>MOL_PROPERTY
W
SciTegic.value.DoubleValue
-55.880

@<SCITEGIC>MOL_PROPERTY
W(PB)
SciTegic.value.DoubleValue
-57.960

@<SCITEGIC>MOL_PROPERTY
W(SA)
SciTegic.value.DoubleValue
2.080

@<SCITEGIC>MOL_PROPERTY
Valence
SciTegic.value.DoubleValue
2.671

@<SCITEGIC>MOL_PROPERTY
Coulomb
SciTegic.value.DoubleValue
45.371

@<SCITEGIC>MOL_PROPERTY
VdW
SciTegic.value.DoubleValue
0.684

@<SCITEGIC>MOL_PROPERTY
VdW6
SciTegic.value.DoubleValue
-6.511

@<SCITEGIC>MOL_PROPERTY
VdW12
SciTegic.value.DoubleValue
7.195

@<SCITEGIC>MOL_PROPERTY
Bond
SciTegic.value.DoubleValue
0.203

@<SCITEGIC>MOL_PROPERTY
Angle
SciTegic.value.DoubleValue
0.915

@<SCITEGIC>MOL_PROPERTY
Pdih
SciTegic.value.DoubleValue
1.554

@<SCITEGIC>MOL_PROPERTY
Idih
SciTegic.value.DoubleValue
0.000

@<SCITEGIC>MOL_PROPERTY
Tether
SciTegic.value.DoubleValue
0.000

@<TRIPOS>MOLECULE
guest-2_confgen4.mol2 : confsearch ligand conformer 775
          23          22           1
SMALL
USER_CHARGES
 
@<TRIPOS>ATOM
       1    N1      22.127724   18.184398   21.193079 N.4        1 MOL1        -0.5940
       2    H1      22.178496   18.511262   20.222958 H          1 MOL1         0.3649
       3    H2      21.312949   17.567264   21.262998 H          1 MOL1         0.3649
       4    H3      22.958577   17.606181   21.357953 H          1 MOL1         0.3649
       5    C1      22.041039   19.338495   22.172282 C.3        1 MOL1         0.0207
       6    H4      22.953129   19.932407   22.067941 H          1 MOL1         0.0950
       7    H5      22.021219   18.924518   23.183578 H          1 MOL1         0.0950
       8    C2      20.812841   20.245839   21.954257 C.3        1 MOL1        -0.1415
       9    H6      20.860131   21.079967   22.666895 H          1 MOL1         0.0976
      10    H7      20.873023   20.695022   20.954049 H          1 MOL1         0.0976
      11    C3      19.452040   19.520292   22.107396 C.3        1 MOL1        -0.1375
      12    H8      19.361263   18.731505   21.348896 H          1 MOL1         0.0976
      13    H9      18.655154   20.243906   21.892381 H          1 MOL1         0.0976
      14    C4      19.237463   18.917729   23.519240 C.3        1 MOL1        -0.1375
      15    H10     20.047500   18.211882   23.745015 H          1 MOL1         0.0976
      16    H11     19.301037   19.712936   24.274736 H          1 MOL1         0.0976
      17    C5      17.891465   18.168275   23.671067 C.3        1 MOL1        -0.1350
      18    H12     17.871679   17.676661   24.653812 H          1 MOL1         0.0976
      19    H13     17.826845   17.364346   22.924576 H          1 MOL1         0.0976
      20    C6      16.655679   19.089175   23.552249 C.3        1 MOL1        -0.2365
      21    H14     16.712654   19.920829   24.266471 H          1 MOL1         0.0987
      22    H15     15.736740   18.527494   23.764383 H          1 MOL1         0.0987
      23    H16     16.559291   19.507933   22.542994 H          1 MOL1         0.0987
@<TRIPOS>BOND
    1     1     2    1
    2     1     3    1
    3     1     4    1
    4     1     5    1
    5     5     6    1
    6     5     7    1
    7     5     8    1
    8     8     9    1
    9     8    10    1
   10     8    11    1
   11    11    12    1
   12    11    13    1
   13    11    14    1
   14    14    15    1
   15    14    16    1
   16    14    17    1
   17    17    18    1
   18    17    19    1
   19    17    20    1
   20    20    21    1
   21    20    22    1
   22    20    23    1
@<TRIPOS>SUBSTRUCTURE
       1 MOL1            1 RESIDUE      1      MOL     
@<SCITEGIC>MOL_PROPERTY
VConf Rank
SciTegic.value.IntegerValue
775

@<SCITEGIC>MOL_PROPERTY
Conf_Id
SciTegic.value.IntegerValue
50

@<SCITEGIC>MOL_PROPERTY
Delta U+W
SciTegic.value.DoubleValue
1.252

@<SCITEGIC>MOL_PROPERTY
U+W
SciTegic.value.DoubleValue
-7.130

@<SCITEGIC>MOL_PROPERTY
Grad RMS
SciTegic.value.DoubleValue
0.000000

@<SCITEGIC>MOL_PROPERTY
U
SciTegic.value.DoubleValue
48.727

@<SCITEGIC>MOL_PROPERTY
W
SciTegic.value.DoubleValue
-55.857

@<SCITEGIC>MOL_PROPERTY
W(PB)
SciTegic.value.DoubleValue
-57.937

@<SCITEGIC>MOL_PROPERTY
W(SA)
SciTegic.value.DoubleValue
2.080

@<SCITEGIC>MOL_PROPERTY
Valence
SciTegic.value.DoubleValue
2.671

@<SCITEGIC>MOL_PROPERTY
Coulomb
SciTegic.value.DoubleValue
45.371

@<SCITEGIC>MOL_PROPERTY
VdW
SciTegic.value.DoubleValue
0.684

@<SCITEGIC>MOL_PROPERTY
VdW6
SciTegic.value.DoubleValue
-6.511

@<SCITEGIC>MOL_PROPERTY
VdW12
SciTegic.value.DoubleValue
7.196

@<SCITEGIC>MOL_PROPERTY
Bond
SciTegic.value.DoubleValue
0.203

@<SCITEGIC>MOL_PROPERTY
Angle
SciTegic.value.DoubleValue
0.915

@<SCITEGIC>MOL_PROPERTY
Pdih
SciTegic.value.DoubleValue
1.554

@<SCITEGIC>MOL_PROPERTY
Idih
SciTegic.value.DoubleValue
0.000

@<SCITEGIC>MOL_PROPERTY
Tether
SciTegic.value.DoubleValue
0.000

@<TRIPOS>MOLECULE
guest-2_confgen4.mol2 : confsearch ligand conformer 776
          23          22           1
SMALL
USER_CHARGES
 
@<TRIPOS>ATOM
       1    N1      18.286255   16.279868   22.217368 N.4        1 MOL1        -0.5940
       2    H1      17.527059   16.961676   22.126303 H          1 MOL1         0.3649
       3    H2      17.887868   15.445493   22.661255 H          1 MOL1         0.3649
       4    H3      18.565961   16.009051   21.269186 H          1 MOL1         0.3649
       5    C1      19.451472   16.837645   23.011341 C.3        1 MOL1         0.0207
       6    H4      20.199991   16.045739   23.101768 H          1 MOL1         0.0950
       7    H5      19.092269   17.082657   24.014513 H          1 MOL1         0.0950
       8    C2      20.099564   18.082349   22.374591 C.3        1 MOL1        -0.1415
       9    H6      20.990676   18.340758   22.957521 H          1 MOL1         0.0976
      10    H7      20.453924   17.832691   21.365697 H          1 MOL1         0.0976
      11    C3      19.132091   19.291609   22.308543 C.3        1 MOL1        -0.1375
      12    H8      18.698593   19.489226   23.298685 H          1 MOL1         0.0976
      13    H9      18.290072   19.029180   21.654232 H          1 MOL1         0.0976
      14    C4      19.793850   20.579243   21.751607 C.3        1 MOL1        -0.1375
      15    H10     20.599783   20.321755   21.050631 H          1 MOL1         0.0976
      16    H11     19.044852   21.118606   21.155300 H          1 MOL1         0.0976
      17    C5      20.319965   21.557450   22.833050 C.3        1 MOL1        -0.1350
      18    H12     19.485742   21.888724   23.467167 H          1 MOL1         0.0976
      19    H13     20.697836   22.459903   22.332445 H          1 MOL1         0.0976
      20    C6      21.441562   20.979285   23.723431 C.3        1 MOL1        -0.2365
      21    H14     22.266553   20.585445   23.115883 H          1 MOL1         0.0987
      22    H15     21.064968   20.174621   24.366834 H          1 MOL1         0.0987
      23    H16     21.850331   21.758673   24.379443 H          1 MOL1         0.0987
@<TRIPOS>BOND
    1     1     2    1
    2     1     3    1
    3     1     4    1
    4     1     5    1
    5     5     6    1
    6     5     7    1
    7     5     8    1
    8     8     9    1
    9     8    10    1
   10     8    11    1
   11    11    12    1
   12    11    13    1
   13    11    14    1
   14    14    15    1
   15    14    16    1
   16    14    17    1
   17    17    18    1
   18    17    19    1
   19    17    20    1
   20    20    21    1
   21    20    22    1
   22    20    23    1
@<TRIPOS>SUBSTRUCTURE
       1 MOL1            1 RESIDUE      1      MOL     
@<SCITEGIC>MOL_PROPERTY
VConf Rank
SciTegic.value.IntegerValue
776

@<SCITEGIC>MOL_PROPERTY
Conf_Id
SciTegic.value.IntegerValue
55

@<SCITEGIC>MOL_PROPERTY
Delta U+W
SciTegic.value.DoubleValue
3.232

@<SCITEGIC>MOL_PROPERTY
U+W
SciTegic.value.DoubleValue
-5.150

@<SCITEGIC>MOL_PROPERTY
Grad RMS
SciTegic.value.DoubleValue
0.000000

@<SCITEGIC>MOL_PROPERTY
U
SciTegic.value.DoubleValue
50.625

@<SCITEGIC>MOL_PROPERTY
W
SciTegic.value.DoubleValue
-55.776

@<SCITEGIC>MOL_PROPERTY
W(PB)
SciTegic.value.DoubleValue
-57.839

@<SCITEGIC>MOL_PROPERTY
W(SA)
SciTegic.value.DoubleValue
2.064

@<SCITEGIC>MOL_PROPERTY
Valence
SciTegic.value.DoubleValue
4.837

@<SCITEGIC>MOL_PROPERTY
Coulomb
SciTegic.value.DoubleValue
45.097

@<SCITEGIC>MOL_PROPERTY
VdW
SciTegic.value.DoubleValue
0.692

@<SCITEGIC>MOL_PROPERTY
VdW6
SciTegic.value.DoubleValue
-6.655

@<SCITEGIC>MOL_PROPERTY
VdW12
SciTegic.value.DoubleValue
7.347

@<SCITEGIC>MOL_PROPERTY
Bond
SciTegic.value.DoubleValue
0.223

@<SCITEGIC>MOL_PROPERTY
Angle
SciTegic.value.DoubleValue
1.167

@<SCITEGIC>MOL_PROPERTY
Pdih
SciTegic.value.DoubleValue
3.447

@<SCITEGIC>MOL_PROPERTY
Idih
SciTegic.value.DoubleValue
0.000

@<SCITEGIC>MOL_PROPERTY
Tether
SciTegic.value.DoubleValue
0.000

@<TRIPOS>MOLECULE
guest-2_confgen4.mol2 : confsearch ligand conformer 777
          23          22           1
SMALL
USER_CHARGES
 
@<TRIPOS>ATOM
       1    N1      20.073385   16.416322   24.331192 N.4        1 MOL1        -0.5940
       2    H1      19.302264   15.745708   24.411679 H          1 MOL1         0.3649
       3    H2      20.551400   16.430476   25.238551 H          1 MOL1         0.3649
       4    H3      20.736824   16.032306   23.650651 H          1 MOL1         0.3649
       5    C1      19.585056   17.793436   23.930270 C.3        1 MOL1         0.0207
       6    H4      20.450215   18.458223   23.900279 H          1 MOL1         0.0950
       7    H5      18.908165   18.150380   24.711173 H          1 MOL1         0.0950
       8    C2      18.855620   17.802249   22.572467 C.3        1 MOL1        -0.1415
       9    H6      19.508402   17.402190   21.785262 H          1 MOL1         0.0976
      10    H7      17.999033   17.118545   22.641940 H          1 MOL1         0.0976
      11    C3      18.334720   19.205420   22.170918 C.3        1 MOL1        -0.1375
      12    H8      17.970402   19.740070   23.059189 H          1 MOL1         0.0976
      13    H9      17.456439   19.071392   21.524267 H          1 MOL1         0.0976
      14    C4      19.352626   20.085195   21.399338 C.3        1 MOL1        -0.1375
      15    H10     19.630138   19.586014   20.460670 H          1 MOL1         0.0976
      16    H11     18.847981   21.017520   21.110294 H          1 MOL1         0.0976
      17    C5      20.633211   20.434459   22.192192 C.3        1 MOL1        -0.1350
      18    H12     21.231374   19.528456   22.354288 H          1 MOL1         0.0976
      19    H13     20.364298   20.829587   23.181757 H          1 MOL1         0.0976
      20    C6      21.500073   21.470694   21.445569 C.3        1 MOL1        -0.2365
      21    H14     20.952409   22.410352   21.296164 H          1 MOL1         0.0987
      22    H15     21.806172   21.093054   20.461221 H          1 MOL1         0.0987
      23    H16     22.409430   21.698739   22.016617 H          1 MOL1         0.0987
@<TRIPOS>BOND
    1     1     2    1
    2     1     3    1
    3     1     4    1
    4     1     5    1
    5     5     6    1
    6     5     7    1
    7     5     8    1
    8     8     9    1
    9     8    10    1
   10     8    11    1
   11    11    12    1
   12    11    13    1
   13    11    14    1
   14    14    15    1
   15    14    16    1
   16    14    17    1
   17    17    18    1
   18    17    19    1
   19    17    20    1
   20    20    21    1
   21    20    22    1
   22    20    23    1
@<TRIPOS>SUBSTRUCTURE
       1 MOL1            1 RESIDUE      1      MOL     
@<SCITEGIC>MOL_PROPERTY
VConf Rank
SciTegic.value.IntegerValue
777

@<SCITEGIC>MOL_PROPERTY
Conf_Id
SciTegic.value.IntegerValue
93

@<SCITEGIC>MOL_PROPERTY
Delta U+W
SciTegic.value.DoubleValue
2.589

@<SCITEGIC>MOL_PROPERTY
U+W
SciTegic.value.DoubleValue
-5.793

@<SCITEGIC>MOL_PROPERTY
Grad RMS
SciTegic.value.DoubleValue
0.000000

@<SCITEGIC>MOL_PROPERTY
U
SciTegic.value.DoubleValue
50.122

@<SCITEGIC>MOL_PROPERTY
W
SciTegic.value.DoubleValue
-55.915

@<SCITEGIC>MOL_PROPERTY
W(PB)
SciTegic.value.DoubleValue
-58.031

@<SCITEGIC>MOL_PROPERTY
W(SA)
SciTegic.value.DoubleValue
2.115

@<SCITEGIC>MOL_PROPERTY
Valence
SciTegic.value.DoubleValue
4.132

@<SCITEGIC>MOL_PROPERTY
Coulomb
SciTegic.value.DoubleValue
45.536

@<SCITEGIC>MOL_PROPERTY
VdW
SciTegic.value.DoubleValue
0.454

@<SCITEGIC>MOL_PROPERTY
VdW6
SciTegic.value.DoubleValue
-6.262

@<SCITEGIC>MOL_PROPERTY
VdW12
SciTegic.value.DoubleValue
6.715

@<SCITEGIC>MOL_PROPERTY
Bond
SciTegic.value.DoubleValue
0.182

@<SCITEGIC>MOL_PROPERTY
Angle
SciTegic.value.DoubleValue
1.157

@<SCITEGIC>MOL_PROPERTY
Pdih
SciTegic.value.DoubleValue
2.794

@<SCITEGIC>MOL_PROPERTY
Idih
SciTegic.value.DoubleValue
0.000

@<SCITEGIC>MOL_PROPERTY
Tether
SciTegic.value.DoubleValue
0.000

@<TRIPOS>MOLECULE
guest-2_confgen4.mol2 : confsearch ligand conformer 778
          23          22           1
SMALL
USER_CHARGES
 
@<TRIPOS>ATOM
       1    N1      21.678406   16.990508   24.028882 N.4        1 MOL1        -0.5940
       2    H1      22.324053   17.072523   23.236942 H          1 MOL1         0.3649
       3    H2      21.446061   15.995905   24.122589 H          1 MOL1         0.3649
       4    H3      22.199554   17.254847   24.871116 H          1 MOL1         0.3649
       5    C1      20.440071   17.842836   23.839911 C.3        1 MOL1         0.0207
       6    H4      19.788107   17.684196   24.703145 H          1 MOL1         0.0950
       7    H5      19.920103   17.482697   22.950375 H          1 MOL1         0.0950
       8    C2      20.757731   19.344897   23.703188 C.3        1 MOL1        -0.1415
       9    H6      21.284651   19.665338   24.611863 H          1 MOL1         0.0976
      10    H7      21.449612   19.514760   22.867539 H          1 MOL1         0.0976
      11    C3      19.491166   20.221451   23.533098 C.3        1 MOL1        -0.1375
      12    H8      19.711871   21.221343   23.931850 H          1 MOL1         0.0976
      13    H9      18.674733   19.827759   24.154425 H          1 MOL1         0.0976
      14    C4      19.009535   20.398414   22.069475 C.3        1 MOL1        -0.1375
      15    H10     18.156335   21.090861   22.072129 H          1 MOL1         0.0976
      16    H11     19.797579   20.889129   21.481702 H          1 MOL1         0.0976
      17    C5      18.587566   19.087204   21.367214 C.3        1 MOL1        -0.1350
      18    H12     17.883632   18.532258   22.002972 H          1 MOL1         0.0976
      19    H13     19.465042   18.445527   21.214885 H          1 MOL1         0.0976
      20    C6      17.932820   19.360912   19.996421 C.3        1 MOL1        -0.2365
      21    H14     17.649665   18.419822   19.507339 H          1 MOL1         0.0987
      22    H15     18.622914   19.893239   19.328852 H          1 MOL1         0.0987
      23    H16     17.025490   19.969175   20.105887 H          1 MOL1         0.0987
@<TRIPOS>BOND
    1     1     2    1
    2     1     3    1
    3     1     4    1
    4     1     5    1
    5     5     6    1
    6     5     7    1
    7     5     8    1
    8     8     9    1
    9     8    10    1
   10     8    11    1
   11    11    12    1
   12    11    13    1
   13    11    14    1
   14    14    15    1
   15    14    16    1
   16    14    17    1
   17    17    18    1
   18    17    19    1
   19    17    20    1
   20    20    21    1
   21    20    22    1
   22    20    23    1
@<TRIPOS>SUBSTRUCTURE
       1 MOL1            1 RESIDUE      1      MOL     
@<SCITEGIC>MOL_PROPERTY
VConf Rank
SciTegic.value.IntegerValue
778

@<SCITEGIC>MOL_PROPERTY
Conf_Id
SciTegic.value.IntegerValue
70

@<SCITEGIC>MOL_PROPERTY
Delta U+W
SciTegic.value.DoubleValue
2.599

@<SCITEGIC>MOL_PROPERTY
U+W
SciTegic.value.DoubleValue
-5.783

@<SCITEGIC>MOL_PROPERTY
Grad RMS
SciTegic.value.DoubleValue
0.000000

@<SCITEGIC>MOL_PROPERTY
U
SciTegic.value.DoubleValue
50.122

@<SCITEGIC>MOL_PROPERTY
W
SciTegic.value.DoubleValue
-55.906

@<SCITEGIC>MOL_PROPERTY
W(PB)
SciTegic.value.DoubleValue
-58.010

@<SCITEGIC>MOL_PROPERTY
W(SA)
SciTegic.value.DoubleValue
2.105

@<SCITEGIC>MOL_PROPERTY
Valence
SciTegic.value.DoubleValue
4.132

@<SCITEGIC>MOL_PROPERTY
Coulomb
SciTegic.value.DoubleValue
45.536

@<SCITEGIC>MOL_PROPERTY
VdW
SciTegic.value.DoubleValue
0.454

@<SCITEGIC>MOL_PROPERTY
VdW6
SciTegic.value.DoubleValue
-6.262

@<SCITEGIC>MOL_PROPERTY
VdW12
SciTegic.value.DoubleValue
6.715

@<SCITEGIC>MOL_PROPERTY
Bond
SciTegic.value.DoubleValue
0.182

@<SCITEGIC>MOL_PROPERTY
Angle
SciTegic.value.DoubleValue
1.157

@<SCITEGIC>MOL_PROPERTY
Pdih
SciTegic.value.DoubleValue
2.794

@<SCITEGIC>MOL_PROPERTY
Idih
SciTegic.value.DoubleValue
0.000

@<SCITEGIC>MOL_PROPERTY
Tether
SciTegic.value.DoubleValue
0.000

@<TRIPOS>MOLECULE
guest-2_confgen4.mol2 : confsearch ligand conformer 779
          23          22           1
SMALL
USER_CHARGES
 
@<TRIPOS>ATOM
       1    N1      18.659671   19.438832   25.145347 N.4        1 MOL1        -0.5940
       2    H1      17.654819   19.404540   25.344355 H          1 MOL1         0.3649
       3    H2      19.112825   19.858119   25.964256 H          1 MOL1         0.3649
       4    H3      18.988921   18.470865   25.081326 H          1 MOL1         0.3649
       5    C1      18.956043   20.215479   23.877585 C.3        1 MOL1         0.0207
       6    H4      20.040352   20.243020   23.741716 H          1 MOL1         0.0950
       7    H5      18.606183   21.240756   24.025577 H          1 MOL1         0.0950
       8    C2      18.289072   19.623033   22.619833 C.3        1 MOL1        -0.1415
       9    H6      17.199212   19.632272   22.753382 H          1 MOL1         0.0976
      10    H7      18.491031   20.283862   21.767230 H          1 MOL1         0.0976
      11    C3      18.749016   18.180170   22.282781 C.3        1 MOL1        -0.1375
      12    H8      18.255111   17.858832   21.355418 H          1 MOL1         0.0976
      13    H9      18.390483   17.494548   23.062274 H          1 MOL1         0.0976
      14    C4      20.281707   18.002970   22.127027 C.3        1 MOL1        -0.1375
      15    H10     20.785831   18.229787   23.075871 H          1 MOL1         0.0976
      16    H11     20.488450   16.943741   21.920557 H          1 MOL1         0.0976
      17    C5      20.891342   18.863139   20.995061 C.3        1 MOL1        -0.1350
      18    H12     20.758346   19.930434   21.216721 H          1 MOL1         0.0976
      19    H13     20.362249   18.664862   20.052480 H          1 MOL1         0.0976
      20    C6      22.396017   18.574353   20.808145 C.3        1 MOL1        -0.2365
      21    H14     22.812682   19.194306   20.003743 H          1 MOL1         0.0987
      22    H15     22.566803   17.522313   20.545019 H          1 MOL1         0.0987
      23    H16     22.956647   18.792522   21.726460 H          1 MOL1         0.0987
@<TRIPOS>BOND
    1     1     2    1
    2     1     3    1
    3     1     4    1
    4     1     5    1
    5     5     6    1
    6     5     7    1
    7     5     8    1
    8     8     9    1
    9     8    10    1
   10     8    11    1
   11    11    12    1
   12    11    13    1
   13    11    14    1
   14    14    15    1
   15    14    16    1
   16    14    17    1
   17    17    18    1
   18    17    19    1
   19    17    20    1
   20    20    21    1
   21    20    22    1
   22    20    23    1
@<TRIPOS>SUBSTRUCTURE
       1 MOL1            1 RESIDUE      1      MOL     
@<SCITEGIC>MOL_PROPERTY
VConf Rank
SciTegic.value.IntegerValue
779

@<SCITEGIC>MOL_PROPERTY
Conf_Id
SciTegic.value.IntegerValue
72

@<SCITEGIC>MOL_PROPERTY
Delta U+W
SciTegic.value.DoubleValue
1.051

@<SCITEGIC>MOL_PROPERTY
U+W
SciTegic.value.DoubleValue
-7.331

@<SCITEGIC>MOL_PROPERTY
Grad RMS
SciTegic.value.DoubleValue
0.000000

@<SCITEGIC>MOL_PROPERTY
U
SciTegic.value.DoubleValue
48.590

@<SCITEGIC>MOL_PROPERTY
W
SciTegic.value.DoubleValue
-55.922

@<SCITEGIC>MOL_PROPERTY
W(PB)
SciTegic.value.DoubleValue
-58.012

@<SCITEGIC>MOL_PROPERTY
W(SA)
SciTegic.value.DoubleValue
2.090

@<SCITEGIC>MOL_PROPERTY
Valence
SciTegic.value.DoubleValue
2.601

@<SCITEGIC>MOL_PROPERTY
Coulomb
SciTegic.value.DoubleValue
45.520

@<SCITEGIC>MOL_PROPERTY
VdW
SciTegic.value.DoubleValue
0.469

@<SCITEGIC>MOL_PROPERTY
VdW6
SciTegic.value.DoubleValue
-6.867

@<SCITEGIC>MOL_PROPERTY
VdW12
SciTegic.value.DoubleValue
7.336

@<SCITEGIC>MOL_PROPERTY
Bond
SciTegic.value.DoubleValue
0.205

@<SCITEGIC>MOL_PROPERTY
Angle
SciTegic.value.DoubleValue
0.962

@<SCITEGIC>MOL_PROPERTY
Pdih
SciTegic.value.DoubleValue
1.434

@<SCITEGIC>MOL_PROPERTY
Idih
SciTegic.value.DoubleValue
0.000

@<SCITEGIC>MOL_PROPERTY
Tether
SciTegic.value.DoubleValue
0.000

@<TRIPOS>MOLECULE
guest-2_confgen4.mol2 : confsearch ligand conformer 780
          23          22           1
SMALL
USER_CHARGES
 
@<TRIPOS>ATOM
       1    N1      21.182539   17.178740   24.752496 N.4        1 MOL1        -0.5940
       2    H1      21.749147   17.448412   25.563785 H          1 MOL1         0.3649
       3    H2      21.574342   16.301899   24.394133 H          1 MOL1         0.3649
       4    H3      20.242291   16.968278   25.102213 H          1 MOL1         0.3649
       5    C1      21.163026   18.262895   23.694259 C.3        1 MOL1         0.0207
       6    H4      22.194948   18.455831   23.388870 H          1 MOL1         0.0950
       7    H5      20.763771   19.171826   24.151832 H          1 MOL1         0.0950
       8    C2      20.319469   17.888522   22.461345 C.3        1 MOL1        -0.1415
       9    H6      20.705725   16.954662   22.031881 H          1 MOL1         0.0976
      10    H7      19.286307   17.681979   22.768504 H          1 MOL1         0.0976
      11    C3      20.337903   18.986326   21.368848 C.3        1 MOL1        -0.1375
      12    H8      19.739172   18.650073   20.511875 H          1 MOL1         0.0976
      13    H9      21.363714   19.092023   20.989570 H          1 MOL1         0.0976
      14    C4      19.837418   20.379641   21.836768 C.3        1 MOL1        -0.1375
      15    H10     20.535716   20.787485   22.579968 H          1 MOL1         0.0976
      16    H11     19.877949   21.071121   20.983902 H          1 MOL1         0.0976
      17    C5      18.405542   20.401020   22.429637 C.3        1 MOL1        -0.1350
      18    H12     18.168342   21.429734   22.734881 H          1 MOL1         0.0976
      19    H13     18.365226   19.798688   23.347074 H          1 MOL1         0.0976
      20    C6      17.324341   19.914767   21.438134 C.3        1 MOL1        -0.2365
      21    H14     17.353825   20.494988   20.506784 H          1 MOL1         0.0987
      22    H15     16.323391   20.029480   21.873776 H          1 MOL1         0.0987
      23    H16     17.456062   18.854952   21.187137 H          1 MOL1         0.0987
@<TRIPOS>BOND
    1     1     2    1
    2     1     3    1
    3     1     4    1
    4     1     5    1
    5     5     6    1
    6     5     7    1
    7     5     8    1
    8     8     9    1
    9     8    10    1
   10     8    11    1
   11    11    12    1
   12    11    13    1
   13    11    14    1
   14    14    15    1
   15    14    16    1
   16    14    17    1
   17    17    18    1
   18    17    19    1
   19    17    20    1
   20    20    21    1
   21    20    22    1
   22    20    23    1
@<TRIPOS>SUBSTRUCTURE
       1 MOL1            1 RESIDUE      1      MOL     
@<SCITEGIC>MOL_PROPERTY
VConf Rank
SciTegic.value.IntegerValue
780

@<SCITEGIC>MOL_PROPERTY
Conf_Id
SciTegic.value.IntegerValue
26

@<SCITEGIC>MOL_PROPERTY
Delta U+W
SciTegic.value.DoubleValue
1.076

@<SCITEGIC>MOL_PROPERTY
U+W
SciTegic.value.DoubleValue
-7.306

@<SCITEGIC>MOL_PROPERTY
Grad RMS
SciTegic.value.DoubleValue
0.000000

@<SCITEGIC>MOL_PROPERTY
U
SciTegic.value.DoubleValue
48.641

@<SCITEGIC>MOL_PROPERTY
W
SciTegic.value.DoubleValue
-55.947

@<SCITEGIC>MOL_PROPERTY
W(PB)
SciTegic.value.DoubleValue
-58.031

@<SCITEGIC>MOL_PROPERTY
W(SA)
SciTegic.value.DoubleValue
2.084

@<SCITEGIC>MOL_PROPERTY
Valence
SciTegic.value.DoubleValue
2.922

@<SCITEGIC>MOL_PROPERTY
Coulomb
SciTegic.value.DoubleValue
45.269

@<SCITEGIC>MOL_PROPERTY
VdW
SciTegic.value.DoubleValue
0.449

@<SCITEGIC>MOL_PROPERTY
VdW6
SciTegic.value.DoubleValue
-7.045

@<SCITEGIC>MOL_PROPERTY
VdW12
SciTegic.value.DoubleValue
7.494

@<SCITEGIC>MOL_PROPERTY
Bond
SciTegic.value.DoubleValue
0.220

@<SCITEGIC>MOL_PROPERTY
Angle
SciTegic.value.DoubleValue
1.205

@<SCITEGIC>MOL_PROPERTY
Pdih
SciTegic.value.DoubleValue
1.497

@<SCITEGIC>MOL_PROPERTY
Idih
SciTegic.value.DoubleValue
0.000

@<SCITEGIC>MOL_PROPERTY
Tether
SciTegic.value.DoubleValue
0.000

@<TRIPOS>MOLECULE
guest-2_confgen4.mol2 : confsearch ligand conformer 781
          23          22           1
SMALL
USER_CHARGES
 
@<TRIPOS>ATOM
       1    N1      17.366722   20.789997   21.846545 N.4        1 MOL1        -0.5940
       2    H1      16.645287   20.874026   22.569907 H          1 MOL1         0.3649
       3    H2      16.897883   20.913369   20.942704 H          1 MOL1         0.3649
       4    H3      18.004176   21.584253   21.962620 H          1 MOL1         0.3649
       5    C1      18.094946   19.463745   21.926410 C.3        1 MOL1         0.0207
       6    H4      18.823668   19.431074   21.112267 H          1 MOL1         0.0950
       7    H5      17.364017   18.666558   21.766454 H          1 MOL1         0.0950
       8    C2      18.810610   19.247641   23.272866 C.3        1 MOL1        -0.1415
       9    H6      19.535380   20.054495   23.440582 H          1 MOL1         0.0976
      10    H7      18.075965   19.319531   24.085797 H          1 MOL1         0.0976
      11    C3      19.518920   17.872911   23.359324 C.3        1 MOL1        -0.1375
      12    H8      18.760410   17.079446   23.310444 H          1 MOL1         0.0976
      13    H9      19.988445   17.772443   24.346949 H          1 MOL1         0.0976
      14    C4      20.577181   17.614534   22.252942 C.3        1 MOL1        -0.1375
      15    H10     21.024114   16.624796   22.419791 H          1 MOL1         0.0976
      16    H11     20.076929   17.551032   21.277228 H          1 MOL1         0.0976
      17    C5      21.711738   18.666967   22.166994 C.3        1 MOL1        -0.1350
      18    H12     21.299837   19.648324   21.896076 H          1 MOL1         0.0976
      19    H13     22.387023   18.387534   21.346263 H          1 MOL1         0.0976
      20    C6      22.535302   18.788067   23.469145 C.3        1 MOL1        -0.2365
      21    H14     21.925435   19.171073   24.296748 H          1 MOL1         0.0987
      22    H15     23.375728   19.480243   23.329797 H          1 MOL1         0.0987
      23    H16     22.947262   17.815204   23.767085 H          1 MOL1         0.0987
@<TRIPOS>BOND
    1     1     2    1
    2     1     3    1
    3     1     4    1
    4     1     5    1
    5     5     6    1
    6     5     7    1
    7     5     8    1
    8     8     9    1
    9     8    10    1
   10     8    11    1
   11    11    12    1
   12    11    13    1
   13    11    14    1
   14    14    15    1
   15    14    16    1
   16    14    17    1
   17    17    18    1
   18    17    19    1
   19    17    20    1
   20    20    21    1
   21    20    22    1
   22    20    23    1
@<TRIPOS>SUBSTRUCTURE
       1 MOL1            1 RESIDUE      1      MOL     
@<SCITEGIC>MOL_PROPERTY
VConf Rank
SciTegic.value.IntegerValue
781

@<SCITEGIC>MOL_PROPERTY
Conf_Id
SciTegic.value.IntegerValue
90

@<SCITEGIC>MOL_PROPERTY
Delta U+W
SciTegic.value.DoubleValue
1.131

@<SCITEGIC>MOL_PROPERTY
U+W
SciTegic.value.DoubleValue
-7.251

@<SCITEGIC>MOL_PROPERTY
Grad RMS
SciTegic.value.DoubleValue
0.000000

@<SCITEGIC>MOL_PROPERTY
U
SciTegic.value.DoubleValue
48.641

@<SCITEGIC>MOL_PROPERTY
W
SciTegic.value.DoubleValue
-55.892

@<SCITEGIC>MOL_PROPERTY
W(PB)
SciTegic.value.DoubleValue
-57.962

@<SCITEGIC>MOL_PROPERTY
W(SA)
SciTegic.value.DoubleValue
2.070

@<SCITEGIC>MOL_PROPERTY
Valence
SciTegic.value.DoubleValue
2.922

@<SCITEGIC>MOL_PROPERTY
Coulomb
SciTegic.value.DoubleValue
45.269

@<SCITEGIC>MOL_PROPERTY
VdW
SciTegic.value.DoubleValue
0.450

@<SCITEGIC>MOL_PROPERTY
VdW6
SciTegic.value.DoubleValue
-7.045

@<SCITEGIC>MOL_PROPERTY
VdW12
SciTegic.value.DoubleValue
7.495

@<SCITEGIC>MOL_PROPERTY
Bond
SciTegic.value.DoubleValue
0.220

@<SCITEGIC>MOL_PROPERTY
Angle
SciTegic.value.DoubleValue
1.205

@<SCITEGIC>MOL_PROPERTY
Pdih
SciTegic.value.DoubleValue
1.497

@<SCITEGIC>MOL_PROPERTY
Idih
SciTegic.value.DoubleValue
0.000

@<SCITEGIC>MOL_PROPERTY
Tether
SciTegic.value.DoubleValue
0.000

@<TRIPOS>MOLECULE
guest-2_confgen4.mol2 : confsearch ligand conformer 782
          23          22           1
SMALL
USER_CHARGES
 
@<TRIPOS>ATOM
       1    N1      17.314726   19.252685   21.755254 N.4        1 MOL1        -0.5940
       2    H1      16.530767   19.877594   21.971468 H          1 MOL1         0.3649
       3    H2      17.615549   18.829927   22.638659 H          1 MOL1         0.3649
       4    H3      16.943252   18.498739   21.168615 H          1 MOL1         0.3649
       5    C1      18.450575   19.989238   21.072808 C.3        1 MOL1         0.0207
       6    H4      18.778094   20.795033   21.734732 H          1 MOL1         0.0950
       7    H5      18.053455   20.441095   20.159770 H          1 MOL1         0.0950
       8    C2      19.649551   19.086479   20.717318 C.3        1 MOL1        -0.1415
       9    H6      19.319093   18.309484   20.015274 H          1 MOL1         0.0976
      10    H7      20.395215   19.687087   20.179640 H          1 MOL1         0.0976
      11    C3      20.319815   18.417755   21.943750 C.3        1 MOL1        -0.1375
      12    H8      21.147244   17.787439   21.589951 H          1 MOL1         0.0976
      13    H9      19.604759   17.740526   22.427650 H          1 MOL1         0.0976
      14    C4      20.864937   19.442152   22.970848 C.3        1 MOL1        -0.1375
      15    H10     21.511374   20.162098   22.450209 H          1 MOL1         0.0976
      16    H11     20.038732   20.023207   23.401768 H          1 MOL1         0.0976
      17    C5      21.677424   18.790201   24.115495 C.3        1 MOL1        -0.1350
      18    H12     22.115055   19.585627   24.734859 H          1 MOL1         0.0976
      19    H13     22.523032   18.226371   23.697378 H          1 MOL1         0.0976
      20    C6      20.830773   17.864588   25.018578 C.3        1 MOL1        -0.2365
      21    H14     19.963329   18.398039   25.428345 H          1 MOL1         0.0987
      22    H15     21.429632   17.500001   25.863196 H          1 MOL1         0.0987
      23    H16     20.467866   16.987039   24.469381 H          1 MOL1         0.0987
@<TRIPOS>BOND
    1     1     2    1
    2     1     3    1
    3     1     4    1
    4     1     5    1
    5     5     6    1
    6     5     7    1
    7     5     8    1
    8     8     9    1
    9     8    10    1
   10     8    11    1
   11    11    12    1
   12    11    13    1
   13    11    14    1
   14    14    15    1
   15    14    16    1
   16    14    17    1
   17    17    18    1
   18    17    19    1
   19    17    20    1
   20    20    21    1
   21    20    22    1
   22    20    23    1
@<TRIPOS>SUBSTRUCTURE
       1 MOL1            1 RESIDUE      1      MOL     
@<SCITEGIC>MOL_PROPERTY
VConf Rank
SciTegic.value.IntegerValue
782

@<SCITEGIC>MOL_PROPERTY
Conf_Id
SciTegic.value.IntegerValue
85

@<SCITEGIC>MOL_PROPERTY
Delta U+W
SciTegic.value.DoubleValue
1.193

@<SCITEGIC>MOL_PROPERTY
U+W
SciTegic.value.DoubleValue
-7.189

@<SCITEGIC>MOL_PROPERTY
Grad RMS
SciTegic.value.DoubleValue
0.000000

@<SCITEGIC>MOL_PROPERTY
U
SciTegic.value.DoubleValue
48.775

@<SCITEGIC>MOL_PROPERTY
W
SciTegic.value.DoubleValue
-55.965

@<SCITEGIC>MOL_PROPERTY
W(PB)
SciTegic.value.DoubleValue
-58.038

@<SCITEGIC>MOL_PROPERTY
W(SA)
SciTegic.value.DoubleValue
2.073

@<SCITEGIC>MOL_PROPERTY
Valence
SciTegic.value.DoubleValue
2.602

@<SCITEGIC>MOL_PROPERTY
Coulomb
SciTegic.value.DoubleValue
45.581

@<SCITEGIC>MOL_PROPERTY
VdW
SciTegic.value.DoubleValue
0.592

@<SCITEGIC>MOL_PROPERTY
VdW6
SciTegic.value.DoubleValue
-6.616

@<SCITEGIC>MOL_PROPERTY
VdW12
SciTegic.value.DoubleValue
7.208

@<SCITEGIC>MOL_PROPERTY
Bond
SciTegic.value.DoubleValue
0.196

@<SCITEGIC>MOL_PROPERTY
Angle
SciTegic.value.DoubleValue
0.832

@<SCITEGIC>MOL_PROPERTY
Pdih
SciTegic.value.DoubleValue
1.574

@<SCITEGIC>MOL_PROPERTY
Idih
SciTegic.value.DoubleValue
0.000

@<SCITEGIC>MOL_PROPERTY
Tether
SciTegic.value.DoubleValue
0.000

@<TRIPOS>MOLECULE
guest-2_confgen4.mol2 : confsearch ligand conformer 783
          23          22           1
SMALL
USER_CHARGES
 
@<TRIPOS>ATOM
       1    N1      18.889849   18.114000   20.843569 N.4        1 MOL1        -0.5940
       2    H1      18.614833   18.827866   21.525795 H          1 MOL1         0.3649
       3    H2      18.079782   17.502440   20.694942 H          1 MOL1         0.3649
       4    H3      19.069447   18.592893   19.955075 H          1 MOL1         0.3649
       5    C1      20.102824   17.336584   21.316832 C.3        1 MOL1         0.0207
       6    H4      20.333580   16.601508   20.540994 H          1 MOL1         0.0950
       7    H5      19.837982   16.795198   22.228911 H          1 MOL1         0.0950
       8    C2      21.348580   18.210239   21.568897 C.3        1 MOL1        -0.1415
       9    H6      22.230559   17.558755   21.509570 H          1 MOL1         0.0976
      10    H7      21.461115   18.939469   20.755612 H          1 MOL1         0.0976
      11    C3      21.384425   18.932013   22.942894 C.3        1 MOL1        -0.1375
      12    H8      22.342518   19.466142   23.008238 H          1 MOL1         0.0976
      13    H9      21.405325   18.191914   23.754858 H          1 MOL1         0.0976
      14    C4      20.246421   19.956860   23.183509 C.3        1 MOL1        -0.1375
      15    H10     20.653128   20.801521   23.756985 H          1 MOL1         0.0976
      16    H11     19.911390   20.382654   22.228428 H          1 MOL1         0.0976
      17    C5      19.056492   19.370140   23.981587 C.3        1 MOL1        -0.1350
      18    H12     19.393877   19.108079   24.994321 H          1 MOL1         0.0976
      19    H13     18.700419   18.436051   23.531068 H          1 MOL1         0.0976
      20    C6      17.886517   20.371732   24.080573 C.3        1 MOL1        -0.2365
      21    H14     18.202560   21.298332   24.577461 H          1 MOL1         0.0987
      22    H15     17.058968   19.944589   24.661857 H          1 MOL1         0.0987
      23    H16     17.500215   20.632856   23.086917 H          1 MOL1         0.0987
@<TRIPOS>BOND
    1     1     2    1
    2     1     3    1
    3     1     4    1
    4     1     5    1
    5     5     6    1
    6     5     7    1
    7     5     8    1
    8     8     9    1
    9     8    10    1
   10     8    11    1
   11    11    12    1
   12    11    13    1
   13    11    14    1
   14    14    15    1
   15    14    16    1
   16    14    17    1
   17    17    18    1
   18    17    19    1
   19    17    20    1
   20    20    21    1
   21    20    22    1
   22    20    23    1
@<TRIPOS>SUBSTRUCTURE
       1 MOL1            1 RESIDUE      1      MOL     
@<SCITEGIC>MOL_PROPERTY
VConf Rank
SciTegic.value.IntegerValue
783

@<SCITEGIC>MOL_PROPERTY
Conf_Id
SciTegic.value.IntegerValue
82

@<SCITEGIC>MOL_PROPERTY
Delta U+W
SciTegic.value.DoubleValue
5.994

@<SCITEGIC>MOL_PROPERTY
U+W
SciTegic.value.DoubleValue
-2.388

@<SCITEGIC>MOL_PROPERTY
Grad RMS
SciTegic.value.DoubleValue
0.000000

@<SCITEGIC>MOL_PROPERTY
U
SciTegic.value.DoubleValue
52.836

@<SCITEGIC>MOL_PROPERTY
W
SciTegic.value.DoubleValue
-55.224

@<SCITEGIC>MOL_PROPERTY
W(PB)
SciTegic.value.DoubleValue
-57.261

@<SCITEGIC>MOL_PROPERTY
W(SA)
SciTegic.value.DoubleValue
2.037

@<SCITEGIC>MOL_PROPERTY
Valence
SciTegic.value.DoubleValue
5.785

@<SCITEGIC>MOL_PROPERTY
Coulomb
SciTegic.value.DoubleValue
46.744

@<SCITEGIC>MOL_PROPERTY
VdW
SciTegic.value.DoubleValue
0.307

@<SCITEGIC>MOL_PROPERTY
VdW6
SciTegic.value.DoubleValue
-7.672

@<SCITEGIC>MOL_PROPERTY
VdW12
SciTegic.value.DoubleValue
7.979

@<SCITEGIC>MOL_PROPERTY
Bond
SciTegic.value.DoubleValue
0.217

@<SCITEGIC>MOL_PROPERTY
Angle
SciTegic.value.DoubleValue
1.470

@<SCITEGIC>MOL_PROPERTY
Pdih
SciTegic.value.DoubleValue
4.098

@<SCITEGIC>MOL_PROPERTY
Idih
SciTegic.value.DoubleValue
0.000

@<SCITEGIC>MOL_PROPERTY
Tether
SciTegic.value.DoubleValue
0.000

@<TRIPOS>MOLECULE
guest-2_confgen4.mol2 : confsearch ligand conformer 784
          23          22           1
SMALL
USER_CHARGES
 
@<TRIPOS>ATOM
       1    N1      17.910405   18.787082   21.897630 N.4        1 MOL1        -0.5940
       2    H1      17.341921   18.045011   22.318548 H          1 MOL1         0.3649
       3    H2      17.261009   19.445736   21.454053 H          1 MOL1         0.3649
       4    H3      18.378474   19.284680   22.661817 H          1 MOL1         0.3649
       5    C1      18.913236   18.230793   20.905395 C.3        1 MOL1         0.0207
       6    H4      19.445413   19.064785   20.440236 H          1 MOL1         0.0950
       7    H5      18.341592   17.717175   20.127623 H          1 MOL1         0.0950
       8    C2      19.924123   17.242800   21.522398 C.3        1 MOL1        -0.1415
       9    H6      19.403576   16.555975   22.202968 H          1 MOL1         0.0976
      10    H7      20.317274   16.616990   20.710220 H          1 MOL1         0.0976
      11    C3      21.133080   17.896591   22.244267 C.3        1 MOL1        -0.1375
      12    H8      21.728295   18.478486   21.526920 H          1 MOL1         0.0976
      13    H9      21.792189   17.084693   22.581762 H          1 MOL1         0.0976
      14    C4      20.777700   18.769166   23.475356 C.3        1 MOL1        -0.1375
      15    H10     19.853434   18.405669   23.943682 H          1 MOL1         0.0976
      16    H11     21.563259   18.640014   24.232955 H          1 MOL1         0.0976
      17    C5      20.680274   20.278603   23.144885 C.3        1 MOL1        -0.1350
      18    H12     20.014624   20.454387   22.291484 H          1 MOL1         0.0976
      19    H13     21.669414   20.646540   22.837709 H          1 MOL1         0.0976
      20    C6      20.189003   21.097641   24.357179 C.3        1 MOL1        -0.2365
      21    H14     19.187032   20.779926   24.673213 H          1 MOL1         0.0987
      22    H15     20.140718   22.165954   24.109073 H          1 MOL1         0.0987
      23    H16     20.868397   20.981893   25.211810 H          1 MOL1         0.0987
@<TRIPOS>BOND
    1     1     2    1
    2     1     3    1
    3     1     4    1
    4     1     5    1
    5     5     6    1
    6     5     7    1
    7     5     8    1
    8     8     9    1
    9     8    10    1
   10     8    11    1
   11    11    12    1
   12    11    13    1
   13    11    14    1
   14    14    15    1
   15    14    16    1
   16    14    17    1
   17    17    18    1
   18    17    19    1
   19    17    20    1
   20    20    21    1
   21    20    22    1
   22    20    23    1
@<TRIPOS>SUBSTRUCTURE
       1 MOL1            1 RESIDUE      1      MOL     
@<SCITEGIC>MOL_PROPERTY
VConf Rank
SciTegic.value.IntegerValue
784

@<SCITEGIC>MOL_PROPERTY
Conf_Id
SciTegic.value.IntegerValue
5

@<SCITEGIC>MOL_PROPERTY
Delta U+W
SciTegic.value.DoubleValue
6.087

@<SCITEGIC>MOL_PROPERTY
U+W
SciTegic.value.DoubleValue
-2.295

@<SCITEGIC>MOL_PROPERTY
Grad RMS
SciTegic.value.DoubleValue
0.000000

@<SCITEGIC>MOL_PROPERTY
U
SciTegic.value.DoubleValue
52.836

@<SCITEGIC>MOL_PROPERTY
W
SciTegic.value.DoubleValue
-55.131

@<SCITEGIC>MOL_PROPERTY
W(PB)
SciTegic.value.DoubleValue
-57.202

@<SCITEGIC>MOL_PROPERTY
W(SA)
SciTegic.value.DoubleValue
2.071

@<SCITEGIC>MOL_PROPERTY
Valence
SciTegic.value.DoubleValue
5.785

@<SCITEGIC>MOL_PROPERTY
Coulomb
SciTegic.value.DoubleValue
46.744

@<SCITEGIC>MOL_PROPERTY
VdW
SciTegic.value.DoubleValue
0.307

@<SCITEGIC>MOL_PROPERTY
VdW6
SciTegic.value.DoubleValue
-7.672

@<SCITEGIC>MOL_PROPERTY
VdW12
SciTegic.value.DoubleValue
7.980

@<SCITEGIC>MOL_PROPERTY
Bond
SciTegic.value.DoubleValue
0.217

@<SCITEGIC>MOL_PROPERTY
Angle
SciTegic.value.DoubleValue
1.470

@<SCITEGIC>MOL_PROPERTY
Pdih
SciTegic.value.DoubleValue
4.098

@<SCITEGIC>MOL_PROPERTY
Idih
SciTegic.value.DoubleValue
0.000

@<SCITEGIC>MOL_PROPERTY
Tether
SciTegic.value.DoubleValue
0.000

@<TRIPOS>MOLECULE
guest-2_confgen4.mol2 : confsearch ligand conformer 785
          23          22           1
SMALL
USER_CHARGES
 
@<TRIPOS>ATOM
       1    N1      20.842004   17.333202   19.315268 N.4        1 MOL1        -0.5940
       2    H1      19.943390   16.880487   19.119244 H          1 MOL1         0.3649
       3    H2      21.573682   16.711869   18.953760 H          1 MOL1         0.3649
       4    H3      20.876166   18.190917   18.754874 H          1 MOL1         0.3649
       5    C1      21.022778   17.615398   20.792963 C.3        1 MOL1         0.0207
       6    H4      22.008272   18.068131   20.931998 H          1 MOL1         0.0950
       7    H5      21.005710   16.659578   21.323634 H          1 MOL1         0.0950
       8    C2      19.939579   18.545945   21.366844 C.3        1 MOL1        -0.1415
       9    H6      19.949613   19.498399   20.820189 H          1 MOL1         0.0976
      10    H7      18.950578   18.094854   21.210340 H          1 MOL1         0.0976
      11    C3      20.159452   18.808157   22.873192 C.3        1 MOL1        -0.1375
      12    H8      21.152019   19.254515   23.026093 H          1 MOL1         0.0976
      13    H9      20.153997   17.852473   23.415816 H          1 MOL1         0.0976
      14    C4      19.076742   19.742042   23.460217 C.3        1 MOL1        -0.1375
      15    H10     19.082167   20.697722   22.917851 H          1 MOL1         0.0976
      16    H11     18.084222   19.295867   23.307430 H          1 MOL1         0.0976
      17    C5      19.296885   20.003998   24.966762 C.3        1 MOL1        -0.1350
      18    H12     20.287707   20.452688   25.124624 H          1 MOL1         0.0976
      19    H13     19.289837   19.050964   25.514164 H          1 MOL1         0.0976
      20    C6      18.213906   20.936863   25.549366 C.3        1 MOL1        -0.2365
      21    H14     18.386978   21.111007   26.619303 H          1 MOL1         0.0987
      22    H15     17.213500   20.498942   25.436926 H          1 MOL1         0.0987
      23    H16     18.219147   21.911610   25.044323 H          1 MOL1         0.0987
@<TRIPOS>BOND
    1     1     2    1
    2     1     3    1
    3     1     4    1
    4     1     5    1
    5     5     6    1
    6     5     7    1
    7     5     8    1
    8     8     9    1
    9     8    10    1
   10     8    11    1
   11    11    12    1
   12    11    13    1
   13    11    14    1
   14    14    15    1
   15    14    16    1
   16    14    17    1
   17    17    18    1
   18    17    19    1
   19    17    20    1
   20    20    21    1
   21    20    22    1
   22    20    23    1
@<TRIPOS>SUBSTRUCTURE
       1 MOL1            1 RESIDUE      1      MOL     
@<SCITEGIC>MOL_PROPERTY
VConf Rank
SciTegic.value.IntegerValue
785

@<SCITEGIC>MOL_PROPERTY
Conf_Id
SciTegic.value.IntegerValue
40

@<SCITEGIC>MOL_PROPERTY
Delta U+W
SciTegic.value.DoubleValue
0.000

@<SCITEGIC>MOL_PROPERTY
U+W
SciTegic.value.DoubleValue
-8.382

@<SCITEGIC>MOL_PROPERTY
Grad RMS
SciTegic.value.DoubleValue
0.000000

@<SCITEGIC>MOL_PROPERTY
U
SciTegic.value.DoubleValue
46.604

@<SCITEGIC>MOL_PROPERTY
W
SciTegic.value.DoubleValue
-54.986

@<SCITEGIC>MOL_PROPERTY
W(PB)
SciTegic.value.DoubleValue
-57.162

@<SCITEGIC>MOL_PROPERTY
W(SA)
SciTegic.value.DoubleValue
2.176

@<SCITEGIC>MOL_PROPERTY
Valence
SciTegic.value.DoubleValue
1.727

@<SCITEGIC>MOL_PROPERTY
Coulomb
SciTegic.value.DoubleValue
44.434

@<SCITEGIC>MOL_PROPERTY
VdW
SciTegic.value.DoubleValue
0.443

@<SCITEGIC>MOL_PROPERTY
VdW6
SciTegic.value.DoubleValue
-4.623

@<SCITEGIC>MOL_PROPERTY
VdW12
SciTegic.value.DoubleValue
5.066

@<SCITEGIC>MOL_PROPERTY
Bond
SciTegic.value.DoubleValue
0.112

@<SCITEGIC>MOL_PROPERTY
Angle
SciTegic.value.DoubleValue
0.386

@<SCITEGIC>MOL_PROPERTY
Pdih
SciTegic.value.DoubleValue
1.228

@<SCITEGIC>MOL_PROPERTY
Idih
SciTegic.value.DoubleValue
0.000

@<SCITEGIC>MOL_PROPERTY
Tether
SciTegic.value.DoubleValue
0.000

@<TRIPOS>MOLECULE
guest-2_confgen4.mol2 : confsearch ligand conformer 786
          23          22           1
SMALL
USER_CHARGES
 
@<TRIPOS>ATOM
       1    N1      19.007302   21.274297   19.941917 N.4        1 MOL1        -0.5940
       2    H1      18.137776   20.995608   19.475979 H          1 MOL1         0.3649
       3    H2      19.780066   21.002381   19.325695 H          1 MOL1         0.3649
       4    H3      19.006852   22.299076   19.985012 H          1 MOL1         0.3649
       5    C1      19.135725   20.652955   21.317862 C.3        1 MOL1         0.0207
       6    H4      18.299523   21.006419   21.927157 H          1 MOL1         0.0950
       7    H5      20.064752   21.016790   21.764015 H          1 MOL1         0.0950
       8    C2      19.139074   19.112783   21.286394 C.3        1 MOL1        -0.1415
       9    H6      18.222289   18.763494   20.792988 H          1 MOL1         0.0976
      10    H7      19.979513   18.757156   20.675513 H          1 MOL1         0.0976
      11    C3      19.219008   18.483582   22.697542 C.3        1 MOL1        -0.1375
      12    H8      19.101323   17.396937   22.595977 H          1 MOL1         0.0976
      13    H9      18.371650   18.833598   23.303219 H          1 MOL1         0.0976
      14    C4      20.549647   18.796310   23.428415 C.3        1 MOL1        -0.1375
      15    H10     21.395528   18.427480   22.832034 H          1 MOL1         0.0976
      16    H11     20.678518   19.883791   23.507675 H          1 MOL1         0.0976
      17    C5      20.624413   18.198250   24.854340 C.3        1 MOL1        -0.1350
      18    H12     19.786226   18.572129   25.458870 H          1 MOL1         0.0976
      19    H13     21.540078   18.562473   25.340934 H          1 MOL1         0.0976
      20    C6      20.632587   16.652651   24.875498 C.3        1 MOL1        -0.2365
      21    H14     19.683111   16.238536   24.514581 H          1 MOL1         0.0987
      22    H15     20.784726   16.283690   25.898078 H          1 MOL1         0.0987
      23    H16     21.442309   16.253286   24.251103 H          1 MOL1         0.0987
@<TRIPOS>BOND
    1     1     2    1
    2     1     3    1
    3     1     4    1
    4     1     5    1
    5     5     6    1
    6     5     7    1
    7     5     8    1
    8     8     9    1
    9     8    10    1
   10     8    11    1
   11    11    12    1
   12    11    13    1
   13    11    14    1
   14    14    15    1
   15    14    16    1
   16    14    17    1
   17    17    18    1
   18    17    19    1
   19    17    20    1
   20    20    21    1
   21    20    22    1
   22    20    23    1
@<TRIPOS>SUBSTRUCTURE
       1 MOL1            1 RESIDUE      1      MOL     
@<SCITEGIC>MOL_PROPERTY
VConf Rank
SciTegic.value.IntegerValue
786

@<SCITEGIC>MOL_PROPERTY
Conf_Id
SciTegic.value.IntegerValue
65

@<SCITEGIC>MOL_PROPERTY
Delta U+W
SciTegic.value.DoubleValue
1.004

@<SCITEGIC>MOL_PROPERTY
U+W
SciTegic.value.DoubleValue
-7.378

@<SCITEGIC>MOL_PROPERTY
Grad RMS
SciTegic.value.DoubleValue
0.000000

@<SCITEGIC>MOL_PROPERTY
U
SciTegic.value.DoubleValue
48.047

@<SCITEGIC>MOL_PROPERTY
W
SciTegic.value.DoubleValue
-55.425

@<SCITEGIC>MOL_PROPERTY
W(PB)
SciTegic.value.DoubleValue
-57.542

@<SCITEGIC>MOL_PROPERTY
W(SA)
SciTegic.value.DoubleValue
2.116

@<SCITEGIC>MOL_PROPERTY
Valence
SciTegic.value.DoubleValue
2.583

@<SCITEGIC>MOL_PROPERTY
Coulomb
SciTegic.value.DoubleValue
44.791

@<SCITEGIC>MOL_PROPERTY
VdW
SciTegic.value.DoubleValue
0.673

@<SCITEGIC>MOL_PROPERTY
VdW6
SciTegic.value.DoubleValue
-5.788

@<SCITEGIC>MOL_PROPERTY
VdW12
SciTegic.value.DoubleValue
6.462

@<SCITEGIC>MOL_PROPERTY
Bond
SciTegic.value.DoubleValue
0.177

@<SCITEGIC>MOL_PROPERTY
Angle
SciTegic.value.DoubleValue
0.787

@<SCITEGIC>MOL_PROPERTY
Pdih
SciTegic.value.DoubleValue
1.619

@<SCITEGIC>MOL_PROPERTY
Idih
SciTegic.value.DoubleValue
0.000

@<SCITEGIC>MOL_PROPERTY
Tether
SciTegic.value.DoubleValue
0.000

@<TRIPOS>MOLECULE
guest-2_confgen4.mol2 : confsearch ligand conformer 787
          23          22           1
SMALL
USER_CHARGES
 
@<TRIPOS>ATOM
       1    N1      19.714601   22.548054   23.190811 N.4        1 MOL1        -0.5940
       2    H1      18.937340   22.981366   22.681944 H          1 MOL1         0.3649
       3    H2      20.509507   23.192971   23.125743 H          1 MOL1         0.3649
       4    H3      19.443338   22.508267   24.178569 H          1 MOL1         0.3649
       5    C1      20.055274   21.177346   22.642288 C.3        1 MOL1         0.0207
       6    H4      20.906857   20.792288   23.208906 H          1 MOL1         0.0950
       7    H5      20.361429   21.297637   21.599595 H          1 MOL1         0.0950
       8    C2      18.880025   20.184909   22.725903 C.3        1 MOL1        -0.1415
       9    H6      18.572861   20.062785   23.773147 H          1 MOL1         0.0976
      10    H7      18.017562   20.606705   22.192807 H          1 MOL1         0.0976
      11    C3      19.217057   18.802608   22.118227 C.3        1 MOL1        -0.1375
      12    H8      19.514500   18.926927   21.067778 H          1 MOL1         0.0976
      13    H9      18.301223   18.197477   22.112992 H          1 MOL1         0.0976
      14    C4      20.331012   18.053032   22.892703 C.3        1 MOL1        -0.1375
      15    H10     21.239101   18.669639   22.918688 H          1 MOL1         0.0976
      16    H11     20.024048   17.910692   23.938041 H          1 MOL1         0.0976
      17    C5      20.697822   16.683156   22.271887 C.3        1 MOL1        -0.1350
      18    H12     21.567441   16.276186   22.806686 H          1 MOL1         0.0976
      19    H13     21.015859   16.820679   21.228940 H          1 MOL1         0.0976
      20    C6      19.549434   15.650321   22.333885 C.3        1 MOL1        -0.2365
      21    H14     18.699916   15.952597   21.709221 H          1 MOL1         0.0987
      22    H15     19.191032   15.519354   23.363160 H          1 MOL1         0.0987
      23    H16     19.892653   14.672657   21.971507 H          1 MOL1         0.0987
@<TRIPOS>BOND
    1     1     2    1
    2     1     3    1
    3     1     4    1
    4     1     5    1
    5     5     6    1
    6     5     7    1
    7     5     8    1
    8     8     9    1
    9     8    10    1
   10     8    11    1
   11    11    12    1
   12    11    13    1
   13    11    14    1
   14    14    15    1
   15    14    16    1
   16    14    17    1
   17    17    18    1
   18    17    19    1
   19    17    20    1
   20    20    21    1
   21    20    22    1
   22    20    23    1
@<TRIPOS>SUBSTRUCTURE
       1 MOL1            1 RESIDUE      1      MOL     
@<SCITEGIC>MOL_PROPERTY
VConf Rank
SciTegic.value.IntegerValue
787

@<SCITEGIC>MOL_PROPERTY
Conf_Id
SciTegic.value.IntegerValue
92

@<SCITEGIC>MOL_PROPERTY
Delta U+W
SciTegic.value.DoubleValue
0.973

@<SCITEGIC>MOL_PROPERTY
U+W
SciTegic.value.DoubleValue
-7.409

@<SCITEGIC>MOL_PROPERTY
Grad RMS
SciTegic.value.DoubleValue
0.000000

@<SCITEGIC>MOL_PROPERTY
U
SciTegic.value.DoubleValue
48.047

@<SCITEGIC>MOL_PROPERTY
W
SciTegic.value.DoubleValue
-55.456

@<SCITEGIC>MOL_PROPERTY
W(PB)
SciTegic.value.DoubleValue
-57.595

@<SCITEGIC>MOL_PROPERTY
W(SA)
SciTegic.value.DoubleValue
2.138

@<SCITEGIC>MOL_PROPERTY
Valence
SciTegic.value.DoubleValue
2.583

@<SCITEGIC>MOL_PROPERTY
Coulomb
SciTegic.value.DoubleValue
44.791

@<SCITEGIC>MOL_PROPERTY
VdW
SciTegic.value.DoubleValue
0.674

@<SCITEGIC>MOL_PROPERTY
VdW6
SciTegic.value.DoubleValue
-5.789

@<SCITEGIC>MOL_PROPERTY
VdW12
SciTegic.value.DoubleValue
6.462

@<SCITEGIC>MOL_PROPERTY
Bond
SciTegic.value.DoubleValue
0.177

@<SCITEGIC>MOL_PROPERTY
Angle
SciTegic.value.DoubleValue
0.787

@<SCITEGIC>MOL_PROPERTY
Pdih
SciTegic.value.DoubleValue
1.619

@<SCITEGIC>MOL_PROPERTY
Idih
SciTegic.value.DoubleValue
0.000

@<SCITEGIC>MOL_PROPERTY
Tether
SciTegic.value.DoubleValue
0.000

@<TRIPOS>MOLECULE
guest-2_confgen4.mol2 : confsearch ligand conformer 788
          23          22           1
SMALL
USER_CHARGES
 
@<TRIPOS>ATOM
       1    N1      20.683431   17.186475   25.504038 N.4        1 MOL1        -0.5940
       2    H1      20.751782   17.652168   26.415351 H          1 MOL1         0.3649
       3    H2      21.503762   16.577691   25.418637 H          1 MOL1         0.3649
       4    H3      19.859185   16.578149   25.541435 H          1 MOL1         0.3649
       5    C1      20.598881   18.184151   24.366818 C.3        1 MOL1         0.0207
       6    H4      21.491053   18.815063   24.404208 H          1 MOL1         0.0950
       7    H5      19.723379   18.815397   24.539209 H          1 MOL1         0.0950
       8    C2      20.495318   17.514811   22.983302 C.3        1 MOL1        -0.1415
       9    H6      21.357533   16.849716   22.841242 H          1 MOL1         0.0976
      10    H7      19.599640   16.880483   22.946112 H          1 MOL1         0.0976
      11    C3      20.455451   18.539172   21.824800 C.3        1 MOL1        -0.1375
      12    H8      20.475912   17.993368   20.871316 H          1 MOL1         0.0976
      13    H9      21.364997   19.155433   21.849234 H          1 MOL1         0.0976
      14    C4      19.205463   19.451092   21.862148 C.3        1 MOL1        -0.1375
      15    H10     18.298477   18.830839   21.871013 H          1 MOL1         0.0976
      16    H11     19.197538   20.039787   22.789204 H          1 MOL1         0.0976
      17    C5      19.159410   20.411166   20.652641 C.3        1 MOL1        -0.1350
      18    H12     19.158437   19.832140   19.718463 H          1 MOL1         0.0976
      19    H13     20.065016   21.033787   20.638517 H          1 MOL1         0.0976
      20    C6      17.913163   21.321062   20.691621 C.3        1 MOL1        -0.2365
      21    H14     16.990027   20.727184   20.672750 H          1 MOL1         0.0987
      22    H15     17.897903   21.994833   19.825108 H          1 MOL1         0.0987
      23    H16     17.903638   21.939061   21.598929 H          1 MOL1         0.0987
@<TRIPOS>BOND
    1     1     2    1
    2     1     3    1
    3     1     4    1
    4     1     5    1
    5     5     6    1
    6     5     7    1
    7     5     8    1
    8     8     9    1
    9     8    10    1
   10     8    11    1
   11    11    12    1
   12    11    13    1
   13    11    14    1
   14    14    15    1
   15    14    16    1
   16    14    17    1
   17    17    18    1
   18    17    19    1
   19    17    20    1
   20    20    21    1
   21    20    22    1
   22    20    23    1
@<TRIPOS>SUBSTRUCTURE
       1 MOL1            1 RESIDUE      1      MOL     
@<SCITEGIC>MOL_PROPERTY
VConf Rank
SciTegic.value.IntegerValue
788

@<SCITEGIC>MOL_PROPERTY
Conf_Id
SciTegic.value.IntegerValue
42

@<SCITEGIC>MOL_PROPERTY
Delta U+W
SciTegic.value.DoubleValue
0.365

@<SCITEGIC>MOL_PROPERTY
U+W
SciTegic.value.DoubleValue
-8.017

@<SCITEGIC>MOL_PROPERTY
Grad RMS
SciTegic.value.DoubleValue
0.000000

@<SCITEGIC>MOL_PROPERTY
U
SciTegic.value.DoubleValue
47.375

@<SCITEGIC>MOL_PROPERTY
W
SciTegic.value.DoubleValue
-55.392

@<SCITEGIC>MOL_PROPERTY
W(PB)
SciTegic.value.DoubleValue
-57.543

@<SCITEGIC>MOL_PROPERTY
W(SA)
SciTegic.value.DoubleValue
2.152

@<SCITEGIC>MOL_PROPERTY
Valence
SciTegic.value.DoubleValue
2.032

@<SCITEGIC>MOL_PROPERTY
Coulomb
SciTegic.value.DoubleValue
44.843

@<SCITEGIC>MOL_PROPERTY
VdW
SciTegic.value.DoubleValue
0.499

@<SCITEGIC>MOL_PROPERTY
VdW6
SciTegic.value.DoubleValue
-5.218

@<SCITEGIC>MOL_PROPERTY
VdW12
SciTegic.value.DoubleValue
5.717

@<SCITEGIC>MOL_PROPERTY
Bond
SciTegic.value.DoubleValue
0.135

@<SCITEGIC>MOL_PROPERTY
Angle
SciTegic.value.DoubleValue
0.514

@<SCITEGIC>MOL_PROPERTY
Pdih
SciTegic.value.DoubleValue
1.383

@<SCITEGIC>MOL_PROPERTY
Idih
SciTegic.value.DoubleValue
0.000

@<SCITEGIC>MOL_PROPERTY
Tether
SciTegic.value.DoubleValue
0.000

@<TRIPOS>MOLECULE
guest-2_confgen4.mol2 : confsearch ligand conformer 789
          23          22           1
SMALL
USER_CHARGES
 
@<TRIPOS>ATOM
       1    N1      20.467328   21.627411   24.235044 N.4        1 MOL1        -0.5940
       2    H1      21.061353   21.996533   23.485700 H          1 MOL1         0.3649
       3    H2      20.694297   22.156132   25.084094 H          1 MOL1         0.3649
       4    H3      19.498104   21.853431   23.992305 H          1 MOL1         0.3649
       5    C1      20.666928   20.136902   24.430306 C.3        1 MOL1         0.0207
       6    H4      20.026023   19.812887   25.254731 H          1 MOL1         0.0950
       7    H5      21.707684   19.979419   24.726272 H          1 MOL1         0.0950
       8    C2      20.361869   19.297000   23.174626 C.3        1 MOL1        -0.1415
       9    H6      20.987000   19.642547   22.340684 H          1 MOL1         0.0976
      10    H7      20.653431   18.260872   23.385693 H          1 MOL1         0.0976
      11    C3      18.866860   19.339556   22.774696 C.3        1 MOL1        -0.1375
      12    H8      18.547692   20.384260   22.664889 H          1 MOL1         0.0976
      13    H9      18.260429   18.918875   23.588744 H          1 MOL1         0.0976
      14    C4      18.537431   18.599414   21.452303 C.3        1 MOL1        -0.1375
      15    H10     17.465299   18.737735   21.255105 H          1 MOL1         0.0976
      16    H11     19.056224   19.079895   20.611342 H          1 MOL1         0.0976
      17    C5      18.832225   17.077123   21.465260 C.3        1 MOL1        -0.1350
      18    H12     18.058701   16.565757   20.875228 H          1 MOL1         0.0976
      19    H13     18.744943   16.679278   22.485897 H          1 MOL1         0.0976
      20    C6      20.209027   16.713478   20.861573 C.3        1 MOL1        -0.2365
      21    H14     20.276742   17.040938   19.815990 H          1 MOL1         0.0987
      22    H15     20.361265   15.626555   20.879953 H          1 MOL1         0.0987
      23    H16     21.036398   17.173822   21.412626 H          1 MOL1         0.0987
@<TRIPOS>BOND
    1     1     2    1
    2     1     3    1
    3     1     4    1
    4     1     5    1
    5     5     6    1
    6     5     7    1
    7     5     8    1
    8     8     9    1
    9     8    10    1
   10     8    11    1
   11    11    12    1
   12    11    13    1
   13    11    14    1
   14    14    15    1
   15    14    16    1
   16    14    17    1
   17    17    18    1
   18    17    19    1
   19    17    20    1
   20    20    21    1
   21    20    22    1
   22    20    23    1
@<TRIPOS>SUBSTRUCTURE
       1 MOL1            1 RESIDUE      1      MOL     
@<SCITEGIC>MOL_PROPERTY
VConf Rank
SciTegic.value.IntegerValue
789

@<SCITEGIC>MOL_PROPERTY
Conf_Id
SciTegic.value.IntegerValue
3

@<SCITEGIC>MOL_PROPERTY
Delta U+W
SciTegic.value.DoubleValue
3.283

@<SCITEGIC>MOL_PROPERTY
U+W
SciTegic.value.DoubleValue
-5.099

@<SCITEGIC>MOL_PROPERTY
Grad RMS
SciTegic.value.DoubleValue
0.000000

@<SCITEGIC>MOL_PROPERTY
U
SciTegic.value.DoubleValue
50.701

@<SCITEGIC>MOL_PROPERTY
W
SciTegic.value.DoubleValue
-55.800

@<SCITEGIC>MOL_PROPERTY
W(PB)
SciTegic.value.DoubleValue
-57.867

@<SCITEGIC>MOL_PROPERTY
W(SA)
SciTegic.value.DoubleValue
2.067

@<SCITEGIC>MOL_PROPERTY
Valence
SciTegic.value.DoubleValue
4.880

@<SCITEGIC>MOL_PROPERTY
Coulomb
SciTegic.value.DoubleValue
45.095

@<SCITEGIC>MOL_PROPERTY
VdW
SciTegic.value.DoubleValue
0.726

@<SCITEGIC>MOL_PROPERTY
VdW6
SciTegic.value.DoubleValue
-6.620

@<SCITEGIC>MOL_PROPERTY
VdW12
SciTegic.value.DoubleValue
7.346

@<SCITEGIC>MOL_PROPERTY
Bond
SciTegic.value.DoubleValue
0.222

@<SCITEGIC>MOL_PROPERTY
Angle
SciTegic.value.DoubleValue
1.260

@<SCITEGIC>MOL_PROPERTY
Pdih
SciTegic.value.DoubleValue
3.398

@<SCITEGIC>MOL_PROPERTY
Idih
SciTegic.value.DoubleValue
0.000

@<SCITEGIC>MOL_PROPERTY
Tether
SciTegic.value.DoubleValue
0.000

@<TRIPOS>MOLECULE
guest-2_confgen4.mol2 : confsearch ligand conformer 790
          23          22           1
SMALL
USER_CHARGES
 
@<TRIPOS>ATOM
       1    N1      17.751985   21.039674   21.976966 N.4        1 MOL1        -0.5940
       2    H1      16.949330   21.005999   22.613492 H          1 MOL1         0.3649
       3    H2      17.588223   21.818184   21.329712 H          1 MOL1         0.3649
       4    H3      18.574060   21.282656   22.537994 H          1 MOL1         0.3649
       5    C1      17.943783   19.727269   21.242731 C.3        1 MOL1         0.0207
       6    H4      18.791385   19.840131   20.562053 H          1 MOL1         0.0950
       7    H5      17.048434   19.548878   20.641024 H          1 MOL1         0.0950
       8    C2      18.179827   18.522780   22.176950 C.3        1 MOL1        -0.1415
       9    H6      17.299016   18.390201   22.819134 H          1 MOL1         0.0976
      10    H7      18.252604   17.612673   21.566813 H          1 MOL1         0.0976
      11    C3      19.444840   18.645196   23.063743 C.3        1 MOL1        -0.1375
      12    H8      19.491955   17.760850   23.712270 H          1 MOL1         0.0976
      13    H9      19.350015   19.510348   23.733270 H          1 MOL1         0.0976
      14    C4      20.755749   18.757091   22.244338 C.3        1 MOL1        -0.1375
      15    H10     20.862841   17.877133   21.595204 H          1 MOL1         0.0976
      16    H11     20.699737   19.627580   21.577655 H          1 MOL1         0.0976
      17    C5      22.020998   18.906527   23.123690 C.3        1 MOL1        -0.1350
      18    H12     21.924240   19.791769   23.767670 H          1 MOL1         0.0976
      19    H13     22.883512   19.095937   22.469430 H          1 MOL1         0.0976
      20    C6      22.320119   17.662435   23.990931 C.3        1 MOL1        -0.2365
      21    H14     22.388601   16.757545   23.373281 H          1 MOL1         0.0987
      22    H15     21.544701   17.503234   24.750292 H          1 MOL1         0.0987
      23    H16     23.276003   17.782275   24.517105 H          1 MOL1         0.0987
@<TRIPOS>BOND
    1     1     2    1
    2     1     3    1
    3     1     4    1
    4     1     5    1
    5     5     6    1
    6     5     7    1
    7     5     8    1
    8     8     9    1
    9     8    10    1
   10     8    11    1
   11    11    12    1
   12    11    13    1
   13    11    14    1
   14    14    15    1
   15    14    16    1
   16    14    17    1
   17    17    18    1
   18    17    19    1
   19    17    20    1
   20    20    21    1
   21    20    22    1
   22    20    23    1
@<TRIPOS>SUBSTRUCTURE
       1 MOL1            1 RESIDUE      1      MOL     
@<SCITEGIC>MOL_PROPERTY
VConf Rank
SciTegic.value.IntegerValue
790

@<SCITEGIC>MOL_PROPERTY
Conf_Id
SciTegic.value.IntegerValue
83

@<SCITEGIC>MOL_PROPERTY
Delta U+W
SciTegic.value.DoubleValue
1.229

@<SCITEGIC>MOL_PROPERTY
U+W
SciTegic.value.DoubleValue
-7.154

@<SCITEGIC>MOL_PROPERTY
Grad RMS
SciTegic.value.DoubleValue
0.000000

@<SCITEGIC>MOL_PROPERTY
U
SciTegic.value.DoubleValue
48.727

@<SCITEGIC>MOL_PROPERTY
W
SciTegic.value.DoubleValue
-55.880

@<SCITEGIC>MOL_PROPERTY
W(PB)
SciTegic.value.DoubleValue
-57.960

@<SCITEGIC>MOL_PROPERTY
W(SA)
SciTegic.value.DoubleValue
2.080

@<SCITEGIC>MOL_PROPERTY
Valence
SciTegic.value.DoubleValue
2.671

@<SCITEGIC>MOL_PROPERTY
Coulomb
SciTegic.value.DoubleValue
45.371

@<SCITEGIC>MOL_PROPERTY
VdW
SciTegic.value.DoubleValue
0.684

@<SCITEGIC>MOL_PROPERTY
VdW6
SciTegic.value.DoubleValue
-6.511

@<SCITEGIC>MOL_PROPERTY
VdW12
SciTegic.value.DoubleValue
7.195

@<SCITEGIC>MOL_PROPERTY
Bond
SciTegic.value.DoubleValue
0.203

@<SCITEGIC>MOL_PROPERTY
Angle
SciTegic.value.DoubleValue
0.915

@<SCITEGIC>MOL_PROPERTY
Pdih
SciTegic.value.DoubleValue
1.554

@<SCITEGIC>MOL_PROPERTY
Idih
SciTegic.value.DoubleValue
0.000

@<SCITEGIC>MOL_PROPERTY
Tether
SciTegic.value.DoubleValue
0.000

@<TRIPOS>MOLECULE
guest-2_confgen4.mol2 : confsearch ligand conformer 791
          23          22           1
SMALL
USER_CHARGES
 
@<TRIPOS>ATOM
       1    N1      19.218329   17.058704   24.657319 N.4        1 MOL1        -0.5940
       2    H1      18.487132   16.382806   24.414285 H          1 MOL1         0.3649
       3    H2      18.778575   17.983526   24.687679 H          1 MOL1         0.3649
       4    H3      19.523861   16.838986   25.611368 H          1 MOL1         0.3649
       5    C1      20.370995   17.019371   23.673393 C.3        1 MOL1         0.0207
       6    H4      20.812548   16.020096   23.718184 H          1 MOL1         0.0950
       7    H5      21.125174   17.737245   24.005600 H          1 MOL1         0.0950
       8    C2      19.956942   17.330286   22.220406 C.3        1 MOL1        -0.1415
       9    H6      20.837830   17.226001   21.573088 H          1 MOL1         0.0976
      10    H7      19.238571   16.571395   21.883015 H          1 MOL1         0.0976
      11    C3      19.342327   18.739133   22.022806 C.3        1 MOL1        -0.1375
      12    H8      18.417344   18.829089   22.607668 H          1 MOL1         0.0976
      13    H9      19.048524   18.836939   20.969720 H          1 MOL1         0.0976
      14    C4      20.314135   19.886780   22.398203 C.3        1 MOL1        -0.1375
      15    H10     20.627654   19.775943   23.444518 H          1 MOL1         0.0976
      16    H11     21.227587   19.811487   21.792310 H          1 MOL1         0.0976
      17    C5      19.697328   21.296478   22.228654 C.3        1 MOL1        -0.1350
      18    H12     20.404206   22.039408   22.623928 H          1 MOL1         0.0976
      19    H13     18.788793   21.381317   22.841103 H          1 MOL1         0.0976
      20    C6      19.370672   21.654575   20.760865 C.3        1 MOL1        -0.2365
      21    H14     20.256059   21.545416   20.121192 H          1 MOL1         0.0987
      22    H15     19.029687   22.695315   20.686547 H          1 MOL1         0.0987
      23    H16     18.573664   21.018020   20.357356 H          1 MOL1         0.0987
@<TRIPOS>BOND
    1     1     2    1
    2     1     3    1
    3     1     4    1
    4     1     5    1
    5     5     6    1
    6     5     7    1
    7     5     8    1
    8     8     9    1
    9     8    10    1
   10     8    11    1
   11    11    12    1
   12    11    13    1
   13    11    14    1
   14    14    15    1
   15    14    16    1
   16    14    17    1
   17    17    18    1
   18    17    19    1
   19    17    20    1
   20    20    21    1
   21    20    22    1
   22    20    23    1
@<TRIPOS>SUBSTRUCTURE
       1 MOL1            1 RESIDUE      1      MOL     
@<SCITEGIC>MOL_PROPERTY
VConf Rank
SciTegic.value.IntegerValue
791

@<SCITEGIC>MOL_PROPERTY
Conf_Id
SciTegic.value.IntegerValue
50

@<SCITEGIC>MOL_PROPERTY
Delta U+W
SciTegic.value.DoubleValue
1.252

@<SCITEGIC>MOL_PROPERTY
U+W
SciTegic.value.DoubleValue
-7.130

@<SCITEGIC>MOL_PROPERTY
Grad RMS
SciTegic.value.DoubleValue
0.000000

@<SCITEGIC>MOL_PROPERTY
U
SciTegic.value.DoubleValue
48.727

@<SCITEGIC>MOL_PROPERTY
W
SciTegic.value.DoubleValue
-55.857

@<SCITEGIC>MOL_PROPERTY
W(PB)
SciTegic.value.DoubleValue
-57.937

@<SCITEGIC>MOL_PROPERTY
W(SA)
SciTegic.value.DoubleValue
2.080

@<SCITEGIC>MOL_PROPERTY
Valence
SciTegic.value.DoubleValue
2.671

@<SCITEGIC>MOL_PROPERTY
Coulomb
SciTegic.value.DoubleValue
45.371

@<SCITEGIC>MOL_PROPERTY
VdW
SciTegic.value.DoubleValue
0.684

@<SCITEGIC>MOL_PROPERTY
VdW6
SciTegic.value.DoubleValue
-6.511

@<SCITEGIC>MOL_PROPERTY
VdW12
SciTegic.value.DoubleValue
7.196

@<SCITEGIC>MOL_PROPERTY
Bond
SciTegic.value.DoubleValue
0.203

@<SCITEGIC>MOL_PROPERTY
Angle
SciTegic.value.DoubleValue
0.915

@<SCITEGIC>MOL_PROPERTY
Pdih
SciTegic.value.DoubleValue
1.554

@<SCITEGIC>MOL_PROPERTY
Idih
SciTegic.value.DoubleValue
0.000

@<SCITEGIC>MOL_PROPERTY
Tether
SciTegic.value.DoubleValue
0.000

@<TRIPOS>MOLECULE
guest-2_confgen4.mol2 : confsearch ligand conformer 792
          23          22           1
SMALL
USER_CHARGES
 
@<TRIPOS>ATOM
       1    N1      22.804566   19.170556   21.615624 N.4        1 MOL1        -0.5940
       2    H1      22.678631   20.091107   22.047201 H          1 MOL1         0.3649
       3    H2      23.435781   19.297840   20.817316 H          1 MOL1         0.3649
       4    H3      23.297140   18.581968   22.295006 H          1 MOL1         0.3649
       5    C1      21.481662   18.560238   21.195294 C.3        1 MOL1         0.0207
       6    H4      21.697227   17.604926   20.708998 H          1 MOL1         0.0950
       7    H5      21.022020   19.222226   20.456433 H          1 MOL1         0.0950
       8    C2      20.503612   18.329129   22.363526 C.3        1 MOL1        -0.1415
       9    H6      19.631379   17.789161   21.978419 H          1 MOL1         0.0976
      10    H7      20.971600   17.668151   23.105054 H          1 MOL1         0.0976
      11    C3      20.060409   19.650662   23.041610 C.3        1 MOL1        -0.1375
      12    H8      19.677669   20.356084   22.291114 H          1 MOL1         0.0976
      13    H9      20.944026   20.128113   23.485738 H          1 MOL1         0.0976
      14    C4      19.008007   19.444295   24.162309 C.3        1 MOL1        -0.1375
      15    H10     19.134800   18.457267   24.628026 H          1 MOL1         0.0976
      16    H11     19.208288   20.174545   24.958622 H          1 MOL1         0.0976
      17    C5      17.536780   19.637119   23.713400 C.3        1 MOL1        -0.1350
      18    H12     17.396106   20.662180   23.342948 H          1 MOL1         0.0976
      19    H13     16.887953   19.541217   24.595240 H          1 MOL1         0.0976
      20    C6      17.062179   18.634752   22.638670 C.3        1 MOL1        -0.2365
      21    H14     17.243446   17.599358   22.954797 H          1 MOL1         0.0987
      22    H15     17.572785   18.803774   21.682643 H          1 MOL1         0.0987
      23    H16     15.985172   18.746977   22.458809 H          1 MOL1         0.0987
@<TRIPOS>BOND
    1     1     2    1
    2     1     3    1
    3     1     4    1
    4     1     5    1
    5     5     6    1
    6     5     7    1
    7     5     8    1
    8     8     9    1
    9     8    10    1
   10     8    11    1
   11    11    12    1
   12    11    13    1
   13    11    14    1
   14    14    15    1
   15    14    16    1
   16    14    17    1
   17    17    18    1
   18    17    19    1
   19    17    20    1
   20    20    21    1
   21    20    22    1
   22    20    23    1
@<TRIPOS>SUBSTRUCTURE
       1 MOL1            1 RESIDUE      1      MOL     
@<SCITEGIC>MOL_PROPERTY
VConf Rank
SciTegic.value.IntegerValue
792

@<SCITEGIC>MOL_PROPERTY
Conf_Id
SciTegic.value.IntegerValue
55

@<SCITEGIC>MOL_PROPERTY
Delta U+W
SciTegic.value.DoubleValue
3.232

@<SCITEGIC>MOL_PROPERTY
U+W
SciTegic.value.DoubleValue
-5.150

@<SCITEGIC>MOL_PROPERTY
Grad RMS
SciTegic.value.DoubleValue
0.000000

@<SCITEGIC>MOL_PROPERTY
U
SciTegic.value.DoubleValue
50.625

@<SCITEGIC>MOL_PROPERTY
W
SciTegic.value.DoubleValue
-55.776

@<SCITEGIC>MOL_PROPERTY
W(PB)
SciTegic.value.DoubleValue
-57.839

@<SCITEGIC>MOL_PROPERTY
W(SA)
SciTegic.value.DoubleValue
2.064

@<SCITEGIC>MOL_PROPERTY
Valence
SciTegic.value.DoubleValue
4.837

@<SCITEGIC>MOL_PROPERTY
Coulomb
SciTegic.value.DoubleValue
45.097

@<SCITEGIC>MOL_PROPERTY
VdW
SciTegic.value.DoubleValue
0.692

@<SCITEGIC>MOL_PROPERTY
VdW6
SciTegic.value.DoubleValue
-6.655

@<SCITEGIC>MOL_PROPERTY
VdW12
SciTegic.value.DoubleValue
7.347

@<SCITEGIC>MOL_PROPERTY
Bond
SciTegic.value.DoubleValue
0.223

@<SCITEGIC>MOL_PROPERTY
Angle
SciTegic.value.DoubleValue
1.167

@<SCITEGIC>MOL_PROPERTY
Pdih
SciTegic.value.DoubleValue
3.447

@<SCITEGIC>MOL_PROPERTY
Idih
SciTegic.value.DoubleValue
0.000

@<SCITEGIC>MOL_PROPERTY
Tether
SciTegic.value.DoubleValue
0.000

@<TRIPOS>MOLECULE
guest-2_confgen4.mol2 : confsearch ligand conformer 793
          23          22           1
SMALL
USER_CHARGES
 
@<TRIPOS>ATOM
       1    N1      21.170703   19.471915   25.408811 N.4        1 MOL1        -0.5940
       2    H1      20.967615   20.296846   25.982460 H          1 MOL1         0.3649
       3    H2      22.156233   19.235322   25.566142 H          1 MOL1         0.3649
       4    H3      20.614390   18.698094   25.786270 H          1 MOL1         0.3649
       5    C1      20.877417   19.717094   23.942688 C.3        1 MOL1         0.0207
       6    H4      21.150113   18.814576   23.392743 H          1 MOL1         0.0950
       7    H5      21.522963   20.531319   23.602529 H          1 MOL1         0.0950
       8    C2      19.403824   20.082009   23.675956 C.3        1 MOL1        -0.1415
       9    H6      18.740144   19.293409   24.054773 H          1 MOL1         0.0976
      10    H7      19.168235   20.987810   24.250448 H          1 MOL1         0.0976
      11    C3      19.106225   20.356056   22.180029 C.3        1 MOL1        -0.1375
      12    H8      19.954515   20.879320   21.717209 H          1 MOL1         0.0976
      13    H9      18.259753   21.054406   22.122670 H          1 MOL1         0.0976
      14    C4      18.734260   19.102170   21.346431 C.3        1 MOL1        -0.1375
      15    H10     17.822580   18.646832   21.757282 H          1 MOL1         0.0976
      16    H11     18.478126   19.431599   20.329911 H          1 MOL1         0.0976
      17    C5      19.847360   18.032558   21.260176 C.3        1 MOL1        -0.1350
      18    H12     20.007307   17.578978   22.246886 H          1 MOL1         0.0976
      19    H13     20.794386   18.501781   20.959096 H          1 MOL1         0.0976
      20    C6      19.487493   16.916208   20.256713 C.3        1 MOL1        -0.2365
      21    H14     19.356568   17.321171   19.244746 H          1 MOL1         0.0987
      22    H15     18.556780   16.410825   20.545870 H          1 MOL1         0.0987
      23    H16     20.282649   16.160490   20.216112 H          1 MOL1         0.0987
@<TRIPOS>BOND
    1     1     2    1
    2     1     3    1
    3     1     4    1
    4     1     5    1
    5     5     6    1
    6     5     7    1
    7     5     8    1
    8     8     9    1
    9     8    10    1
   10     8    11    1
   11    11    12    1
   12    11    13    1
   13    11    14    1
   14    14    15    1
   15    14    16    1
   16    14    17    1
   17    17    18    1
   18    17    19    1
   19    17    20    1
   20    20    21    1
   21    20    22    1
   22    20    23    1
@<TRIPOS>SUBSTRUCTURE
       1 MOL1            1 RESIDUE      1      MOL     
@<SCITEGIC>MOL_PROPERTY
VConf Rank
SciTegic.value.IntegerValue
793

@<SCITEGIC>MOL_PROPERTY
Conf_Id
SciTegic.value.IntegerValue
93

@<SCITEGIC>MOL_PROPERTY
Delta U+W
SciTegic.value.DoubleValue
2.589

@<SCITEGIC>MOL_PROPERTY
U+W
SciTegic.value.DoubleValue
-5.793

@<SCITEGIC>MOL_PROPERTY
Grad RMS
SciTegic.value.DoubleValue
0.000000

@<SCITEGIC>MOL_PROPERTY
U
SciTegic.value.DoubleValue
50.122

@<SCITEGIC>MOL_PROPERTY
W
SciTegic.value.DoubleValue
-55.915

@<SCITEGIC>MOL_PROPERTY
W(PB)
SciTegic.value.DoubleValue
-58.031

@<SCITEGIC>MOL_PROPERTY
W(SA)
SciTegic.value.DoubleValue
2.115

@<SCITEGIC>MOL_PROPERTY
Valence
SciTegic.value.DoubleValue
4.132

@<SCITEGIC>MOL_PROPERTY
Coulomb
SciTegic.value.DoubleValue
45.536

@<SCITEGIC>MOL_PROPERTY
VdW
SciTegic.value.DoubleValue
0.454

@<SCITEGIC>MOL_PROPERTY
VdW6
SciTegic.value.DoubleValue
-6.262

@<SCITEGIC>MOL_PROPERTY
VdW12
SciTegic.value.DoubleValue
6.715

@<SCITEGIC>MOL_PROPERTY
Bond
SciTegic.value.DoubleValue
0.182

@<SCITEGIC>MOL_PROPERTY
Angle
SciTegic.value.DoubleValue
1.157

@<SCITEGIC>MOL_PROPERTY
Pdih
SciTegic.value.DoubleValue
2.794

@<SCITEGIC>MOL_PROPERTY
Idih
SciTegic.value.DoubleValue
0.000

@<SCITEGIC>MOL_PROPERTY
Tether
SciTegic.value.DoubleValue
0.000

@<TRIPOS>MOLECULE
guest-2_confgen4.mol2 : confsearch ligand conformer 794
          23          22           1
SMALL
USER_CHARGES
 
@<TRIPOS>ATOM
       1    N1      18.871468   16.511860   24.360332 N.4        1 MOL1        -0.5940
       2    H1      17.929308   16.554729   23.958768 H          1 MOL1         0.3649
       3    H2      18.767530   16.609062   25.376082 H          1 MOL1         0.3649
       4    H3      19.230135   15.567313   24.187076 H          1 MOL1         0.3649
       5    C1      19.781636   17.576621   23.782817 C.3        1 MOL1         0.0207
       6    H4      20.754230   17.490095   24.274724 H          1 MOL1         0.0950
       7    H5      19.358070   18.550233   24.035822 H          1 MOL1         0.0950
       8    C2      19.962795   17.451523   22.257261 C.3        1 MOL1        -0.1415
       9    H6      20.383048   16.459435   22.044732 H          1 MOL1         0.0976
      10    H7      18.988481   17.490047   21.752196 H          1 MOL1         0.0976
      11    C3      20.911768   18.525256   21.667337 C.3        1 MOL1        -0.1375
      12    H8      21.375759   18.110395   20.761742 H          1 MOL1         0.0976
      13    H9      21.740031   18.718753   22.363141 H          1 MOL1         0.0976
      14    C4      20.225584   19.858618   21.271392 C.3        1 MOL1        -0.1375
      15    H10     20.980821   20.505704   20.804127 H          1 MOL1         0.0976
      16    H11     19.469815   19.665553   20.497551 H          1 MOL1         0.0976
      17    C5      19.572115   20.620761   22.447239 C.3        1 MOL1        -0.1350
      18    H12     20.289110   20.718111   23.274353 H          1 MOL1         0.0976
      19    H13     18.711123   20.055467   22.826781 H          1 MOL1         0.0976
      20    C6      19.091068   22.023596   22.019069 C.3        1 MOL1        -0.2365
      21    H14     18.620397   22.545947   22.862068 H          1 MOL1         0.0987
      22    H15     18.352859   21.957361   21.209186 H          1 MOL1         0.0987
      23    H16     19.929547   22.639161   21.668005 H          1 MOL1         0.0987
@<TRIPOS>BOND
    1     1     2    1
    2     1     3    1
    3     1     4    1
    4     1     5    1
    5     5     6    1
    6     5     7    1
    7     5     8    1
    8     8     9    1
    9     8    10    1
   10     8    11    1
   11    11    12    1
   12    11    13    1
   13    11    14    1
   14    14    15    1
   15    14    16    1
   16    14    17    1
   17    17    18    1
   18    17    19    1
   19    17    20    1
   20    20    21    1
   21    20    22    1
   22    20    23    1
@<TRIPOS>SUBSTRUCTURE
       1 MOL1            1 RESIDUE      1      MOL     
@<SCITEGIC>MOL_PROPERTY
VConf Rank
SciTegic.value.IntegerValue
794

@<SCITEGIC>MOL_PROPERTY
Conf_Id
SciTegic.value.IntegerValue
70

@<SCITEGIC>MOL_PROPERTY
Delta U+W
SciTegic.value.DoubleValue
2.599

@<SCITEGIC>MOL_PROPERTY
U+W
SciTegic.value.DoubleValue
-5.783

@<SCITEGIC>MOL_PROPERTY
Grad RMS
SciTegic.value.DoubleValue
0.000000

@<SCITEGIC>MOL_PROPERTY
U
SciTegic.value.DoubleValue
50.122

@<SCITEGIC>MOL_PROPERTY
W
SciTegic.value.DoubleValue
-55.906

@<SCITEGIC>MOL_PROPERTY
W(PB)
SciTegic.value.DoubleValue
-58.010

@<SCITEGIC>MOL_PROPERTY
W(SA)
SciTegic.value.DoubleValue
2.105

@<SCITEGIC>MOL_PROPERTY
Valence
SciTegic.value.DoubleValue
4.132

@<SCITEGIC>MOL_PROPERTY
Coulomb
SciTegic.value.DoubleValue
45.536

@<SCITEGIC>MOL_PROPERTY
VdW
SciTegic.value.DoubleValue
0.454

@<SCITEGIC>MOL_PROPERTY
VdW6
SciTegic.value.DoubleValue
-6.262

@<SCITEGIC>MOL_PROPERTY
VdW12
SciTegic.value.DoubleValue
6.715

@<SCITEGIC>MOL_PROPERTY
Bond
SciTegic.value.DoubleValue
0.182

@<SCITEGIC>MOL_PROPERTY
Angle
SciTegic.value.DoubleValue
1.157

@<SCITEGIC>MOL_PROPERTY
Pdih
SciTegic.value.DoubleValue
2.794

@<SCITEGIC>MOL_PROPERTY
Idih
SciTegic.value.DoubleValue
0.000

@<SCITEGIC>MOL_PROPERTY
Tether
SciTegic.value.DoubleValue
0.000

@<TRIPOS>MOLECULE
guest-2_confgen4.mol2 : confsearch ligand conformer 795
          23          22           1
SMALL
USER_CHARGES
 
@<TRIPOS>ATOM
       1    N1      17.574718   19.761267   24.158730 N.4        1 MOL1        -0.5940
       2    H1      16.941792   20.533580   23.927547 H          1 MOL1         0.3649
       3    H2      17.370630   19.486172   25.125391 H          1 MOL1         0.3649
       4    H3      17.318859   18.970433   23.559911 H          1 MOL1         0.3649
       5    C1      19.028402   20.151912   23.978628 C.3        1 MOL1         0.0207
       6    H4      19.647863   19.300443   24.272249 H          1 MOL1         0.0950
       7    H5      19.238870   20.977378   24.664052 H          1 MOL1         0.0950
       8    C2      19.379701   20.578927   22.539174 C.3        1 MOL1        -0.1415
       9    H6      18.776759   21.455517   22.267574 H          1 MOL1         0.0976
      10    H7      20.423974   20.915526   22.514461 H          1 MOL1         0.0976
      11    C3      19.164829   19.464871   21.481008 C.3        1 MOL1        -0.1375
      12    H8      19.477382   19.844869   20.498605 H          1 MOL1         0.0976
      13    H9      18.090692   19.254952   21.389377 H          1 MOL1         0.0976
      14    C4      19.911225   18.136717   21.770314 C.3        1 MOL1        -0.1375
      15    H10     19.542720   17.692941   22.704744 H          1 MOL1         0.0976
      16    H11     19.661880   17.419479   20.976126 H          1 MOL1         0.0976
      17    C5      21.448519   18.294243   21.839644 C.3        1 MOL1        -0.1350
      18    H12     21.724631   18.952977   22.673772 H          1 MOL1         0.0976
      19    H13     21.814190   18.773131   20.920588 H          1 MOL1         0.0976
      20    C6      22.152513   16.932885   22.022617 C.3        1 MOL1        -0.2365
      21    H14     23.241350   17.063173   22.072354 H          1 MOL1         0.0987
      22    H15     21.932235   16.258328   21.184976 H          1 MOL1         0.0987
      23    H16     21.829080   16.443034   22.950324 H          1 MOL1         0.0987
@<TRIPOS>BOND
    1     1     2    1
    2     1     3    1
    3     1     4    1
    4     1     5    1
    5     5     6    1
    6     5     7    1
    7     5     8    1
    8     8     9    1
    9     8    10    1
   10     8    11    1
   11    11    12    1
   12    11    13    1
   13    11    14    1
   14    14    15    1
   15    14    16    1
   16    14    17    1
   17    17    18    1
   18    17    19    1
   19    17    20    1
   20    20    21    1
   21    20    22    1
   22    20    23    1
@<TRIPOS>SUBSTRUCTURE
       1 MOL1            1 RESIDUE      1      MOL     
@<SCITEGIC>MOL_PROPERTY
VConf Rank
SciTegic.value.IntegerValue
795

@<SCITEGIC>MOL_PROPERTY
Conf_Id
SciTegic.value.IntegerValue
72

@<SCITEGIC>MOL_PROPERTY
Delta U+W
SciTegic.value.DoubleValue
1.051

@<SCITEGIC>MOL_PROPERTY
U+W
SciTegic.value.DoubleValue
-7.331

@<SCITEGIC>MOL_PROPERTY
Grad RMS
SciTegic.value.DoubleValue
0.000000

@<SCITEGIC>MOL_PROPERTY
U
SciTegic.value.DoubleValue
48.590

@<SCITEGIC>MOL_PROPERTY
W
SciTegic.value.DoubleValue
-55.922

@<SCITEGIC>MOL_PROPERTY
W(PB)
SciTegic.value.DoubleValue
-58.012

@<SCITEGIC>MOL_PROPERTY
W(SA)
SciTegic.value.DoubleValue
2.090

@<SCITEGIC>MOL_PROPERTY
Valence
SciTegic.value.DoubleValue
2.601

@<SCITEGIC>MOL_PROPERTY
Coulomb
SciTegic.value.DoubleValue
45.520

@<SCITEGIC>MOL_PROPERTY
VdW
SciTegic.value.DoubleValue
0.469

@<SCITEGIC>MOL_PROPERTY
VdW6
SciTegic.value.DoubleValue
-6.867

@<SCITEGIC>MOL_PROPERTY
VdW12
SciTegic.value.DoubleValue
7.336

@<SCITEGIC>MOL_PROPERTY
Bond
SciTegic.value.DoubleValue
0.205

@<SCITEGIC>MOL_PROPERTY
Angle
SciTegic.value.DoubleValue
0.962

@<SCITEGIC>MOL_PROPERTY
Pdih
SciTegic.value.DoubleValue
1.434

@<SCITEGIC>MOL_PROPERTY
Idih
SciTegic.value.DoubleValue
0.000

@<SCITEGIC>MOL_PROPERTY
Tether
SciTegic.value.DoubleValue
0.000

@<TRIPOS>MOLECULE
guest-2_confgen4.mol2 : confsearch ligand conformer 796
          23          22           1
SMALL
USER_CHARGES
 
@<TRIPOS>ATOM
       1    N1      17.057864   17.436861   23.093292 N.4        1 MOL1        -0.5940
       2    H1      16.866821   16.429413   23.115812 H          1 MOL1         0.3649
       3    H2      16.225961   17.888770   22.700228 H          1 MOL1         0.3649
       4    H3      17.137913   17.746972   24.066988 H          1 MOL1         0.3649
       5    C1      18.304783   17.755493   22.293725 C.3        1 MOL1         0.0207
       6    H4      18.162551   17.373696   21.279156 H          1 MOL1         0.0950
       7    H5      19.141814   17.219711   22.748972 H          1 MOL1         0.0950
       8    C2      18.619835   19.262061   22.240680 C.3        1 MOL1        -0.1415
       9    H6      17.758267   19.794539   21.816539 H          1 MOL1         0.0976
      10    H7      18.750018   19.649149   23.259329 H          1 MOL1         0.0976
      11    C3      19.873400   19.580852   21.388618 C.3        1 MOL1        -0.1375
      12    H8      20.029747   20.667705   21.372664 H          1 MOL1         0.0976
      13    H9      19.675679   19.295246   20.346194 H          1 MOL1         0.0976
      14    C4      21.175488   18.876099   21.856218 C.3        1 MOL1        -0.1375
      15    H10     21.074574   17.791666   21.714359 H          1 MOL1         0.0976
      16    H11     21.997462   19.184375   21.195541 H          1 MOL1         0.0976
      17    C5      21.584413   19.153551   23.325238 C.3        1 MOL1        -0.1350
      18    H12     22.505899   18.595918   23.543412 H          1 MOL1         0.0976
      19    H13     20.824326   18.758147   24.012290 H          1 MOL1         0.0976
      20    C6      21.827371   20.650796   23.621459 C.3        1 MOL1        -0.2365
      21    H14     22.575667   21.071720   22.937489 H          1 MOL1         0.0987
      22    H15     22.196038   20.785229   24.646571 H          1 MOL1         0.0987
      23    H16     20.904271   21.235373   23.522897 H          1 MOL1         0.0987
@<TRIPOS>BOND
    1     1     2    1
    2     1     3    1
    3     1     4    1
    4     1     5    1
    5     5     6    1
    6     5     7    1
    7     5     8    1
    8     8     9    1
    9     8    10    1
   10     8    11    1
   11    11    12    1
   12    11    13    1
   13    11    14    1
   14    14    15    1
   15    14    16    1
   16    14    17    1
   17    17    18    1
   18    17    19    1
   19    17    20    1
   20    20    21    1
   21    20    22    1
   22    20    23    1
@<TRIPOS>SUBSTRUCTURE
       1 MOL1            1 RESIDUE      1      MOL     
@<SCITEGIC>MOL_PROPERTY
VConf Rank
SciTegic.value.IntegerValue
796

@<SCITEGIC>MOL_PROPERTY
Conf_Id
SciTegic.value.IntegerValue
26

@<SCITEGIC>MOL_PROPERTY
Delta U+W
SciTegic.value.DoubleValue
1.076

@<SCITEGIC>MOL_PROPERTY
U+W
SciTegic.value.DoubleValue
-7.306

@<SCITEGIC>MOL_PROPERTY
Grad RMS
SciTegic.value.DoubleValue
0.000000

@<SCITEGIC>MOL_PROPERTY
U
SciTegic.value.DoubleValue
48.641

@<SCITEGIC>MOL_PROPERTY
W
SciTegic.value.DoubleValue
-55.947

@<SCITEGIC>MOL_PROPERTY
W(PB)
SciTegic.value.DoubleValue
-58.031

@<SCITEGIC>MOL_PROPERTY
W(SA)
SciTegic.value.DoubleValue
2.084

@<SCITEGIC>MOL_PROPERTY
Valence
SciTegic.value.DoubleValue
2.922

@<SCITEGIC>MOL_PROPERTY
Coulomb
SciTegic.value.DoubleValue
45.269

@<SCITEGIC>MOL_PROPERTY
VdW
SciTegic.value.DoubleValue
0.449

@<SCITEGIC>MOL_PROPERTY
VdW6
SciTegic.value.DoubleValue
-7.045

@<SCITEGIC>MOL_PROPERTY
VdW12
SciTegic.value.DoubleValue
7.494

@<SCITEGIC>MOL_PROPERTY
Bond
SciTegic.value.DoubleValue
0.220

@<SCITEGIC>MOL_PROPERTY
Angle
SciTegic.value.DoubleValue
1.205

@<SCITEGIC>MOL_PROPERTY
Pdih
SciTegic.value.DoubleValue
1.497

@<SCITEGIC>MOL_PROPERTY
Idih
SciTegic.value.DoubleValue
0.000

@<SCITEGIC>MOL_PROPERTY
Tether
SciTegic.value.DoubleValue
0.000

@<TRIPOS>MOLECULE
guest-2_confgen4.mol2 : confsearch ligand conformer 797
          23          22           1
SMALL
USER_CHARGES
 
@<TRIPOS>ATOM
       1    N1      20.163381   17.499854   19.882560 N.4        1 MOL1        -0.5940
       2    H1      19.290556   17.194632   19.440069 H          1 MOL1         0.3649
       3    H2      20.896011   16.851644   19.574283 H          1 MOL1         0.3649
       4    H3      20.394491   18.418753   19.491569 H          1 MOL1         0.3649
       5    C1      20.046970   17.540595   21.392667 C.3        1 MOL1         0.0207
       6    H4      21.016827   17.842869   21.796326 H          1 MOL1         0.0950
       7    H5      19.828971   16.527910   21.742375 H          1 MOL1         0.0950
       8    C2      18.954403   18.506126   21.888515 C.3        1 MOL1        -0.1415
       9    H6      19.165188   19.520728   21.527149 H          1 MOL1         0.0976
      10    H7      17.991490   18.215934   21.447701 H          1 MOL1         0.0976
      11    C3      18.816649   18.511238   23.431259 C.3        1 MOL1        -0.1375
      12    H8      18.487259   17.516276   23.761207 H          1 MOL1         0.0976
      13    H9      18.010166   19.199464   23.717411 H          1 MOL1         0.0976
      14    C4      20.113396   18.883206   24.199922 C.3        1 MOL1        -0.1375
      15    H10     19.897781   18.871452   25.277206 H          1 MOL1         0.0976
      16    H11     20.868158   18.101068   24.042136 H          1 MOL1         0.0976
      17    C5      20.729175   20.256223   23.828624 C.3        1 MOL1        -0.1350
      18    H12     21.050908   20.256786   22.778572 H          1 MOL1         0.0976
      19    H13     21.642043   20.402657   24.422696 H          1 MOL1         0.0976
      20    C6      19.774634   21.444856   24.082633 C.3        1 MOL1        -0.2365
      21    H14     18.894448   21.400745   23.429268 H          1 MOL1         0.0987
      22    H15     20.284825   22.396694   23.886290 H          1 MOL1         0.0987
      23    H16     19.429248   21.457555   25.124501 H          1 MOL1         0.0987
@<TRIPOS>BOND
    1     1     2    1
    2     1     3    1
    3     1     4    1
    4     1     5    1
    5     5     6    1
    6     5     7    1
    7     5     8    1
    8     8     9    1
    9     8    10    1
   10     8    11    1
   11    11    12    1
   12    11    13    1
   13    11    14    1
   14    14    15    1
   15    14    16    1
   16    14    17    1
   17    17    18    1
   18    17    19    1
   19    17    20    1
   20    20    21    1
   21    20    22    1
   22    20    23    1
@<TRIPOS>SUBSTRUCTURE
       1 MOL1            1 RESIDUE      1      MOL     
@<SCITEGIC>MOL_PROPERTY
VConf Rank
SciTegic.value.IntegerValue
797

@<SCITEGIC>MOL_PROPERTY
Conf_Id
SciTegic.value.IntegerValue
90

@<SCITEGIC>MOL_PROPERTY
Delta U+W
SciTegic.value.DoubleValue
1.131

@<SCITEGIC>MOL_PROPERTY
U+W
SciTegic.value.DoubleValue
-7.251

@<SCITEGIC>MOL_PROPERTY
Grad RMS
SciTegic.value.DoubleValue
0.000000

@<SCITEGIC>MOL_PROPERTY
U
SciTegic.value.DoubleValue
48.641

@<SCITEGIC>MOL_PROPERTY
W
SciTegic.value.DoubleValue
-55.892

@<SCITEGIC>MOL_PROPERTY
W(PB)
SciTegic.value.DoubleValue
-57.962

@<SCITEGIC>MOL_PROPERTY
W(SA)
SciTegic.value.DoubleValue
2.070

@<SCITEGIC>MOL_PROPERTY
Valence
SciTegic.value.DoubleValue
2.922

@<SCITEGIC>MOL_PROPERTY
Coulomb
SciTegic.value.DoubleValue
45.269

@<SCITEGIC>MOL_PROPERTY
VdW
SciTegic.value.DoubleValue
0.450

@<SCITEGIC>MOL_PROPERTY
VdW6
SciTegic.value.DoubleValue
-7.045

@<SCITEGIC>MOL_PROPERTY
VdW12
SciTegic.value.DoubleValue
7.495

@<SCITEGIC>MOL_PROPERTY
Bond
SciTegic.value.DoubleValue
0.220

@<SCITEGIC>MOL_PROPERTY
Angle
SciTegic.value.DoubleValue
1.205

@<SCITEGIC>MOL_PROPERTY
Pdih
SciTegic.value.DoubleValue
1.497

@<SCITEGIC>MOL_PROPERTY
Idih
SciTegic.value.DoubleValue
0.000

@<SCITEGIC>MOL_PROPERTY
Tether
SciTegic.value.DoubleValue
0.000

@<TRIPOS>MOLECULE
guest-2_confgen4.mol2 : confsearch ligand conformer 798
          23          22           1
SMALL
USER_CHARGES
 
@<TRIPOS>ATOM
       1    N1      22.000226   20.156566   21.744641 N.4        1 MOL1        -0.5940
       2    H1      22.756294   19.950428   21.083037 H          1 MOL1         0.3649
       3    H2      21.950252   19.370317   22.399574 H          1 MOL1         0.3649
       4    H3      22.288670   20.980948   22.281082 H          1 MOL1         0.3649
       5    C1      20.677980   20.379659   21.037329 C.3        1 MOL1         0.0207
       6    H4      20.445153   19.479727   20.462323 H          1 MOL1         0.0950
       7    H5      20.811871   21.205968   20.333904 H          1 MOL1         0.0950
       8    C2      19.511348   20.704676   21.992432 C.3        1 MOL1        -0.1415
       9    H6      19.735231   21.635653   22.529970 H          1 MOL1         0.0976
      10    H7      18.612435   20.905562   21.394566 H          1 MOL1         0.0976
      11    C3      19.204233   19.582861   23.016050 C.3        1 MOL1        -0.1375
      12    H8      18.374562   19.911486   23.656958 H          1 MOL1         0.0976
      13    H9      20.067585   19.446331   23.679441 H          1 MOL1         0.0976
      14    C4      18.826605   18.237315   22.346440 C.3        1 MOL1        -0.1375
      15    H10     18.017534   18.411466   21.623707 H          1 MOL1         0.0976
      16    H11     19.677233   17.848337   21.771062 H          1 MOL1         0.0976
      17    C5      18.361262   17.159467   23.354950 C.3        1 MOL1        -0.1350
      18    H12     18.012759   16.280003   22.795553 H          1 MOL1         0.0976
      19    H13     17.493329   17.527955   23.919474 H          1 MOL1         0.0976
      20    C6      19.470800   16.718016   24.336369 C.3        1 MOL1        -0.2365
      21    H14     20.360560   16.369704   23.796051 H          1 MOL1         0.0987
      22    H15     19.118066   15.892730   24.968363 H          1 MOL1         0.0987
      23    H16     19.770257   17.537229   25.001670 H          1 MOL1         0.0987
@<TRIPOS>BOND
    1     1     2    1
    2     1     3    1
    3     1     4    1
    4     1     5    1
    5     5     6    1
    6     5     7    1
    7     5     8    1
    8     8     9    1
    9     8    10    1
   10     8    11    1
   11    11    12    1
   12    11    13    1
   13    11    14    1
   14    14    15    1
   15    14    16    1
   16    14    17    1
   17    17    18    1
   18    17    19    1
   19    17    20    1
   20    20    21    1
   21    20    22    1
   22    20    23    1
@<TRIPOS>SUBSTRUCTURE
       1 MOL1            1 RESIDUE      1      MOL     
@<SCITEGIC>MOL_PROPERTY
VConf Rank
SciTegic.value.IntegerValue
798

@<SCITEGIC>MOL_PROPERTY
Conf_Id
SciTegic.value.IntegerValue
85

@<SCITEGIC>MOL_PROPERTY
Delta U+W
SciTegic.value.DoubleValue
1.193

@<SCITEGIC>MOL_PROPERTY
U+W
SciTegic.value.DoubleValue
-7.189

@<SCITEGIC>MOL_PROPERTY
Grad RMS
SciTegic.value.DoubleValue
0.000000

@<SCITEGIC>MOL_PROPERTY
U
SciTegic.value.DoubleValue
48.775

@<SCITEGIC>MOL_PROPERTY
W
SciTegic.value.DoubleValue
-55.965

@<SCITEGIC>MOL_PROPERTY
W(PB)
SciTegic.value.DoubleValue
-58.038

@<SCITEGIC>MOL_PROPERTY
W(SA)
SciTegic.value.DoubleValue
2.073

@<SCITEGIC>MOL_PROPERTY
Valence
SciTegic.value.DoubleValue
2.602

@<SCITEGIC>MOL_PROPERTY
Coulomb
SciTegic.value.DoubleValue
45.581

@<SCITEGIC>MOL_PROPERTY
VdW
SciTegic.value.DoubleValue
0.592

@<SCITEGIC>MOL_PROPERTY
VdW6
SciTegic.value.DoubleValue
-6.616

@<SCITEGIC>MOL_PROPERTY
VdW12
SciTegic.value.DoubleValue
7.208

@<SCITEGIC>MOL_PROPERTY
Bond
SciTegic.value.DoubleValue
0.196

@<SCITEGIC>MOL_PROPERTY
Angle
SciTegic.value.DoubleValue
0.832

@<SCITEGIC>MOL_PROPERTY
Pdih
SciTegic.value.DoubleValue
1.574

@<SCITEGIC>MOL_PROPERTY
Idih
SciTegic.value.DoubleValue
0.000

@<SCITEGIC>MOL_PROPERTY
Tether
SciTegic.value.DoubleValue
0.000

@<TRIPOS>MOLECULE
guest-2_confgen4.mol2 : confsearch ligand conformer 799
          23          22           1
SMALL
USER_CHARGES
 
@<TRIPOS>ATOM
       1    N1      18.011143   18.046058   23.305541 N.4        1 MOL1        -0.5940
       2    H1      18.471768   18.956216   23.406078 H          1 MOL1         0.3649
       3    H2      17.754258   17.725918   24.245660 H          1 MOL1         0.3649
       4    H3      17.136598   18.200588   22.793382 H          1 MOL1         0.3649
       5    C1      18.907517   17.049181   22.596729 C.3        1 MOL1         0.0207
       6    H4      18.349605   16.111431   22.526946 H          1 MOL1         0.0950
       7    H5      19.792023   16.872376   23.214400 H          1 MOL1         0.0950
       8    C2      19.335698   17.486610   21.181090 C.3        1 MOL1        -0.1415
       9    H6      19.617808   16.583442   20.623828 H          1 MOL1         0.0976
      10    H7      18.474501   17.909781   20.647107 H          1 MOL1         0.0976
      11    C3      20.534995   18.470887   21.126341 C.3        1 MOL1        -0.1375
      12    H8      20.764361   18.650264   20.066756 H          1 MOL1         0.0976
      13    H9      21.431993   17.992650   21.543658 H          1 MOL1         0.0976
      14    C4      20.297235   19.844297   21.804923 C.3        1 MOL1        -0.1375
      15    H10     20.813705   20.617139   21.218651 H          1 MOL1         0.0976
      16    H11     19.231805   20.107105   21.765982 H          1 MOL1         0.0976
      17    C5      20.835933   19.909073   23.254995 C.3        1 MOL1        -0.1350
      18    H12     21.930366   19.808529   23.239463 H          1 MOL1         0.0976
      19    H13     20.464200   19.068428   23.852831 H          1 MOL1         0.0976
      20    C6      20.458813   21.237002   23.945075 C.3        1 MOL1        -0.2365
      21    H14     20.865251   22.095793   23.394935 H          1 MOL1         0.0987
      22    H15     20.861500   21.271201   24.965788 H          1 MOL1         0.0987
      23    H16     19.369729   21.357869   24.008733 H          1 MOL1         0.0987
@<TRIPOS>BOND
    1     1     2    1
    2     1     3    1
    3     1     4    1
    4     1     5    1
    5     5     6    1
    6     5     7    1
    7     5     8    1
    8     8     9    1
    9     8    10    1
   10     8    11    1
   11    11    12    1
   12    11    13    1
   13    11    14    1
   14    14    15    1
   15    14    16    1
   16    14    17    1
   17    17    18    1
   18    17    19    1
   19    17    20    1
   20    20    21    1
   21    20    22    1
   22    20    23    1
@<TRIPOS>SUBSTRUCTURE
       1 MOL1            1 RESIDUE      1      MOL     
@<SCITEGIC>MOL_PROPERTY
VConf Rank
SciTegic.value.IntegerValue
799

@<SCITEGIC>MOL_PROPERTY
Conf_Id
SciTegic.value.IntegerValue
82

@<SCITEGIC>MOL_PROPERTY
Delta U+W
SciTegic.value.DoubleValue
5.994

@<SCITEGIC>MOL_PROPERTY
U+W
SciTegic.value.DoubleValue
-2.388

@<SCITEGIC>MOL_PROPERTY
Grad RMS
SciTegic.value.DoubleValue
0.000000

@<SCITEGIC>MOL_PROPERTY
U
SciTegic.value.DoubleValue
52.836

@<SCITEGIC>MOL_PROPERTY
W
SciTegic.value.DoubleValue
-55.224

@<SCITEGIC>MOL_PROPERTY
W(PB)
SciTegic.value.DoubleValue
-57.261

@<SCITEGIC>MOL_PROPERTY
W(SA)
SciTegic.value.DoubleValue
2.037

@<SCITEGIC>MOL_PROPERTY
Valence
SciTegic.value.DoubleValue
5.785

@<SCITEGIC>MOL_PROPERTY
Coulomb
SciTegic.value.DoubleValue
46.744

@<SCITEGIC>MOL_PROPERTY
VdW
SciTegic.value.DoubleValue
0.307

@<SCITEGIC>MOL_PROPERTY
VdW6
SciTegic.value.DoubleValue
-7.672

@<SCITEGIC>MOL_PROPERTY
VdW12
SciTegic.value.DoubleValue
7.979

@<SCITEGIC>MOL_PROPERTY
Bond
SciTegic.value.DoubleValue
0.217

@<SCITEGIC>MOL_PROPERTY
Angle
SciTegic.value.DoubleValue
1.470

@<SCITEGIC>MOL_PROPERTY
Pdih
SciTegic.value.DoubleValue
4.098

@<SCITEGIC>MOL_PROPERTY
Idih
SciTegic.value.DoubleValue
0.000

@<SCITEGIC>MOL_PROPERTY
Tether
SciTegic.value.DoubleValue
0.000

@<TRIPOS>MOLECULE
guest-2_confgen4.mol2 : confsearch ligand conformer 800
          23          22           1
SMALL
USER_CHARGES
 
@<TRIPOS>ATOM
       1    N1      19.220115   17.086164   23.076512 N.4        1 MOL1        -0.5940
       2    H1      19.107406   16.403373   22.320133 H          1 MOL1         0.3649
       3    H2      19.267349   16.555724   23.953270 H          1 MOL1         0.3649
       4    H3      20.128425   17.542351   22.944074 H          1 MOL1         0.3649
       5    C1      18.091068   18.098437   23.091082 C.3        1 MOL1         0.0207
       6    H4      18.224294   18.759495   23.951537 H          1 MOL1         0.0950
       7    H5      17.162507   17.539027   23.233715 H          1 MOL1         0.0950
       8    C2      17.981623   18.934567   21.799717 C.3        1 MOL1        -0.1415
       9    H6      18.108914   18.283792   20.924410 H          1 MOL1         0.0976
      10    H7      16.955346   19.320285   21.737939 H          1 MOL1         0.0976
      11    C3      18.948935   20.145561   21.710746 C.3        1 MOL1        -0.1375
      12    H8      18.728668   20.861342   22.514866 H          1 MOL1         0.0976
      13    H9      18.724478   20.676992   20.775490 H          1 MOL1         0.0976
      14    C4      20.457934   19.790336   21.710432 C.3        1 MOL1        -0.1375
      15    H10     20.613006   18.794634   21.274249 H          1 MOL1         0.0976
      16    H11     20.980828   20.489757   21.043250 H          1 MOL1         0.0976
      17    C5      21.108800   19.894029   23.111404 C.3        1 MOL1        -0.1350
      18    H12     20.537574   19.326660   23.855769 H          1 MOL1         0.0976
      19    H13     21.084526   20.940960   23.445289 H          1 MOL1         0.0976
      20    C6      22.570772   19.399742   23.099433 C.3        1 MOL1        -0.2365
      21    H14     22.632529   18.345105   22.801618 H          1 MOL1         0.0987
      22    H15     23.020061   19.494781   24.096572 H          1 MOL1         0.0987
      23    H16     23.179282   19.987472   22.399678 H          1 MOL1         0.0987
@<TRIPOS>BOND
    1     1     2    1
    2     1     3    1
    3     1     4    1
    4     1     5    1
    5     5     6    1
    6     5     7    1
    7     5     8    1
    8     8     9    1
    9     8    10    1
   10     8    11    1
   11    11    12    1
   12    11    13    1
   13    11    14    1
   14    14    15    1
   15    14    16    1
   16    14    17    1
   17    17    18    1
   18    17    19    1
   19    17    20    1
   20    20    21    1
   21    20    22    1
   22    20    23    1
@<TRIPOS>SUBSTRUCTURE
       1 MOL1            1 RESIDUE      1      MOL     
@<SCITEGIC>MOL_PROPERTY
VConf Rank
SciTegic.value.IntegerValue
800

@<SCITEGIC>MOL_PROPERTY
Conf_Id
SciTegic.value.IntegerValue
5

@<SCITEGIC>MOL_PROPERTY
Delta U+W
SciTegic.value.DoubleValue
6.087

@<SCITEGIC>MOL_PROPERTY
U+W
SciTegic.value.DoubleValue
-2.295

@<SCITEGIC>MOL_PROPERTY
Grad RMS
SciTegic.value.DoubleValue
0.000000

@<SCITEGIC>MOL_PROPERTY
U
SciTegic.value.DoubleValue
52.836

@<SCITEGIC>MOL_PROPERTY
W
SciTegic.value.DoubleValue
-55.131

@<SCITEGIC>MOL_PROPERTY
W(PB)
SciTegic.value.DoubleValue
-57.202

@<SCITEGIC>MOL_PROPERTY
W(SA)
SciTegic.value.DoubleValue
2.071

@<SCITEGIC>MOL_PROPERTY
Valence
SciTegic.value.DoubleValue
5.785

@<SCITEGIC>MOL_PROPERTY
Coulomb
SciTegic.value.DoubleValue
46.744

@<SCITEGIC>MOL_PROPERTY
VdW
SciTegic.value.DoubleValue
0.307

@<SCITEGIC>MOL_PROPERTY
VdW6
SciTegic.value.DoubleValue
-7.672

@<SCITEGIC>MOL_PROPERTY
VdW12
SciTegic.value.DoubleValue
7.980

@<SCITEGIC>MOL_PROPERTY
Bond
SciTegic.value.DoubleValue
0.217

@<SCITEGIC>MOL_PROPERTY
Angle
SciTegic.value.DoubleValue
1.470

@<SCITEGIC>MOL_PROPERTY
Pdih
SciTegic.value.DoubleValue
4.098

@<SCITEGIC>MOL_PROPERTY
Idih
SciTegic.value.DoubleValue
0.000

@<SCITEGIC>MOL_PROPERTY
Tether
SciTegic.value.DoubleValue
0.000

@<TRIPOS>MOLECULE
guest-2_confgen4.mol2 : confsearch ligand conformer 801
          23          22           1
SMALL
USER_CHARGES
 
@<TRIPOS>ATOM
       1    N1      17.491240   16.755506   20.484629 N.4        1 MOL1        -0.5940
       2    H1      18.026618   16.836325   19.614157 H          1 MOL1         0.3649
       3    H2      16.504358   16.665195   20.220049 H          1 MOL1         0.3649
       4    H3      17.763516   15.870782   20.925099 H          1 MOL1         0.3649
       5    C1      17.721823   17.938850   21.402466 C.3        1 MOL1         0.0207
       6    H4      17.101159   17.801872   22.292134 H          1 MOL1         0.0950
       7    H5      17.383908   18.839695   20.883052 H          1 MOL1         0.0950
       8    C2      19.194525   18.102343   21.818395 C.3        1 MOL1        -0.1415
       9    H6      19.534207   17.189146   22.325137 H          1 MOL1         0.0976
      10    H7      19.815968   18.223198   20.921010 H          1 MOL1         0.0976
      11    C3      19.386838   19.317824   22.752100 C.3        1 MOL1        -0.1375
      12    H8      18.759473   19.195644   23.646129 H          1 MOL1         0.0976
      13    H9      19.040980   20.228584   22.243473 H          1 MOL1         0.0976
      14    C4      20.862947   19.491542   23.176277 C.3        1 MOL1        -0.1375
      15    H10     21.208875   18.581017   23.684992 H          1 MOL1         0.0976
      16    H11     21.490377   19.613739   22.282457 H          1 MOL1         0.0976
      17    C5      21.054942   20.707296   24.109999 C.3        1 MOL1        -0.1350
      18    H12     20.431036   20.588614   25.007011 H          1 MOL1         0.0976
      19    H13     20.712527   21.621239   23.604596 H          1 MOL1         0.0976
      20    C6      22.530043   20.877535   24.531429 C.3        1 MOL1        -0.2365
      21    H14     22.646342   21.745244   25.193699 H          1 MOL1         0.0987
      22    H15     23.175153   21.032571   23.656771 H          1 MOL1         0.0987
      23    H16     22.891473   19.991866   25.070120 H          1 MOL1         0.0987
@<TRIPOS>BOND
    1     1     2    1
    2     1     3    1
    3     1     4    1
    4     1     5    1
    5     5     6    1
    6     5     7    1
    7     5     8    1
    8     8     9    1
    9     8    10    1
   10     8    11    1
   11    11    12    1
   12    11    13    1
   13    11    14    1
   14    14    15    1
   15    14    16    1
   16    14    17    1
   17    17    18    1
   18    17    19    1
   19    17    20    1
   20    20    21    1
   21    20    22    1
   22    20    23    1
@<TRIPOS>SUBSTRUCTURE
       1 MOL1            1 RESIDUE      1      MOL     
@<SCITEGIC>MOL_PROPERTY
VConf Rank
SciTegic.value.IntegerValue
801

@<SCITEGIC>MOL_PROPERTY
Conf_Id
SciTegic.value.IntegerValue
40

@<SCITEGIC>MOL_PROPERTY
Delta U+W
SciTegic.value.DoubleValue
0.000

@<SCITEGIC>MOL_PROPERTY
U+W
SciTegic.value.DoubleValue
-8.382

@<SCITEGIC>MOL_PROPERTY
Grad RMS
SciTegic.value.DoubleValue
0.000000

@<SCITEGIC>MOL_PROPERTY
U
SciTegic.value.DoubleValue
46.604

@<SCITEGIC>MOL_PROPERTY
W
SciTegic.value.DoubleValue
-54.986

@<SCITEGIC>MOL_PROPERTY
W(PB)
SciTegic.value.DoubleValue
-57.162

@<SCITEGIC>MOL_PROPERTY
W(SA)
SciTegic.value.DoubleValue
2.176

@<SCITEGIC>MOL_PROPERTY
Valence
SciTegic.value.DoubleValue
1.727

@<SCITEGIC>MOL_PROPERTY
Coulomb
SciTegic.value.DoubleValue
44.434

@<SCITEGIC>MOL_PROPERTY
VdW
SciTegic.value.DoubleValue
0.443

@<SCITEGIC>MOL_PROPERTY
VdW6
SciTegic.value.DoubleValue
-4.623

@<SCITEGIC>MOL_PROPERTY
VdW12
SciTegic.value.DoubleValue
5.066

@<SCITEGIC>MOL_PROPERTY
Bond
SciTegic.value.DoubleValue
0.112

@<SCITEGIC>MOL_PROPERTY
Angle
SciTegic.value.DoubleValue
0.386

@<SCITEGIC>MOL_PROPERTY
Pdih
SciTegic.value.DoubleValue
1.228

@<SCITEGIC>MOL_PROPERTY
Idih
SciTegic.value.DoubleValue
0.000

@<SCITEGIC>MOL_PROPERTY
Tether
SciTegic.value.DoubleValue
0.000

@<TRIPOS>MOLECULE
guest-2_confgen4.mol2 : confsearch ligand conformer 802
          23          22           1
SMALL
USER_CHARGES
 
@<TRIPOS>ATOM
       1    N1      16.838182   19.178315   20.563977 N.4        1 MOL1        -0.5940
       2    H1      16.789407   18.360198   19.948230 H          1 MOL1         0.3649
       3    H2      17.132177   19.972886   19.986866 H          1 MOL1         0.3649
       4    H3      15.880737   19.374186   20.875366 H          1 MOL1         0.3649
       5    C1      17.775051   18.951132   21.732928 C.3        1 MOL1         0.0207
       6    H4      17.387625   18.112618   22.317912 H          1 MOL1         0.0950
       7    H5      17.752761   19.846908   22.358714 H          1 MOL1         0.0950
       8    C2      19.222402   18.653819   21.297140 C.3        1 MOL1        -0.1415
       9    H6      19.222823   17.780582   20.631254 H          1 MOL1         0.0976
      10    H7      19.612490   19.496260   20.710533 H          1 MOL1         0.0976
      11    C3      20.163541   18.372405   22.492416 C.3        1 MOL1        -0.1375
      12    H8      21.138143   18.059819   22.095674 H          1 MOL1         0.0976
      13    H9      19.775918   17.523028   23.071794 H          1 MOL1         0.0976
      14    C4      20.349714   19.598836   23.421813 C.3        1 MOL1        -0.1375
      15    H10     20.756915   20.441512   22.846220 H          1 MOL1         0.0976
      16    H11     19.371747   19.926089   23.798631 H          1 MOL1         0.0976
      17    C5      21.263688   19.316165   24.638889 C.3        1 MOL1        -0.1350
      18    H12     20.855417   18.480575   25.224469 H          1 MOL1         0.0976
      19    H13     21.247321   20.192413   25.302060 H          1 MOL1         0.0976
      20    C6      22.729541   19.013719   24.252634 C.3        1 MOL1        -0.2365
      21    H14     22.814352   18.074090   23.693026 H          1 MOL1         0.0987
      22    H15     23.351457   18.918075   25.152089 H          1 MOL1         0.0987
      23    H16     23.150587   19.820043   23.638164 H          1 MOL1         0.0987
@<TRIPOS>BOND
    1     1     2    1
    2     1     3    1
    3     1     4    1
    4     1     5    1
    5     5     6    1
    6     5     7    1
    7     5     8    1
    8     8     9    1
    9     8    10    1
   10     8    11    1
   11    11    12    1
   12    11    13    1
   13    11    14    1
   14    14    15    1
   15    14    16    1
   16    14    17    1
   17    17    18    1
   18    17    19    1
   19    17    20    1
   20    20    21    1
   21    20    22    1
   22    20    23    1
@<TRIPOS>SUBSTRUCTURE
       1 MOL1            1 RESIDUE      1      MOL     
@<SCITEGIC>MOL_PROPERTY
VConf Rank
SciTegic.value.IntegerValue
802

@<SCITEGIC>MOL_PROPERTY
Conf_Id
SciTegic.value.IntegerValue
65

@<SCITEGIC>MOL_PROPERTY
Delta U+W
SciTegic.value.DoubleValue
1.004

@<SCITEGIC>MOL_PROPERTY
U+W
SciTegic.value.DoubleValue
-7.378

@<SCITEGIC>MOL_PROPERTY
Grad RMS
SciTegic.value.DoubleValue
0.000000

@<SCITEGIC>MOL_PROPERTY
U
SciTegic.value.DoubleValue
48.047

@<SCITEGIC>MOL_PROPERTY
W
SciTegic.value.DoubleValue
-55.425

@<SCITEGIC>MOL_PROPERTY
W(PB)
SciTegic.value.DoubleValue
-57.542

@<SCITEGIC>MOL_PROPERTY
W(SA)
SciTegic.value.DoubleValue
2.116

@<SCITEGIC>MOL_PROPERTY
Valence
SciTegic.value.DoubleValue
2.583

@<SCITEGIC>MOL_PROPERTY
Coulomb
SciTegic.value.DoubleValue
44.791

@<SCITEGIC>MOL_PROPERTY
VdW
SciTegic.value.DoubleValue
0.673

@<SCITEGIC>MOL_PROPERTY
VdW6
SciTegic.value.DoubleValue
-5.788

@<SCITEGIC>MOL_PROPERTY
VdW12
SciTegic.value.DoubleValue
6.462

@<SCITEGIC>MOL_PROPERTY
Bond
SciTegic.value.DoubleValue
0.177

@<SCITEGIC>MOL_PROPERTY
Angle
SciTegic.value.DoubleValue
0.787

@<SCITEGIC>MOL_PROPERTY
Pdih
SciTegic.value.DoubleValue
1.619

@<SCITEGIC>MOL_PROPERTY
Idih
SciTegic.value.DoubleValue
0.000

@<SCITEGIC>MOL_PROPERTY
Tether
SciTegic.value.DoubleValue
0.000

@<TRIPOS>MOLECULE
guest-2_confgen4.mol2 : confsearch ligand conformer 803
          23          22           1
SMALL
USER_CHARGES
 
@<TRIPOS>ATOM
       1    N1      21.112043   21.518944   20.436255 N.4        1 MOL1        -0.5940
       2    H1      20.910102   22.455391   20.801119 H          1 MOL1         0.3649
       3    H2      21.006603   21.567269   19.417150 H          1 MOL1         0.3649
       4    H3      22.101595   21.328909   20.624692 H          1 MOL1         0.3649
       5    C1      20.208046   20.467251   21.046588 C.3        1 MOL1         0.0207
       6    H4      20.457844   19.505821   20.590768 H          1 MOL1         0.0950
       7    H5      19.176203   20.715350   20.783612 H          1 MOL1         0.0950
       8    C2      20.343370   20.370538   22.578080 C.3        1 MOL1        -0.1415
       9    H6      21.379349   20.120184   22.842760 H          1 MOL1         0.0976
      10    H7      20.136019   21.355137   23.017986 H          1 MOL1         0.0976
      11    C3      19.381690   19.331162   23.201365 C.3        1 MOL1        -0.1375
      12    H8      18.345458   19.589791   22.943094 H          1 MOL1         0.0976
      13    H9      19.457958   19.404907   24.293935 H          1 MOL1         0.0976
      14    C4      19.685263   17.877880   22.755956 C.3        1 MOL1        -0.1375
      15    H10     19.633004   17.810585   21.661312 H          1 MOL1         0.0976
      16    H11     20.714897   17.612814   23.033109 H          1 MOL1         0.0976
      17    C5      18.706900   16.834914   23.348868 C.3        1 MOL1        -0.1350
      18    H12     18.917472   15.856803   22.894082 H          1 MOL1         0.0976
      19    H13     17.675848   17.089216   23.065915 H          1 MOL1         0.0976
      20    C6      18.806461   16.699266   24.885447 C.3        1 MOL1        -0.2365
      21    H14     18.482853   17.615817   25.393846 H          1 MOL1         0.0987
      22    H15     19.835545   16.477515   25.196611 H          1 MOL1         0.0987
      23    H16     18.165367   15.882190   25.240876 H          1 MOL1         0.0987
@<TRIPOS>BOND
    1     1     2    1
    2     1     3    1
    3     1     4    1
    4     1     5    1
    5     5     6    1
    6     5     7    1
    7     5     8    1
    8     8     9    1
    9     8    10    1
   10     8    11    1
   11    11    12    1
   12    11    13    1
   13    11    14    1
   14    14    15    1
   15    14    16    1
   16    14    17    1
   17    17    18    1
   18    17    19    1
   19    17    20    1
   20    20    21    1
   21    20    22    1
   22    20    23    1
@<TRIPOS>SUBSTRUCTURE
       1 MOL1            1 RESIDUE      1      MOL     
@<SCITEGIC>MOL_PROPERTY
VConf Rank
SciTegic.value.IntegerValue
803

@<SCITEGIC>MOL_PROPERTY
Conf_Id
SciTegic.value.IntegerValue
92

@<SCITEGIC>MOL_PROPERTY
Delta U+W
SciTegic.value.DoubleValue
0.973

@<SCITEGIC>MOL_PROPERTY
U+W
SciTegic.value.DoubleValue
-7.409

@<SCITEGIC>MOL_PROPERTY
Grad RMS
SciTegic.value.DoubleValue
0.000000

@<SCITEGIC>MOL_PROPERTY
U
SciTegic.value.DoubleValue
48.047

@<SCITEGIC>MOL_PROPERTY
W
SciTegic.value.DoubleValue
-55.456

@<SCITEGIC>MOL_PROPERTY
W(PB)
SciTegic.value.DoubleValue
-57.595

@<SCITEGIC>MOL_PROPERTY
W(SA)
SciTegic.value.DoubleValue
2.138

@<SCITEGIC>MOL_PROPERTY
Valence
SciTegic.value.DoubleValue
2.583

@<SCITEGIC>MOL_PROPERTY
Coulomb
SciTegic.value.DoubleValue
44.791

@<SCITEGIC>MOL_PROPERTY
VdW
SciTegic.value.DoubleValue
0.674

@<SCITEGIC>MOL_PROPERTY
VdW6
SciTegic.value.DoubleValue
-5.789

@<SCITEGIC>MOL_PROPERTY
VdW12
SciTegic.value.DoubleValue
6.462

@<SCITEGIC>MOL_PROPERTY
Bond
SciTegic.value.DoubleValue
0.177

@<SCITEGIC>MOL_PROPERTY
Angle
SciTegic.value.DoubleValue
0.787

@<SCITEGIC>MOL_PROPERTY
Pdih
SciTegic.value.DoubleValue
1.619

@<SCITEGIC>MOL_PROPERTY
Idih
SciTegic.value.DoubleValue
0.000

@<SCITEGIC>MOL_PROPERTY
Tether
SciTegic.value.DoubleValue
0.000

@<TRIPOS>MOLECULE
guest-2_confgen4.mol2 : confsearch ligand conformer 804
          23          22           1
SMALL
USER_CHARGES
 
@<TRIPOS>ATOM
       1    N1      16.507784   19.985419   21.613329 N.4        1 MOL1        -0.5940
       2    H1      16.335094   20.379349   20.682184 H          1 MOL1         0.3649
       3    H2      15.988461   20.563384   22.281993 H          1 MOL1         0.3649
       4    H3      16.081695   19.053150   21.626089 H          1 MOL1         0.3649
       5    C1      17.986887   19.935721   21.938227 C.3        1 MOL1         0.0207
       6    H4      18.380025   20.954202   21.878574 H          1 MOL1         0.0950
       7    H5      18.478331   19.331542   21.171322 H          1 MOL1         0.0950
       8    C2      18.279176   19.348385   23.331949 C.3        1 MOL1        -0.1415
       9    H6      17.744051   19.937338   24.088734 H          1 MOL1         0.0976
      10    H7      17.883539   18.325716   23.392064 H          1 MOL1         0.0976
      11    C3      19.787720   19.343243   23.674442 C.3        1 MOL1        -0.1375
      12    H8      19.912276   19.000694   24.711070 H          1 MOL1         0.0976
      13    H9      20.175039   20.371029   23.638537 H          1 MOL1         0.0976
      14    C4      20.621292   18.437816   22.735921 C.3        1 MOL1        -0.1375
      15    H10     20.210842   17.418612   22.748967 H          1 MOL1         0.0976
      16    H11     20.545423   18.798273   21.701333 H          1 MOL1         0.0976
      17    C5      22.109146   18.397739   23.149996 C.3        1 MOL1        -0.1350
      18    H12     22.197857   18.030106   24.181953 H          1 MOL1         0.0976
      19    H13     22.524738   19.415161   23.139307 H          1 MOL1         0.0976
      20    C6      22.939758   17.495601   22.212556 C.3        1 MOL1        -0.2365
      21    H14     22.568433   16.462587   22.227643 H          1 MOL1         0.0987
      22    H15     23.992659   17.479541   22.522696 H          1 MOL1         0.0987
      23    H16     22.899174   17.858419   21.177212 H          1 MOL1         0.0987
@<TRIPOS>BOND
    1     1     2    1
    2     1     3    1
    3     1     4    1
    4     1     5    1
    5     5     6    1
    6     5     7    1
    7     5     8    1
    8     8     9    1
    9     8    10    1
   10     8    11    1
   11    11    12    1
   12    11    13    1
   13    11    14    1
   14    14    15    1
   15    14    16    1
   16    14    17    1
   17    17    18    1
   18    17    19    1
   19    17    20    1
   20    20    21    1
   21    20    22    1
   22    20    23    1
@<TRIPOS>SUBSTRUCTURE
       1 MOL1            1 RESIDUE      1      MOL     
@<SCITEGIC>MOL_PROPERTY
VConf Rank
SciTegic.value.IntegerValue
804

@<SCITEGIC>MOL_PROPERTY
Conf_Id
SciTegic.value.IntegerValue
42

@<SCITEGIC>MOL_PROPERTY
Delta U+W
SciTegic.value.DoubleValue
0.365

@<SCITEGIC>MOL_PROPERTY
U+W
SciTegic.value.DoubleValue
-8.017

@<SCITEGIC>MOL_PROPERTY
Grad RMS
SciTegic.value.DoubleValue
0.000000

@<SCITEGIC>MOL_PROPERTY
U
SciTegic.value.DoubleValue
47.375

@<SCITEGIC>MOL_PROPERTY
W
SciTegic.value.DoubleValue
-55.392

@<SCITEGIC>MOL_PROPERTY
W(PB)
SciTegic.value.DoubleValue
-57.543

@<SCITEGIC>MOL_PROPERTY
W(SA)
SciTegic.value.DoubleValue
2.152

@<SCITEGIC>MOL_PROPERTY
Valence
SciTegic.value.DoubleValue
2.032

@<SCITEGIC>MOL_PROPERTY
Coulomb
SciTegic.value.DoubleValue
44.843

@<SCITEGIC>MOL_PROPERTY
VdW
SciTegic.value.DoubleValue
0.499

@<SCITEGIC>MOL_PROPERTY
VdW6
SciTegic.value.DoubleValue
-5.218

@<SCITEGIC>MOL_PROPERTY
VdW12
SciTegic.value.DoubleValue
5.717

@<SCITEGIC>MOL_PROPERTY
Bond
SciTegic.value.DoubleValue
0.135

@<SCITEGIC>MOL_PROPERTY
Angle
SciTegic.value.DoubleValue
0.514

@<SCITEGIC>MOL_PROPERTY
Pdih
SciTegic.value.DoubleValue
1.383

@<SCITEGIC>MOL_PROPERTY
Idih
SciTegic.value.DoubleValue
0.000

@<SCITEGIC>MOL_PROPERTY
Tether
SciTegic.value.DoubleValue
0.000

@<TRIPOS>MOLECULE
guest-2_confgen4.mol2 : confsearch ligand conformer 805
          23          22           1
SMALL
USER_CHARGES
 
@<TRIPOS>ATOM
       1    N1      17.733786   17.750308   20.505155 N.4        1 MOL1        -0.5940
       2    H1      16.918491   18.201136   20.932567 H          1 MOL1         0.3649
       3    H2      17.378228   17.006713   19.894751 H          1 MOL1         0.3649
       4    H3      18.181569   18.445159   19.900114 H          1 MOL1         0.3649
       5    C1      18.691834   17.210831   21.549517 C.3        1 MOL1         0.0207
       6    H4      19.522219   16.724423   21.030586 H          1 MOL1         0.0950
       7    H5      18.157912   16.449889   22.125247 H          1 MOL1         0.0950
       8    C2      19.237913   18.285778   22.509475 C.3        1 MOL1        -0.1415
       9    H6      18.401067   18.791677   23.008878 H          1 MOL1         0.0976
      10    H7      19.815619   17.775610   23.289925 H          1 MOL1         0.0976
      11    C3      20.139826   19.322562   21.796426 C.3        1 MOL1        -0.1375
      12    H8      19.595280   19.758756   20.948761 H          1 MOL1         0.0976
      13    H9      21.013088   18.811421   21.367994 H          1 MOL1         0.0976
      14    C4      20.618375   20.485325   22.704187 C.3        1 MOL1        -0.1375
      15    H10     21.207117   21.170995   22.079104 H          1 MOL1         0.0976
      16    H11     19.756768   21.070975   23.053288 H          1 MOL1         0.0976
      17    C5      21.497452   20.055259   23.906978 C.3        1 MOL1        -0.1350
      18    H12     22.263569   20.825478   24.073709 H          1 MOL1         0.0976
      19    H13     22.044647   19.132178   23.670127 H          1 MOL1         0.0976
      20    C6      20.699294   19.885910   25.220951 C.3        1 MOL1        -0.2365
      21    H14     20.210062   20.826457   25.505700 H          1 MOL1         0.0987
      22    H15     21.368277   19.597414   26.042016 H          1 MOL1         0.0987
      23    H16     19.924863   19.115566   25.137605 H          1 MOL1         0.0987
@<TRIPOS>BOND
    1     1     2    1
    2     1     3    1
    3     1     4    1
    4     1     5    1
    5     5     6    1
    6     5     7    1
    7     5     8    1
    8     8     9    1
    9     8    10    1
   10     8    11    1
   11    11    12    1
   12    11    13    1
   13    11    14    1
   14    14    15    1
   15    14    16    1
   16    14    17    1
   17    17    18    1
   18    17    19    1
   19    17    20    1
   20    20    21    1
   21    20    22    1
   22    20    23    1
@<TRIPOS>SUBSTRUCTURE
       1 MOL1            1 RESIDUE      1      MOL     
@<SCITEGIC>MOL_PROPERTY
VConf Rank
SciTegic.value.IntegerValue
805

@<SCITEGIC>MOL_PROPERTY
Conf_Id
SciTegic.value.IntegerValue
3

@<SCITEGIC>MOL_PROPERTY
Delta U+W
SciTegic.value.DoubleValue
3.283

@<SCITEGIC>MOL_PROPERTY
U+W
SciTegic.value.DoubleValue
-5.099

@<SCITEGIC>MOL_PROPERTY
Grad RMS
SciTegic.value.DoubleValue
0.000000

@<SCITEGIC>MOL_PROPERTY
U
SciTegic.value.DoubleValue
50.701

@<SCITEGIC>MOL_PROPERTY
W
SciTegic.value.DoubleValue
-55.800

@<SCITEGIC>MOL_PROPERTY
W(PB)
SciTegic.value.DoubleValue
-57.867

@<SCITEGIC>MOL_PROPERTY
W(SA)
SciTegic.value.DoubleValue
2.067

@<SCITEGIC>MOL_PROPERTY
Valence
SciTegic.value.DoubleValue
4.880

@<SCITEGIC>MOL_PROPERTY
Coulomb
SciTegic.value.DoubleValue
45.095

@<SCITEGIC>MOL_PROPERTY
VdW
SciTegic.value.DoubleValue
0.726

@<SCITEGIC>MOL_PROPERTY
VdW6
SciTegic.value.DoubleValue
-6.620

@<SCITEGIC>MOL_PROPERTY
VdW12
SciTegic.value.DoubleValue
7.346

@<SCITEGIC>MOL_PROPERTY
Bond
SciTegic.value.DoubleValue
0.222

@<SCITEGIC>MOL_PROPERTY
Angle
SciTegic.value.DoubleValue
1.260

@<SCITEGIC>MOL_PROPERTY
Pdih
SciTegic.value.DoubleValue
3.398

@<SCITEGIC>MOL_PROPERTY
Idih
SciTegic.value.DoubleValue
0.000

@<SCITEGIC>MOL_PROPERTY
Tether
SciTegic.value.DoubleValue
0.000

@<TRIPOS>MOLECULE
guest-2_confgen4.mol2 : confsearch ligand conformer 806
          23          22           1
SMALL
USER_CHARGES
 
@<TRIPOS>ATOM
       1    N1      22.463090   18.032569   23.116311 N.4        1 MOL1        -0.5940
       2    H1      23.196045   18.747312   23.066586 H          1 MOL1         0.3649
       3    H2      22.918537   17.155364   23.390017 H          1 MOL1         0.3649
       4    H3      21.833777   18.296085   23.880591 H          1 MOL1         0.3649
       5    C1      21.720180   17.895526   21.801930 C.3        1 MOL1         0.0207
       6    H4      20.978214   17.100760   21.912938 H          1 MOL1         0.0950
       7    H5      22.441860   17.580696   21.043255 H          1 MOL1         0.0950
       8    C2      21.029361   19.195577   21.341592 C.3        1 MOL1        -0.1415
       9    H6      21.792167   19.969715   21.184612 H          1 MOL1         0.0976
      10    H7      20.566022   19.020324   20.361560 H          1 MOL1         0.0976
      11    C3      19.956638   19.727455   22.325471 C.3        1 MOL1        -0.1375
      12    H8      19.562985   20.669390   21.922147 H          1 MOL1         0.0976
      13    H9      20.422914   19.978211   23.287478 H          1 MOL1         0.0976
      14    C4      18.789550   18.732854   22.551533 C.3        1 MOL1        -0.1375
      15    H10     18.306530   18.504489   21.591476 H          1 MOL1         0.0976
      16    H11     19.184986   17.781984   22.932101 H          1 MOL1         0.0976
      17    C5      17.727685   19.246724   23.553942 C.3        1 MOL1        -0.1350
      18    H12     18.203380   19.466569   24.519917 H          1 MOL1         0.0976
      19    H13     17.004881   18.441000   23.744275 H          1 MOL1         0.0976
      20    C6      16.961146   20.493177   23.055827 C.3        1 MOL1        -0.2365
      21    H14     16.503674   20.309738   22.074972 H          1 MOL1         0.0987
      22    H15     17.620432   21.365716   22.970594 H          1 MOL1         0.0987
      23    H16     16.157904   20.755132   23.756624 H          1 MOL1         0.0987
@<TRIPOS>BOND
    1     1     2    1
    2     1     3    1
    3     1     4    1
    4     1     5    1
    5     5     6    1
    6     5     7    1
    7     5     8    1
    8     8     9    1
    9     8    10    1
   10     8    11    1
   11    11    12    1
   12    11    13    1
   13    11    14    1
   14    14    15    1
   15    14    16    1
   16    14    17    1
   17    17    18    1
   18    17    19    1
   19    17    20    1
   20    20    21    1
   21    20    22    1
   22    20    23    1
@<TRIPOS>SUBSTRUCTURE
       1 MOL1            1 RESIDUE      1      MOL     
@<SCITEGIC>MOL_PROPERTY
VConf Rank
SciTegic.value.IntegerValue
806

@<SCITEGIC>MOL_PROPERTY
Conf_Id
SciTegic.value.IntegerValue
83

@<SCITEGIC>MOL_PROPERTY
Delta U+W
SciTegic.value.DoubleValue
1.229

@<SCITEGIC>MOL_PROPERTY
U+W
SciTegic.value.DoubleValue
-7.154

@<SCITEGIC>MOL_PROPERTY
Grad RMS
SciTegic.value.DoubleValue
0.000000

@<SCITEGIC>MOL_PROPERTY
U
SciTegic.value.DoubleValue
48.727

@<SCITEGIC>MOL_PROPERTY
W
SciTegic.value.DoubleValue
-55.880

@<SCITEGIC>MOL_PROPERTY
W(PB)
SciTegic.value.DoubleValue
-57.960

@<SCITEGIC>MOL_PROPERTY
W(SA)
SciTegic.value.DoubleValue
2.080

@<SCITEGIC>MOL_PROPERTY
Valence
SciTegic.value.DoubleValue
2.671

@<SCITEGIC>MOL_PROPERTY
Coulomb
SciTegic.value.DoubleValue
45.371

@<SCITEGIC>MOL_PROPERTY
VdW
SciTegic.value.DoubleValue
0.684

@<SCITEGIC>MOL_PROPERTY
VdW6
SciTegic.value.DoubleValue
-6.511

@<SCITEGIC>MOL_PROPERTY
VdW12
SciTegic.value.DoubleValue
7.195

@<SCITEGIC>MOL_PROPERTY
Bond
SciTegic.value.DoubleValue
0.203

@<SCITEGIC>MOL_PROPERTY
Angle
SciTegic.value.DoubleValue
0.915

@<SCITEGIC>MOL_PROPERTY
Pdih
SciTegic.value.DoubleValue
1.554

@<SCITEGIC>MOL_PROPERTY
Idih
SciTegic.value.DoubleValue
0.000

@<SCITEGIC>MOL_PROPERTY
Tether
SciTegic.value.DoubleValue
0.000

@<TRIPOS>MOLECULE
guest-2_confgen4.mol2 : confsearch ligand conformer 807
          23          22           1
SMALL
USER_CHARGES
 
@<TRIPOS>ATOM
       1    N1      22.345797   18.561176   21.432059 N.4        1 MOL1        -0.5940
       2    H1      22.827357   17.749033   21.830904 H          1 MOL1         0.3649
       3    H2      22.210702   19.236428   22.190601 H          1 MOL1         0.3649
       4    H3      22.989486   18.989726   20.758380 H          1 MOL1         0.3649
       5    C1      21.029802   18.174389   20.786420 C.3        1 MOL1         0.0207
       6    H4      21.251057   17.483242   19.968565 H          1 MOL1         0.0950
       7    H5      20.585189   19.075451   20.356424 H          1 MOL1         0.0950
       8    C2      20.032732   17.512142   21.759332 C.3        1 MOL1        -0.1415
       9    H6      19.135976   17.217442   21.198226 H          1 MOL1         0.0976
      10    H7      20.471999   16.581897   22.143381 H          1 MOL1         0.0976
      11    C3      19.616509   18.410755   22.951348 C.3        1 MOL1        -0.1375
      12    H8      20.495651   18.650103   23.564186 H          1 MOL1         0.0976
      13    H9      18.943873   17.830161   23.595822 H          1 MOL1         0.0976
      14    C4      18.911344   19.719193   22.511847 C.3        1 MOL1        -0.1375
      15    H10     19.574128   20.289090   21.847552 H          1 MOL1         0.0976
      16    H11     18.016404   19.477359   21.922128 H          1 MOL1         0.0976
      17    C5      18.516804   20.634204   23.696557 C.3        1 MOL1        -0.1350
      18    H12     18.133305   21.582880   23.295553 H          1 MOL1         0.0976
      19    H13     19.410083   20.888316   24.284099 H          1 MOL1         0.0976
      20    C6      17.443547   20.017017   24.622052 C.3        1 MOL1        -0.2365
      21    H14     16.552183   19.723641   24.052484 H          1 MOL1         0.0987
      22    H15     17.130674   20.742603   25.384004 H          1 MOL1         0.0987
      23    H16     17.823335   19.132067   25.147283 H          1 MOL1         0.0987
@<TRIPOS>BOND
    1     1     2    1
    2     1     3    1
    3     1     4    1
    4     1     5    1
    5     5     6    1
    6     5     7    1
    7     5     8    1
    8     8     9    1
    9     8    10    1
   10     8    11    1
   11    11    12    1
   12    11    13    1
   13    11    14    1
   14    14    15    1
   15    14    16    1
   16    14    17    1
   17    17    18    1
   18    17    19    1
   19    17    20    1
   20    20    21    1
   21    20    22    1
   22    20    23    1
@<TRIPOS>SUBSTRUCTURE
       1 MOL1            1 RESIDUE      1      MOL     
@<SCITEGIC>MOL_PROPERTY
VConf Rank
SciTegic.value.IntegerValue
807

@<SCITEGIC>MOL_PROPERTY
Conf_Id
SciTegic.value.IntegerValue
50

@<SCITEGIC>MOL_PROPERTY
Delta U+W
SciTegic.value.DoubleValue
1.252

@<SCITEGIC>MOL_PROPERTY
U+W
SciTegic.value.DoubleValue
-7.130

@<SCITEGIC>MOL_PROPERTY
Grad RMS
SciTegic.value.DoubleValue
0.000000

@<SCITEGIC>MOL_PROPERTY
U
SciTegic.value.DoubleValue
48.727

@<SCITEGIC>MOL_PROPERTY
W
SciTegic.value.DoubleValue
-55.857

@<SCITEGIC>MOL_PROPERTY
W(PB)
SciTegic.value.DoubleValue
-57.937

@<SCITEGIC>MOL_PROPERTY
W(SA)
SciTegic.value.DoubleValue
2.080

@<SCITEGIC>MOL_PROPERTY
Valence
SciTegic.value.DoubleValue
2.671

@<SCITEGIC>MOL_PROPERTY
Coulomb
SciTegic.value.DoubleValue
45.371

@<SCITEGIC>MOL_PROPERTY
VdW
SciTegic.value.DoubleValue
0.684

@<SCITEGIC>MOL_PROPERTY
VdW6
SciTegic.value.DoubleValue
-6.511

@<SCITEGIC>MOL_PROPERTY
VdW12
SciTegic.value.DoubleValue
7.196

@<SCITEGIC>MOL_PROPERTY
Bond
SciTegic.value.DoubleValue
0.203

@<SCITEGIC>MOL_PROPERTY
Angle
SciTegic.value.DoubleValue
0.915

@<SCITEGIC>MOL_PROPERTY
Pdih
SciTegic.value.DoubleValue
1.554

@<SCITEGIC>MOL_PROPERTY
Idih
SciTegic.value.DoubleValue
0.000

@<SCITEGIC>MOL_PROPERTY
Tether
SciTegic.value.DoubleValue
0.000

@<TRIPOS>MOLECULE
guest-2_confgen4.mol2 : confsearch ligand conformer 808
          23          22           1
SMALL
USER_CHARGES
 
@<TRIPOS>ATOM
       1    N1      17.882026   19.401290   20.113900 N.4        1 MOL1        -0.5940
       2    H1      18.369290   18.525223   19.902677 H          1 MOL1         0.3649
       3    H2      17.720255   19.877135   19.219847 H          1 MOL1         0.3649
       4    H3      16.961784   19.153135   20.490992 H          1 MOL1         0.3649
       5    C1      18.671478   20.266369   21.077042 C.3        1 MOL1         0.0207
       6    H4      18.113036   21.195183   21.222028 H          1 MOL1         0.0950
       7    H5      19.626826   20.513544   20.606268 H          1 MOL1         0.0950
       8    C2      18.924042   19.603717   22.445202 C.3        1 MOL1        -0.1415
       9    H6      19.399489   20.341803   23.100826 H          1 MOL1         0.0976
      10    H7      17.962090   19.352770   22.911510 H          1 MOL1         0.0976
      11    C3      19.805337   18.332950   22.339626 C.3        1 MOL1        -0.1375
      12    H8      20.730461   18.553628   21.789352 H          1 MOL1         0.0976
      13    H9      19.267377   17.584088   21.743142 H          1 MOL1         0.0976
      14    C4      20.143298   17.702538   23.716023 C.3        1 MOL1        -0.1375
      15    H10     19.340529   17.908039   24.437498 H          1 MOL1         0.0976
      16    H11     20.161096   16.610274   23.597133 H          1 MOL1         0.0976
      17    C5      21.512195   18.128798   24.305624 C.3        1 MOL1        -0.1350
      18    H12     22.317802   17.826911   23.621785 H          1 MOL1         0.0976
      19    H13     21.679478   17.570304   25.237244 H          1 MOL1         0.0976
      20    C6      21.634187   19.638859   24.605398 C.3        1 MOL1        -0.2365
      21    H14     20.808546   19.984783   25.240606 H          1 MOL1         0.0987
      22    H15     21.636737   20.229850   23.681279 H          1 MOL1         0.0987
      23    H16     22.573879   19.850457   25.131795 H          1 MOL1         0.0987
@<TRIPOS>BOND
    1     1     2    1
    2     1     3    1
    3     1     4    1
    4     1     5    1
    5     5     6    1
    6     5     7    1
    7     5     8    1
    8     8     9    1
    9     8    10    1
   10     8    11    1
   11    11    12    1
   12    11    13    1
   13    11    14    1
   14    14    15    1
   15    14    16    1
   16    14    17    1
   17    17    18    1
   18    17    19    1
   19    17    20    1
   20    20    21    1
   21    20    22    1
   22    20    23    1
@<TRIPOS>SUBSTRUCTURE
       1 MOL1            1 RESIDUE      1      MOL     
@<SCITEGIC>MOL_PROPERTY
VConf Rank
SciTegic.value.IntegerValue
808

@<SCITEGIC>MOL_PROPERTY
Conf_Id
SciTegic.value.IntegerValue
55

@<SCITEGIC>MOL_PROPERTY
Delta U+W
SciTegic.value.DoubleValue
3.232

@<SCITEGIC>MOL_PROPERTY
U+W
SciTegic.value.DoubleValue
-5.150

@<SCITEGIC>MOL_PROPERTY
Grad RMS
SciTegic.value.DoubleValue
0.000000

@<SCITEGIC>MOL_PROPERTY
U
SciTegic.value.DoubleValue
50.625

@<SCITEGIC>MOL_PROPERTY
W
SciTegic.value.DoubleValue
-55.776

@<SCITEGIC>MOL_PROPERTY
W(PB)
SciTegic.value.DoubleValue
-57.839

@<SCITEGIC>MOL_PROPERTY
W(SA)
SciTegic.value.DoubleValue
2.064

@<SCITEGIC>MOL_PROPERTY
Valence
SciTegic.value.DoubleValue
4.837

@<SCITEGIC>MOL_PROPERTY
Coulomb
SciTegic.value.DoubleValue
45.097

@<SCITEGIC>MOL_PROPERTY
VdW
SciTegic.value.DoubleValue
0.692

@<SCITEGIC>MOL_PROPERTY
VdW6
SciTegic.value.DoubleValue
-6.655

@<SCITEGIC>MOL_PROPERTY
VdW12
SciTegic.value.DoubleValue
7.347

@<SCITEGIC>MOL_PROPERTY
Bond
SciTegic.value.DoubleValue
0.223

@<SCITEGIC>MOL_PROPERTY
Angle
SciTegic.value.DoubleValue
1.167

@<SCITEGIC>MOL_PROPERTY
Pdih
SciTegic.value.DoubleValue
3.447

@<SCITEGIC>MOL_PROPERTY
Idih
SciTegic.value.DoubleValue
0.000

@<SCITEGIC>MOL_PROPERTY
Tether
SciTegic.value.DoubleValue
0.000

@<TRIPOS>MOLECULE
guest-2_confgen4.mol2 : confsearch ligand conformer 809
          23          22           1
SMALL
USER_CHARGES
 
@<TRIPOS>ATOM
       1    N1      17.145928   18.561920   24.128974 N.4        1 MOL1        -0.5940
       2    H1      16.890627   19.102575   24.961646 H          1 MOL1         0.3649
       3    H2      16.776420   17.614742   24.264311 H          1 MOL1         0.3649
       4    H3      16.638039   18.969817   23.337504 H          1 MOL1         0.3649
       5    C1      18.643213   18.554620   23.897170 C.3        1 MOL1         0.0207
       6    H4      18.841909   17.934153   23.021453 H          1 MOL1         0.0950
       7    H5      19.114946   18.082532   24.763196 H          1 MOL1         0.0950
       8    C2      19.228721   19.966352   23.697223 C.3        1 MOL1        -0.1415
       9    H6      18.731265   20.471220   22.858468 H          1 MOL1         0.0976
      10    H7      19.002351   20.558730   24.593807 H          1 MOL1         0.0976
      11    C3      20.763519   19.963591   23.483092 C.3        1 MOL1        -0.1375
      12    H8      21.230598   19.196866   24.116789 H          1 MOL1         0.0976
      13    H9      21.159681   20.924656   23.839332 H          1 MOL1         0.0976
      14    C4      21.218516   19.788010   22.010807 C.3        1 MOL1        -0.1375
      15    H10     20.830697   20.619540   21.406285 H          1 MOL1         0.0976
      16    H11     22.313531   19.873962   21.979265 H          1 MOL1         0.0976
      17    C5      20.803092   18.446612   21.363833 C.3        1 MOL1        -0.1350
      18    H12     19.712560   18.411276   21.243809 H          1 MOL1         0.0976
      19    H13     21.086672   17.611509   22.019473 H          1 MOL1         0.0976
      20    C6      21.458067   18.255524   19.979212 C.3        1 MOL1        -0.2365
      21    H14     22.553030   18.245050   20.057694 H          1 MOL1         0.0987
      22    H15     21.172133   19.063109   19.292701 H          1 MOL1         0.0987
      23    H16     21.144124   17.304422   19.529906 H          1 MOL1         0.0987
@<TRIPOS>BOND
    1     1     2    1
    2     1     3    1
    3     1     4    1
    4     1     5    1
    5     5     6    1
    6     5     7    1
    7     5     8    1
    8     8     9    1
    9     8    10    1
   10     8    11    1
   11    11    12    1
   12    11    13    1
   13    11    14    1
   14    14    15    1
   15    14    16    1
   16    14    17    1
   17    17    18    1
   18    17    19    1
   19    17    20    1
   20    20    21    1
   21    20    22    1
   22    20    23    1
@<TRIPOS>SUBSTRUCTURE
       1 MOL1            1 RESIDUE      1      MOL     
@<SCITEGIC>MOL_PROPERTY
VConf Rank
SciTegic.value.IntegerValue
809

@<SCITEGIC>MOL_PROPERTY
Conf_Id
SciTegic.value.IntegerValue
93

@<SCITEGIC>MOL_PROPERTY
Delta U+W
SciTegic.value.DoubleValue
2.589

@<SCITEGIC>MOL_PROPERTY
U+W
SciTegic.value.DoubleValue
-5.793

@<SCITEGIC>MOL_PROPERTY
Grad RMS
SciTegic.value.DoubleValue
0.000000

@<SCITEGIC>MOL_PROPERTY
U
SciTegic.value.DoubleValue
50.122

@<SCITEGIC>MOL_PROPERTY
W
SciTegic.value.DoubleValue
-55.915

@<SCITEGIC>MOL_PROPERTY
W(PB)
SciTegic.value.DoubleValue
-58.031

@<SCITEGIC>MOL_PROPERTY
W(SA)
SciTegic.value.DoubleValue
2.115

@<SCITEGIC>MOL_PROPERTY
Valence
SciTegic.value.DoubleValue
4.132

@<SCITEGIC>MOL_PROPERTY
Coulomb
SciTegic.value.DoubleValue
45.536

@<SCITEGIC>MOL_PROPERTY
VdW
SciTegic.value.DoubleValue
0.454

@<SCITEGIC>MOL_PROPERTY
VdW6
SciTegic.value.DoubleValue
-6.262

@<SCITEGIC>MOL_PROPERTY
VdW12
SciTegic.value.DoubleValue
6.715

@<SCITEGIC>MOL_PROPERTY
Bond
SciTegic.value.DoubleValue
0.182

@<SCITEGIC>MOL_PROPERTY
Angle
SciTegic.value.DoubleValue
1.157

@<SCITEGIC>MOL_PROPERTY
Pdih
SciTegic.value.DoubleValue
2.794

@<SCITEGIC>MOL_PROPERTY
Idih
SciTegic.value.DoubleValue
0.000

@<SCITEGIC>MOL_PROPERTY
Tether
SciTegic.value.DoubleValue
0.000

@<TRIPOS>MOLECULE
guest-2_confgen4.mol2 : confsearch ligand conformer 810
          23          22           1
SMALL
USER_CHARGES
 
@<TRIPOS>ATOM
       1    N1      19.509893   17.704110   25.460031 N.4        1 MOL1        -0.5940
       2    H1      19.717566   16.783370   25.060199 H          1 MOL1         0.3649
       3    H2      18.604498   17.625538   25.935516 H          1 MOL1         0.3649
       4    H3      20.212096   17.883060   26.185093 H          1 MOL1         0.3649
       5    C1      19.498966   18.790249   24.403703 C.3        1 MOL1         0.0207
       6    H4      19.243834   19.733450   24.894295 H          1 MOL1         0.0950
       7    H5      18.707783   18.553268   23.690114 H          1 MOL1         0.0950
       8    C2      20.849960   18.936708   23.676273 C.3        1 MOL1        -0.1415
       9    H6      21.617465   19.167287   24.427131 H          1 MOL1         0.0976
      10    H7      21.142241   17.982965   23.217132 H          1 MOL1         0.0976
      11    C3      20.848525   20.062567   22.611424 C.3        1 MOL1        -0.1375
      12    H8      21.876364   20.437681   22.509770 H          1 MOL1         0.0976
      13    H9      20.254893   20.916234   22.967033 H          1 MOL1         0.0976
      14    C4      20.368102   19.629429   21.201793 C.3        1 MOL1        -0.1375
      15    H10     20.479393   20.487531   20.524507 H          1 MOL1         0.0976
      16    H11     21.033861   18.846663   20.812776 H          1 MOL1         0.0976
      17    C5      18.904948   19.133073   21.144245 C.3        1 MOL1        -0.1350
      18    H12     18.243665   19.860529   21.635356 H          1 MOL1         0.0976
      19    H13     18.809859   18.185448   21.690029 H          1 MOL1         0.0976
      20    C6      18.434933   18.914127   19.690343 C.3        1 MOL1        -0.2365
      21    H14     17.398971   18.551736   19.668348 H          1 MOL1         0.0987
      22    H15     19.062539   18.171603   19.180422 H          1 MOL1         0.0987
      23    H16     18.476343   19.848974   19.116269 H          1 MOL1         0.0987
@<TRIPOS>BOND
    1     1     2    1
    2     1     3    1
    3     1     4    1
    4     1     5    1
    5     5     6    1
    6     5     7    1
    7     5     8    1
    8     8     9    1
    9     8    10    1
   10     8    11    1
   11    11    12    1
   12    11    13    1
   13    11    14    1
   14    14    15    1
   15    14    16    1
   16    14    17    1
   17    17    18    1
   18    17    19    1
   19    17    20    1
   20    20    21    1
   21    20    22    1
   22    20    23    1
@<TRIPOS>SUBSTRUCTURE
       1 MOL1            1 RESIDUE      1      MOL     
@<SCITEGIC>MOL_PROPERTY
VConf Rank
SciTegic.value.IntegerValue
810

@<SCITEGIC>MOL_PROPERTY
Conf_Id
SciTegic.value.IntegerValue
70

@<SCITEGIC>MOL_PROPERTY
Delta U+W
SciTegic.value.DoubleValue
2.599

@<SCITEGIC>MOL_PROPERTY
U+W
SciTegic.value.DoubleValue
-5.783

@<SCITEGIC>MOL_PROPERTY
Grad RMS
SciTegic.value.DoubleValue
0.000000

@<SCITEGIC>MOL_PROPERTY
U
SciTegic.value.DoubleValue
50.122

@<SCITEGIC>MOL_PROPERTY
W
SciTegic.value.DoubleValue
-55.906

@<SCITEGIC>MOL_PROPERTY
W(PB)
SciTegic.value.DoubleValue
-58.010

@<SCITEGIC>MOL_PROPERTY
W(SA)
SciTegic.value.DoubleValue
2.105

@<SCITEGIC>MOL_PROPERTY
Valence
SciTegic.value.DoubleValue
4.132

@<SCITEGIC>MOL_PROPERTY
Coulomb
SciTegic.value.DoubleValue
45.536

@<SCITEGIC>MOL_PROPERTY
VdW
SciTegic.value.DoubleValue
0.454

@<SCITEGIC>MOL_PROPERTY
VdW6
SciTegic.value.DoubleValue
-6.262

@<SCITEGIC>MOL_PROPERTY
VdW12
SciTegic.value.DoubleValue
6.715

@<SCITEGIC>MOL_PROPERTY
Bond
SciTegic.value.DoubleValue
0.182

@<SCITEGIC>MOL_PROPERTY
Angle
SciTegic.value.DoubleValue
1.157

@<SCITEGIC>MOL_PROPERTY
Pdih
SciTegic.value.DoubleValue
2.794

@<SCITEGIC>MOL_PROPERTY
Idih
SciTegic.value.DoubleValue
0.000

@<SCITEGIC>MOL_PROPERTY
Tether
SciTegic.value.DoubleValue
0.000

@<TRIPOS>MOLECULE
guest-2_confgen4.mol2 : confsearch ligand conformer 811
          23          22           1
SMALL
USER_CHARGES
 
@<TRIPOS>ATOM
       1    N1      20.014326   21.464407   23.963526 N.4        1 MOL1        -0.5940
       2    H1      19.213506   22.028710   24.264786 H          1 MOL1         0.3649
       3    H2      20.849130   22.051447   24.064763 H          1 MOL1         0.3649
       4    H3      20.107246   20.691015   24.628881 H          1 MOL1         0.3649
       5    C1      19.846631   20.962885   22.542755 C.3        1 MOL1         0.0207
       6    H4      20.744162   20.400219   22.272959 H          1 MOL1         0.0950
       7    H5      19.782838   21.835382   21.886879 H          1 MOL1         0.0950
       8    C2      18.598923   20.079160   22.342657 C.3        1 MOL1        -0.1415
       9    H6      17.701868   20.664938   22.583221 H          1 MOL1         0.0976
      10    H7      18.512512   19.824036   21.278767 H          1 MOL1         0.0976
      11    C3      18.603014   18.781114   23.192401 C.3        1 MOL1        -0.1375
      12    H8      17.701228   18.199990   22.955166 H          1 MOL1         0.0976
      13    H9      18.515023   19.043882   24.255154 H          1 MOL1         0.0976
      14    C4      19.850288   17.879621   23.001571 C.3        1 MOL1        -0.1375
      15    H10     20.754186   18.413397   23.323974 H          1 MOL1         0.0976
      16    H11     19.756418   17.012815   23.670281 H          1 MOL1         0.0976
      17    C5      20.032757   17.376316   21.550267 C.3        1 MOL1        -0.1350
      18    H12     20.199596   18.224672   20.873219 H          1 MOL1         0.0976
      19    H13     19.114649   16.875117   21.213236 H          1 MOL1         0.0976
      20    C6      21.222194   16.399800   21.431781 C.3        1 MOL1        -0.2365
      21    H14     21.338817   16.054849   20.396203 H          1 MOL1         0.0987
      22    H15     21.072803   15.516242   22.065974 H          1 MOL1         0.0987
      23    H16     22.160699   16.882741   21.733744 H          1 MOL1         0.0987
@<TRIPOS>BOND
    1     1     2    1
    2     1     3    1
    3     1     4    1
    4     1     5    1
    5     5     6    1
    6     5     7    1
    7     5     8    1
    8     8     9    1
    9     8    10    1
   10     8    11    1
   11    11    12    1
   12    11    13    1
   13    11    14    1
   14    14    15    1
   15    14    16    1
   16    14    17    1
   17    17    18    1
   18    17    19    1
   19    17    20    1
   20    20    21    1
   21    20    22    1
   22    20    23    1
@<TRIPOS>SUBSTRUCTURE
       1 MOL1            1 RESIDUE      1      MOL     
@<SCITEGIC>MOL_PROPERTY
VConf Rank
SciTegic.value.IntegerValue
811

@<SCITEGIC>MOL_PROPERTY
Conf_Id
SciTegic.value.IntegerValue
72

@<SCITEGIC>MOL_PROPERTY
Delta U+W
SciTegic.value.DoubleValue
1.051

@<SCITEGIC>MOL_PROPERTY
U+W
SciTegic.value.DoubleValue
-7.331

@<SCITEGIC>MOL_PROPERTY
Grad RMS
SciTegic.value.DoubleValue
0.000000

@<SCITEGIC>MOL_PROPERTY
U
SciTegic.value.DoubleValue
48.590

@<SCITEGIC>MOL_PROPERTY
W
SciTegic.value.DoubleValue
-55.922

@<SCITEGIC>MOL_PROPERTY
W(PB)
SciTegic.value.DoubleValue
-58.012

@<SCITEGIC>MOL_PROPERTY
W(SA)
SciTegic.value.DoubleValue
2.090

@<SCITEGIC>MOL_PROPERTY
Valence
SciTegic.value.DoubleValue
2.601

@<SCITEGIC>MOL_PROPERTY
Coulomb
SciTegic.value.DoubleValue
45.520

@<SCITEGIC>MOL_PROPERTY
VdW
SciTegic.value.DoubleValue
0.469

@<SCITEGIC>MOL_PROPERTY
VdW6
SciTegic.value.DoubleValue
-6.867

@<SCITEGIC>MOL_PROPERTY
VdW12
SciTegic.value.DoubleValue
7.336

@<SCITEGIC>MOL_PROPERTY
Bond
SciTegic.value.DoubleValue
0.205

@<SCITEGIC>MOL_PROPERTY
Angle
SciTegic.value.DoubleValue
0.962

@<SCITEGIC>MOL_PROPERTY
Pdih
SciTegic.value.DoubleValue
1.434

@<SCITEGIC>MOL_PROPERTY
Idih
SciTegic.value.DoubleValue
0.000

@<SCITEGIC>MOL_PROPERTY
Tether
SciTegic.value.DoubleValue
0.000

@<TRIPOS>MOLECULE
guest-2_confgen4.mol2 : confsearch ligand conformer 812
          23          22           1
SMALL
USER_CHARGES
 
@<TRIPOS>ATOM
       1    N1      19.987701   22.060864   22.187318 N.4        1 MOL1        -0.5940
       2    H1      19.565825   22.661834   21.471209 H          1 MOL1         0.3649
       3    H2      20.905343   22.460656   22.408415 H          1 MOL1         0.3649
       4    H3      19.409495   22.149166   23.029068 H          1 MOL1         0.3649
       5    C1      20.095154   20.622612   21.723072 C.3        1 MOL1         0.0207
       6    H4      20.697699   20.605922   20.810926 H          1 MOL1         0.0950
       7    H5      19.089041   20.272823   21.477476 H          1 MOL1         0.0950
       8    C2      20.725226   19.693089   22.777024 C.3        1 MOL1        -0.1415
       9    H6      21.719765   20.074478   23.043785 H          1 MOL1         0.0976
      10    H7      20.128396   19.719011   23.697650 H          1 MOL1         0.0976
      11    C3      20.866794   18.233496   22.278417 C.3        1 MOL1        -0.1375
      12    H8      21.340715   17.630103   23.064079 H          1 MOL1         0.0976
      13    H9      21.564544   18.214715   21.429827 H          1 MOL1         0.0976
      14    C4      19.536788   17.562773   21.840267 C.3        1 MOL1        -0.1375
      15    H10     19.148774   18.070920   20.947219 H          1 MOL1         0.0976
      16    H11     19.751481   16.532922   21.523276 H          1 MOL1         0.0976
      17    C5      18.426593   17.531556   22.921336 C.3        1 MOL1        -0.1350
      18    H12     17.536275   17.048585   22.494999 H          1 MOL1         0.0976
      19    H13     18.119074   18.553718   23.179666 H          1 MOL1         0.0976
      20    C6      18.839428   16.771351   24.202028 C.3        1 MOL1        -0.2365
      21    H14     19.163300   15.749245   23.966771 H          1 MOL1         0.0987
      22    H15     17.993892   16.703791   24.898696 H          1 MOL1         0.0987
      23    H16     19.658863   17.279714   24.725146 H          1 MOL1         0.0987
@<TRIPOS>BOND
    1     1     2    1
    2     1     3    1
    3     1     4    1
    4     1     5    1
    5     5     6    1
    6     5     7    1
    7     5     8    1
    8     8     9    1
    9     8    10    1
   10     8    11    1
   11    11    12    1
   12    11    13    1
   13    11    14    1
   14    14    15    1
   15    14    16    1
   16    14    17    1
   17    17    18    1
   18    17    19    1
   19    17    20    1
   20    20    21    1
   21    20    22    1
   22    20    23    1
@<TRIPOS>SUBSTRUCTURE
       1 MOL1            1 RESIDUE      1      MOL     
@<SCITEGIC>MOL_PROPERTY
VConf Rank
SciTegic.value.IntegerValue
812

@<SCITEGIC>MOL_PROPERTY
Conf_Id
SciTegic.value.IntegerValue
26

@<SCITEGIC>MOL_PROPERTY
Delta U+W
SciTegic.value.DoubleValue
1.076

@<SCITEGIC>MOL_PROPERTY
U+W
SciTegic.value.DoubleValue
-7.306

@<SCITEGIC>MOL_PROPERTY
Grad RMS
SciTegic.value.DoubleValue
0.000000

@<SCITEGIC>MOL_PROPERTY
U
SciTegic.value.DoubleValue
48.641

@<SCITEGIC>MOL_PROPERTY
W
SciTegic.value.DoubleValue
-55.947

@<SCITEGIC>MOL_PROPERTY
W(PB)
SciTegic.value.DoubleValue
-58.031

@<SCITEGIC>MOL_PROPERTY
W(SA)
SciTegic.value.DoubleValue
2.084

@<SCITEGIC>MOL_PROPERTY
Valence
SciTegic.value.DoubleValue
2.922

@<SCITEGIC>MOL_PROPERTY
Coulomb
SciTegic.value.DoubleValue
45.269

@<SCITEGIC>MOL_PROPERTY
VdW
SciTegic.value.DoubleValue
0.449

@<SCITEGIC>MOL_PROPERTY
VdW6
SciTegic.value.DoubleValue
-7.045

@<SCITEGIC>MOL_PROPERTY
VdW12
SciTegic.value.DoubleValue
7.494

@<SCITEGIC>MOL_PROPERTY
Bond
SciTegic.value.DoubleValue
0.220

@<SCITEGIC>MOL_PROPERTY
Angle
SciTegic.value.DoubleValue
1.205

@<SCITEGIC>MOL_PROPERTY
Pdih
SciTegic.value.DoubleValue
1.497

@<SCITEGIC>MOL_PROPERTY
Idih
SciTegic.value.DoubleValue
0.000

@<SCITEGIC>MOL_PROPERTY
Tether
SciTegic.value.DoubleValue
0.000

@<TRIPOS>MOLECULE
guest-2_confgen4.mol2 : confsearch ligand conformer 813
          23          22           1
SMALL
USER_CHARGES
 
@<TRIPOS>ATOM
       1    N1      22.744024   19.079466   21.505633 N.4        1 MOL1        -0.5940
       2    H1      22.911897   19.781712   20.778000 H          1 MOL1         0.3649
       3    H2      23.410032   18.316703   21.342580 H          1 MOL1         0.3649
       4    H3      22.995284   19.508097   22.402186 H          1 MOL1         0.3649
       5    C1      21.311122   18.587198   21.495737 C.3        1 MOL1         0.0207
       6    H4      21.212788   17.823873   22.272009 H          1 MOL1         0.0950
       7    H5      21.121268   18.118796   20.526250 H          1 MOL1         0.0950
       8    C2      20.285026   19.709733   21.738349 C.3        1 MOL1        -0.1415
       9    H6      20.482702   20.189313   22.705489 H          1 MOL1         0.0976
      10    H7      20.417359   20.488441   20.975571 H          1 MOL1         0.0976
      11    C3      18.822103   19.203460   21.687310 C.3        1 MOL1        -0.1375
      12    H8      18.608500   18.837887   20.673385 H          1 MOL1         0.0976
      13    H9      18.142884   20.051889   21.844734 H          1 MOL1         0.0976
      14    C4      18.487234   18.075705   22.700616 C.3        1 MOL1        -0.1375
      15    H10     17.427776   17.807104   22.588510 H          1 MOL1         0.0976
      16    H11     19.050060   17.169959   22.437648 H          1 MOL1         0.0976
      17    C5      18.760350   18.421846   24.186488 C.3        1 MOL1        -0.1350
      18    H12     19.833567   18.591929   24.345847 H          1 MOL1         0.0976
      19    H13     18.499498   17.550096   24.802688 H          1 MOL1         0.0976
      20    C6      17.958100   19.643637   24.688623 C.3        1 MOL1        -0.2365
      21    H14     18.263763   20.564024   24.175769 H          1 MOL1         0.0987
      22    H15     18.120070   19.794748   25.763691 H          1 MOL1         0.0987
      23    H16     16.881567   19.501648   24.527826 H          1 MOL1         0.0987
@<TRIPOS>BOND
    1     1     2    1
    2     1     3    1
    3     1     4    1
    4     1     5    1
    5     5     6    1
    6     5     7    1
    7     5     8    1
    8     8     9    1
    9     8    10    1
   10     8    11    1
   11    11    12    1
   12    11    13    1
   13    11    14    1
   14    14    15    1
   15    14    16    1
   16    14    17    1
   17    17    18    1
   18    17    19    1
   19    17    20    1
   20    20    21    1
   21    20    22    1
   22    20    23    1
@<TRIPOS>SUBSTRUCTURE
       1 MOL1            1 RESIDUE      1      MOL     
@<SCITEGIC>MOL_PROPERTY
VConf Rank
SciTegic.value.IntegerValue
813

@<SCITEGIC>MOL_PROPERTY
Conf_Id
SciTegic.value.IntegerValue
90

@<SCITEGIC>MOL_PROPERTY
Delta U+W
SciTegic.value.DoubleValue
1.131

@<SCITEGIC>MOL_PROPERTY
U+W
SciTegic.value.DoubleValue
-7.251

@<SCITEGIC>MOL_PROPERTY
Grad RMS
SciTegic.value.DoubleValue
0.000000

@<SCITEGIC>MOL_PROPERTY
U
SciTegic.value.DoubleValue
48.641

@<SCITEGIC>MOL_PROPERTY
W
SciTegic.value.DoubleValue
-55.892

@<SCITEGIC>MOL_PROPERTY
W(PB)
SciTegic.value.DoubleValue
-57.962

@<SCITEGIC>MOL_PROPERTY
W(SA)
SciTegic.value.DoubleValue
2.070

@<SCITEGIC>MOL_PROPERTY
Valence
SciTegic.value.DoubleValue
2.922

@<SCITEGIC>MOL_PROPERTY
Coulomb
SciTegic.value.DoubleValue
45.269

@<SCITEGIC>MOL_PROPERTY
VdW
SciTegic.value.DoubleValue
0.450

@<SCITEGIC>MOL_PROPERTY
VdW6
SciTegic.value.DoubleValue
-7.045

@<SCITEGIC>MOL_PROPERTY
VdW12
SciTegic.value.DoubleValue
7.495

@<SCITEGIC>MOL_PROPERTY
Bond
SciTegic.value.DoubleValue
0.220

@<SCITEGIC>MOL_PROPERTY
Angle
SciTegic.value.DoubleValue
1.205

@<SCITEGIC>MOL_PROPERTY
Pdih
SciTegic.value.DoubleValue
1.497

@<SCITEGIC>MOL_PROPERTY
Idih
SciTegic.value.DoubleValue
0.000

@<SCITEGIC>MOL_PROPERTY
Tether
SciTegic.value.DoubleValue
0.000

@<TRIPOS>MOLECULE
guest-2_confgen4.mol2 : confsearch ligand conformer 814
          23          22           1
SMALL
USER_CHARGES
 
@<TRIPOS>ATOM
       1    N1      19.217382   20.807331   20.806139 N.4        1 MOL1        -0.5940
       2    H1      19.107120   20.853827   19.787546 H          1 MOL1         0.3649
       3    H2      20.143305   20.409757   20.991133 H          1 MOL1         0.3649
       4    H3      19.226989   21.772738   21.150333 H          1 MOL1         0.3649
       5    C1      18.118146   19.989358   21.454981 C.3        1 MOL1         0.0207
       6    H4      18.143246   18.985347   21.023647 H          1 MOL1         0.0950
       7    H5      17.161470   20.447940   21.190422 H          1 MOL1         0.0950
       8    C2      18.235796   19.900498   22.990282 C.3        1 MOL1        -0.1415
       9    H6      18.161892   20.910108   23.415741 H          1 MOL1         0.0976
      10    H7      17.373512   19.341716   23.377674 H          1 MOL1         0.0976
      11    C3      19.542683   19.230542   23.484032 C.3        1 MOL1        -0.1375
      12    H8      19.541015   19.227709   24.582713 H          1 MOL1         0.0976
      13    H9      20.403458   19.839968   23.181096 H          1 MOL1         0.0976
      14    C4      19.710186   17.777310   22.972629 C.3        1 MOL1        -0.1375
      15    H10     18.802062   17.206658   23.211239 H          1 MOL1         0.0976
      16    H11     19.802557   17.768789   21.878404 H          1 MOL1         0.0976
      17    C5      20.926604   17.046087   23.589906 C.3        1 MOL1        -0.1350
      18    H12     20.912030   15.997550   23.260978 H          1 MOL1         0.0976
      19    H13     20.832387   17.025739   24.684662 H          1 MOL1         0.0976
      20    C6      22.283546   17.672840   23.196175 C.3        1 MOL1        -0.2365
      21    H14     22.391155   17.728906   22.105205 H          1 MOL1         0.0987
      22    H15     23.112923   17.067351   23.584059 H          1 MOL1         0.0987
      23    H16     22.394782   18.684334   23.605950 H          1 MOL1         0.0987
@<TRIPOS>BOND
    1     1     2    1
    2     1     3    1
    3     1     4    1
    4     1     5    1
    5     5     6    1
    6     5     7    1
    7     5     8    1
    8     8     9    1
    9     8    10    1
   10     8    11    1
   11    11    12    1
   12    11    13    1
   13    11    14    1
   14    14    15    1
   15    14    16    1
   16    14    17    1
   17    17    18    1
   18    17    19    1
   19    17    20    1
   20    20    21    1
   21    20    22    1
   22    20    23    1
@<TRIPOS>SUBSTRUCTURE
       1 MOL1            1 RESIDUE      1      MOL     
@<SCITEGIC>MOL_PROPERTY
VConf Rank
SciTegic.value.IntegerValue
814

@<SCITEGIC>MOL_PROPERTY
Conf_Id
SciTegic.value.IntegerValue
85

@<SCITEGIC>MOL_PROPERTY
Delta U+W
SciTegic.value.DoubleValue
1.193

@<SCITEGIC>MOL_PROPERTY
U+W
SciTegic.value.DoubleValue
-7.189

@<SCITEGIC>MOL_PROPERTY
Grad RMS
SciTegic.value.DoubleValue
0.000000

@<SCITEGIC>MOL_PROPERTY
U
SciTegic.value.DoubleValue
48.775

@<SCITEGIC>MOL_PROPERTY
W
SciTegic.value.DoubleValue
-55.965

@<SCITEGIC>MOL_PROPERTY
W(PB)
SciTegic.value.DoubleValue
-58.038

@<SCITEGIC>MOL_PROPERTY
W(SA)
SciTegic.value.DoubleValue
2.073

@<SCITEGIC>MOL_PROPERTY
Valence
SciTegic.value.DoubleValue
2.602

@<SCITEGIC>MOL_PROPERTY
Coulomb
SciTegic.value.DoubleValue
45.581

@<SCITEGIC>MOL_PROPERTY
VdW
SciTegic.value.DoubleValue
0.592

@<SCITEGIC>MOL_PROPERTY
VdW6
SciTegic.value.DoubleValue
-6.616

@<SCITEGIC>MOL_PROPERTY
VdW12
SciTegic.value.DoubleValue
7.208

@<SCITEGIC>MOL_PROPERTY
Bond
SciTegic.value.DoubleValue
0.196

@<SCITEGIC>MOL_PROPERTY
Angle
SciTegic.value.DoubleValue
0.832

@<SCITEGIC>MOL_PROPERTY
Pdih
SciTegic.value.DoubleValue
1.574

@<SCITEGIC>MOL_PROPERTY
Idih
SciTegic.value.DoubleValue
0.000

@<SCITEGIC>MOL_PROPERTY
Tether
SciTegic.value.DoubleValue
0.000

@<TRIPOS>MOLECULE
guest-2_confgen4.mol2 : confsearch ligand conformer 815
          23          22           1
SMALL
USER_CHARGES
 
@<TRIPOS>ATOM
       1    N1      18.859665   19.132586   20.683828 N.4        1 MOL1        -0.5940
       2    H1      18.521584   19.120644   21.651417 H          1 MOL1         0.3649
       3    H2      18.246507   18.518977   20.136267 H          1 MOL1         0.3649
       4    H3      18.727498   20.083866   20.325201 H          1 MOL1         0.3649
       5    C1      20.310260   18.698393   20.600682 C.3        1 MOL1         0.0207
       6    H4      20.595610   18.738554   19.545944 H          1 MOL1         0.0950
       7    H5      20.384586   17.659489   20.932770 H          1 MOL1         0.0950
       8    C2      21.276723   19.580173   21.417464 C.3        1 MOL1        -0.1415
       9    H6      22.282030   19.454161   20.994007 H          1 MOL1         0.0976
      10    H7      21.023441   20.639097   21.274631 H          1 MOL1         0.0976
      11    C3      21.355837   19.248991   22.932116 C.3        1 MOL1        -0.1375
      12    H8      22.115067   19.909571   23.373374 H          1 MOL1         0.0976
      13    H9      21.737431   18.228255   23.073379 H          1 MOL1         0.0976
      14    C4      20.035960   19.439930   23.722513 C.3        1 MOL1        -0.1375
      15    H10     20.281144   19.818218   24.724772 H          1 MOL1         0.0976
      16    H11     19.423030   20.221272   23.253956 H          1 MOL1         0.0976
      17    C5      19.232728   18.127447   23.893709 C.3        1 MOL1        -0.1350
      18    H12     19.811445   17.426856   24.512089 H          1 MOL1         0.0976
      19    H13     19.083448   17.626629   22.929773 H          1 MOL1         0.0976
      20    C6      17.863425   18.379142   24.559657 C.3        1 MOL1        -0.2365
      21    H14     17.985757   18.832341   25.552136 H          1 MOL1         0.0987
      22    H15     17.315125   17.436545   24.686370 H          1 MOL1         0.0987
      23    H16     17.242504   19.050700   23.952836 H          1 MOL1         0.0987
@<TRIPOS>BOND
    1     1     2    1
    2     1     3    1
    3     1     4    1
    4     1     5    1
    5     5     6    1
    6     5     7    1
    7     5     8    1
    8     8     9    1
    9     8    10    1
   10     8    11    1
   11    11    12    1
   12    11    13    1
   13    11    14    1
   14    14    15    1
   15    14    16    1
   16    14    17    1
   17    17    18    1
   18    17    19    1
   19    17    20    1
   20    20    21    1
   21    20    22    1
   22    20    23    1
@<TRIPOS>SUBSTRUCTURE
       1 MOL1            1 RESIDUE      1      MOL     
@<SCITEGIC>MOL_PROPERTY
VConf Rank
SciTegic.value.IntegerValue
815

@<SCITEGIC>MOL_PROPERTY
Conf_Id
SciTegic.value.IntegerValue
82

@<SCITEGIC>MOL_PROPERTY
Delta U+W
SciTegic.value.DoubleValue
5.994

@<SCITEGIC>MOL_PROPERTY
U+W
SciTegic.value.DoubleValue
-2.388

@<SCITEGIC>MOL_PROPERTY
Grad RMS
SciTegic.value.DoubleValue
0.000000

@<SCITEGIC>MOL_PROPERTY
U
SciTegic.value.DoubleValue
52.836

@<SCITEGIC>MOL_PROPERTY
W
SciTegic.value.DoubleValue
-55.224

@<SCITEGIC>MOL_PROPERTY
W(PB)
SciTegic.value.DoubleValue
-57.261

@<SCITEGIC>MOL_PROPERTY
W(SA)
SciTegic.value.DoubleValue
2.037

@<SCITEGIC>MOL_PROPERTY
Valence
SciTegic.value.DoubleValue
5.785

@<SCITEGIC>MOL_PROPERTY
Coulomb
SciTegic.value.DoubleValue
46.744

@<SCITEGIC>MOL_PROPERTY
VdW
SciTegic.value.DoubleValue
0.307

@<SCITEGIC>MOL_PROPERTY
VdW6
SciTegic.value.DoubleValue
-7.672

@<SCITEGIC>MOL_PROPERTY
VdW12
SciTegic.value.DoubleValue
7.979

@<SCITEGIC>MOL_PROPERTY
Bond
SciTegic.value.DoubleValue
0.217

@<SCITEGIC>MOL_PROPERTY
Angle
SciTegic.value.DoubleValue
1.470

@<SCITEGIC>MOL_PROPERTY
Pdih
SciTegic.value.DoubleValue
4.098

@<SCITEGIC>MOL_PROPERTY
Idih
SciTegic.value.DoubleValue
0.000

@<SCITEGIC>MOL_PROPERTY
Tether
SciTegic.value.DoubleValue
0.000

@<TRIPOS>MOLECULE
guest-2_confgen4.mol2 : confsearch ligand conformer 816
          23          22           1
SMALL
USER_CHARGES
 
@<TRIPOS>ATOM
       1    N1      21.343636   17.907183   23.524248 N.4        1 MOL1        -0.5940
       2    H1      22.313893   18.207015   23.383826 H          1 MOL1         0.3649
       3    H2      21.332403   17.313796   24.360948 H          1 MOL1         0.3649
       4    H3      20.791823   18.745058   23.734351 H          1 MOL1         0.3649
       5    C1      20.800457   17.178773   22.310151 C.3        1 MOL1         0.0207
       6    H4      19.790869   16.825534   22.536162 H          1 MOL1         0.0950
       7    H5      21.437786   16.304786   22.150564 H          1 MOL1         0.0950
       8    C2      20.782305   18.030001   21.024150 C.3        1 MOL1        -0.1415
       9    H6      21.721633   18.592248   20.938048 H          1 MOL1         0.0976
      10    H7      20.767114   17.341745   20.168632 H          1 MOL1         0.0976
      11    C3      19.570049   18.989330   20.881879 C.3        1 MOL1        -0.1375
      12    H8      18.637188   18.410482   20.835238 H          1 MOL1         0.0976
      13    H9      19.656646   19.485150   19.905064 H          1 MOL1         0.0976
      14    C4      19.462824   20.088372   21.969937 C.3        1 MOL1        -0.1375
      15    H10     20.460862   20.345622   22.348708 H          1 MOL1         0.0976
      16    H11     19.078822   21.005819   21.502421 H          1 MOL1         0.0976
      17    C5      18.506775   19.709133   23.127198 C.3        1 MOL1        -0.1350
      18    H12     18.756158   18.724183   23.539466 H          1 MOL1         0.0976
      19    H13     17.482658   19.623334   22.737380 H          1 MOL1         0.0976
      20    C6      18.532643   20.760611   24.256601 C.3        1 MOL1        -0.2365
      21    H14     19.535207   20.850980   24.694168 H          1 MOL1         0.0987
      22    H15     17.838353   20.482997   25.060387 H          1 MOL1         0.0987
      23    H16     18.234337   21.748436   23.881655 H          1 MOL1         0.0987
@<TRIPOS>BOND
    1     1     2    1
    2     1     3    1
    3     1     4    1
    4     1     5    1
    5     5     6    1
    6     5     7    1
    7     5     8    1
    8     8     9    1
    9     8    10    1
   10     8    11    1
   11    11    12    1
   12    11    13    1
   13    11    14    1
   14    14    15    1
   15    14    16    1
   16    14    17    1
   17    17    18    1
   18    17    19    1
   19    17    20    1
   20    20    21    1
   21    20    22    1
   22    20    23    1
@<TRIPOS>SUBSTRUCTURE
       1 MOL1            1 RESIDUE      1      MOL     
@<SCITEGIC>MOL_PROPERTY
VConf Rank
SciTegic.value.IntegerValue
816

@<SCITEGIC>MOL_PROPERTY
Conf_Id
SciTegic.value.IntegerValue
5

@<SCITEGIC>MOL_PROPERTY
Delta U+W
SciTegic.value.DoubleValue
6.087

@<SCITEGIC>MOL_PROPERTY
U+W
SciTegic.value.DoubleValue
-2.295

@<SCITEGIC>MOL_PROPERTY
Grad RMS
SciTegic.value.DoubleValue
0.000000

@<SCITEGIC>MOL_PROPERTY
U
SciTegic.value.DoubleValue
52.836

@<SCITEGIC>MOL_PROPERTY
W
SciTegic.value.DoubleValue
-55.131

@<SCITEGIC>MOL_PROPERTY
W(PB)
SciTegic.value.DoubleValue
-57.202

@<SCITEGIC>MOL_PROPERTY
W(SA)
SciTegic.value.DoubleValue
2.071

@<SCITEGIC>MOL_PROPERTY
Valence
SciTegic.value.DoubleValue
5.785

@<SCITEGIC>MOL_PROPERTY
Coulomb
SciTegic.value.DoubleValue
46.744

@<SCITEGIC>MOL_PROPERTY
VdW
SciTegic.value.DoubleValue
0.307

@<SCITEGIC>MOL_PROPERTY
VdW6
SciTegic.value.DoubleValue
-7.672

@<SCITEGIC>MOL_PROPERTY
VdW12
SciTegic.value.DoubleValue
7.980

@<SCITEGIC>MOL_PROPERTY
Bond
SciTegic.value.DoubleValue
0.217

@<SCITEGIC>MOL_PROPERTY
Angle
SciTegic.value.DoubleValue
1.470

@<SCITEGIC>MOL_PROPERTY
Pdih
SciTegic.value.DoubleValue
4.098

@<SCITEGIC>MOL_PROPERTY
Idih
SciTegic.value.DoubleValue
0.000

@<SCITEGIC>MOL_PROPERTY
Tether
SciTegic.value.DoubleValue
0.000

@<TRIPOS>MOLECULE
guest-2_confgen4.mol2 : confsearch ligand conformer 817
          23          22           1
SMALL
USER_CHARGES
 
@<TRIPOS>ATOM
       1    N1      22.904543   19.870696   24.650667 N.4        1 MOL1        -0.5940
       2    H1      23.505764   19.142178   24.252322 H          1 MOL1         0.3649
       3    H2      23.193826   19.994776   25.626891 H          1 MOL1         0.3649
       4    H3      23.124833   20.744277   24.161574 H          1 MOL1         0.3649
       5    C1      21.435799   19.515186   24.539757 C.3        1 MOL1         0.0207
       6    H4      20.858234   20.316846   25.008004 H          1 MOL1         0.0950
       7    H5      21.267686   18.594825   25.105593 H          1 MOL1         0.0950
       8    C2      20.969520   19.321920   23.085862 C.3        1 MOL1        -0.1415
       9    H6      21.155217   20.243104   22.517500 H          1 MOL1         0.0976
      10    H7      21.563308   18.527227   22.614718 H          1 MOL1         0.0976
      11    C3      19.469122   18.961134   23.016417 C.3        1 MOL1        -0.1375
      12    H8      18.878929   19.756042   23.493487 H          1 MOL1         0.0976
      13    H9      19.286609   18.041974   23.590558 H          1 MOL1         0.0976
      14    C4      18.989868   18.764675   21.560147 C.3        1 MOL1        -0.1375
      15    H10     19.172161   19.683700   20.985972 H          1 MOL1         0.0976
      16    H11     19.579887   17.969871   21.082991 H          1 MOL1         0.0976
      17    C5      17.489291   18.403768   21.491062 C.3        1 MOL1        -0.1350
      18    H12     16.894470   19.197167   21.965066 H          1 MOL1         0.0976
      19    H13     17.302167   17.483488   22.062063 H          1 MOL1         0.0976
      20    C6      17.014402   18.208399   20.035446 C.3        1 MOL1        -0.2365
      21    H14     15.947188   17.952895   20.006836 H          1 MOL1         0.0987
      22    H15     17.568182   17.397210   19.545006 H          1 MOL1         0.0987
      23    H16     17.157326   19.124270   19.447243 H          1 MOL1         0.0987
@<TRIPOS>BOND
    1     1     2    1
    2     1     3    1
    3     1     4    1
    4     1     5    1
    5     5     6    1
    6     5     7    1
    7     5     8    1
    8     8     9    1
    9     8    10    1
   10     8    11    1
   11    11    12    1
   12    11    13    1
   13    11    14    1
   14    14    15    1
   15    14    16    1
   16    14    17    1
   17    17    18    1
   18    17    19    1
   19    17    20    1
   20    20    21    1
   21    20    22    1
   22    20    23    1
@<TRIPOS>SUBSTRUCTURE
       1 MOL1            1 RESIDUE      1      MOL     
@<SCITEGIC>MOL_PROPERTY
VConf Rank
SciTegic.value.IntegerValue
817

@<SCITEGIC>MOL_PROPERTY
Conf_Id
SciTegic.value.IntegerValue
40

@<SCITEGIC>MOL_PROPERTY
Delta U+W
SciTegic.value.DoubleValue
0.000

@<SCITEGIC>MOL_PROPERTY
U+W
SciTegic.value.DoubleValue
-8.382

@<SCITEGIC>MOL_PROPERTY
Grad RMS
SciTegic.value.DoubleValue
0.000000

@<SCITEGIC>MOL_PROPERTY
U
SciTegic.value.DoubleValue
46.604

@<SCITEGIC>MOL_PROPERTY
W
SciTegic.value.DoubleValue
-54.986

@<SCITEGIC>MOL_PROPERTY
W(PB)
SciTegic.value.DoubleValue
-57.162

@<SCITEGIC>MOL_PROPERTY
W(SA)
SciTegic.value.DoubleValue
2.176

@<SCITEGIC>MOL_PROPERTY
Valence
SciTegic.value.DoubleValue
1.727

@<SCITEGIC>MOL_PROPERTY
Coulomb
SciTegic.value.DoubleValue
44.434

@<SCITEGIC>MOL_PROPERTY
VdW
SciTegic.value.DoubleValue
0.443

@<SCITEGIC>MOL_PROPERTY
VdW6
SciTegic.value.DoubleValue
-4.623

@<SCITEGIC>MOL_PROPERTY
VdW12
SciTegic.value.DoubleValue
5.066

@<SCITEGIC>MOL_PROPERTY
Bond
SciTegic.value.DoubleValue
0.112

@<SCITEGIC>MOL_PROPERTY
Angle
SciTegic.value.DoubleValue
0.386

@<SCITEGIC>MOL_PROPERTY
Pdih
SciTegic.value.DoubleValue
1.228

@<SCITEGIC>MOL_PROPERTY
Idih
SciTegic.value.DoubleValue
0.000

@<SCITEGIC>MOL_PROPERTY
Tether
SciTegic.value.DoubleValue
0.000

@<TRIPOS>MOLECULE
guest-2_confgen4.mol2 : confsearch ligand conformer 818
          23          22           1
SMALL
USER_CHARGES
 
@<TRIPOS>ATOM
       1    N1      18.398273   17.476835   19.690351 N.4        1 MOL1        -0.5940
       2    H1      18.934821   16.638103   19.446458 H          1 MOL1         0.3649
       3    H2      18.665463   18.209639   19.025188 H          1 MOL1         0.3649
       4    H3      17.411174   17.260410   19.514781 H          1 MOL1         0.3649
       5    C1      18.634879   17.901990   21.125288 C.3        1 MOL1         0.0207
       6    H4      18.303191   17.089282   21.777130 H          1 MOL1         0.0950
       7    H5      18.011111   18.777598   21.322122 H          1 MOL1         0.0950
       8    C2      20.109893   18.233885   21.420773 C.3        1 MOL1        -0.1415
       9    H6      20.728976   17.361277   21.173310 H          1 MOL1         0.0976
      10    H7      20.443254   19.050973   20.767151 H          1 MOL1         0.0976
      11    C3      20.354323   18.618018   22.899393 C.3        1 MOL1        -0.1375
      12    H8      21.436030   18.726259   23.051566 H          1 MOL1         0.0976
      13    H9      20.028827   17.794807   23.550352 H          1 MOL1         0.0976
      14    C4      19.637354   19.928249   23.313908 C.3        1 MOL1        -0.1375
      15    H10     19.978807   20.755216   22.676133 H          1 MOL1         0.0976
      16    H11     18.558198   19.827966   23.138207 H          1 MOL1         0.0976
      17    C5      19.849475   20.302443   24.801023 C.3        1 MOL1        -0.1350
      18    H12     19.499841   19.482828   25.444284 H          1 MOL1         0.0976
      19    H13     19.218007   21.169917   25.038950 H          1 MOL1         0.0976
      20    C6      21.316076   20.646556   25.147519 C.3        1 MOL1        -0.2365
      21    H14     21.970914   19.772310   25.046833 H          1 MOL1         0.0987
      22    H15     21.393126   20.997423   26.184777 H          1 MOL1         0.0987
      23    H16     21.699985   21.441688   24.495300 H          1 MOL1         0.0987
@<TRIPOS>BOND
    1     1     2    1
    2     1     3    1
    3     1     4    1
    4     1     5    1
    5     5     6    1
    6     5     7    1
    7     5     8    1
    8     8     9    1
    9     8    10    1
   10     8    11    1
   11    11    12    1
   12    11    13    1
   13    11    14    1
   14    14    15    1
   15    14    16    1
   16    14    17    1
   17    17    18    1
   18    17    19    1
   19    17    20    1
   20    20    21    1
   21    20    22    1
   22    20    23    1
@<TRIPOS>SUBSTRUCTURE
       1 MOL1            1 RESIDUE      1      MOL     
@<SCITEGIC>MOL_PROPERTY
VConf Rank
SciTegic.value.IntegerValue
818

@<SCITEGIC>MOL_PROPERTY
Conf_Id
SciTegic.value.IntegerValue
65

@<SCITEGIC>MOL_PROPERTY
Delta U+W
SciTegic.value.DoubleValue
1.004

@<SCITEGIC>MOL_PROPERTY
U+W
SciTegic.value.DoubleValue
-7.378

@<SCITEGIC>MOL_PROPERTY
Grad RMS
SciTegic.value.DoubleValue
0.000000

@<SCITEGIC>MOL_PROPERTY
U
SciTegic.value.DoubleValue
48.047

@<SCITEGIC>MOL_PROPERTY
W
SciTegic.value.DoubleValue
-55.425

@<SCITEGIC>MOL_PROPERTY
W(PB)
SciTegic.value.DoubleValue
-57.542

@<SCITEGIC>MOL_PROPERTY
W(SA)
SciTegic.value.DoubleValue
2.116

@<SCITEGIC>MOL_PROPERTY
Valence
SciTegic.value.DoubleValue
2.583

@<SCITEGIC>MOL_PROPERTY
Coulomb
SciTegic.value.DoubleValue
44.791

@<SCITEGIC>MOL_PROPERTY
VdW
SciTegic.value.DoubleValue
0.673

@<SCITEGIC>MOL_PROPERTY
VdW6
SciTegic.value.DoubleValue
-5.788

@<SCITEGIC>MOL_PROPERTY
VdW12
SciTegic.value.DoubleValue
6.462

@<SCITEGIC>MOL_PROPERTY
Bond
SciTegic.value.DoubleValue
0.177

@<SCITEGIC>MOL_PROPERTY
Angle
SciTegic.value.DoubleValue
0.787

@<SCITEGIC>MOL_PROPERTY
Pdih
SciTegic.value.DoubleValue
1.619

@<SCITEGIC>MOL_PROPERTY
Idih
SciTegic.value.DoubleValue
0.000

@<SCITEGIC>MOL_PROPERTY
Tether
SciTegic.value.DoubleValue
0.000

@<TRIPOS>MOLECULE
guest-2_confgen4.mol2 : confsearch ligand conformer 819
          23          22           1
SMALL
USER_CHARGES
 
@<TRIPOS>ATOM
       1    N1      23.276446   19.503339   22.132919 N.4        1 MOL1        -0.5940
       2    H1      23.446327   20.098831   21.315993 H          1 MOL1         0.3649
       3    H2      24.001024   18.777396   22.128130 H          1 MOL1         0.3649
       4    H3      23.437847   20.079863   22.965026 H          1 MOL1         0.3649
       5    C1      21.883100   18.908221   22.118864 C.3        1 MOL1         0.0207
       6    H4      21.785044   18.264942   22.996986 H          1 MOL1         0.0950
       7    H5      21.790729   18.286361   21.224343 H          1 MOL1         0.0950
       8    C2      20.771476   19.974702   22.125407 C.3        1 MOL1        -0.1415
       9    H6      20.863048   20.598879   23.024298 H          1 MOL1         0.0976
      10    H7      20.911207   20.641747   21.264319 H          1 MOL1         0.0976
      11    C3      19.352006   19.362834   22.059549 C.3        1 MOL1        -0.1375
      12    H8      19.260245   18.746920   21.154231 H          1 MOL1         0.0976
      13    H9      18.629581   20.182428   21.953100 H          1 MOL1         0.0976
      14    C4      18.996524   18.515339   23.307731 C.3        1 MOL1        -0.1375
      15    H10     19.733808   17.710633   23.427591 H          1 MOL1         0.0976
      16    H11     19.068311   19.137310   24.210625 H          1 MOL1         0.0976
      17    C5      17.590349   17.871961   23.235225 C.3        1 MOL1        -0.1350
      18    H12     17.466333   17.199753   24.095823 H          1 MOL1         0.0976
      19    H13     17.516251   17.240009   22.339154 H          1 MOL1         0.0976
      20    C6      16.438934   18.903269   23.241372 C.3        1 MOL1        -0.2365
      21    H14     16.443878   19.519882   22.334167 H          1 MOL1         0.0987
      22    H15     16.509708   19.569228   24.111142 H          1 MOL1         0.0987
      23    H16     15.467712   18.393807   23.287433 H          1 MOL1         0.0987
@<TRIPOS>BOND
    1     1     2    1
    2     1     3    1
    3     1     4    1
    4     1     5    1
    5     5     6    1
    6     5     7    1
    7     5     8    1
    8     8     9    1
    9     8    10    1
   10     8    11    1
   11    11    12    1
   12    11    13    1
   13    11    14    1
   14    14    15    1
   15    14    16    1
   16    14    17    1
   17    17    18    1
   18    17    19    1
   19    17    20    1
   20    20    21    1
   21    20    22    1
   22    20    23    1
@<TRIPOS>SUBSTRUCTURE
       1 MOL1            1 RESIDUE      1      MOL     
@<SCITEGIC>MOL_PROPERTY
VConf Rank
SciTegic.value.IntegerValue
819

@<SCITEGIC>MOL_PROPERTY
Conf_Id
SciTegic.value.IntegerValue
92

@<SCITEGIC>MOL_PROPERTY
Delta U+W
SciTegic.value.DoubleValue
0.973

@<SCITEGIC>MOL_PROPERTY
U+W
SciTegic.value.DoubleValue
-7.409

@<SCITEGIC>MOL_PROPERTY
Grad RMS
SciTegic.value.DoubleValue
0.000000

@<SCITEGIC>MOL_PROPERTY
U
SciTegic.value.DoubleValue
48.047

@<SCITEGIC>MOL_PROPERTY
W
SciTegic.value.DoubleValue
-55.456

@<SCITEGIC>MOL_PROPERTY
W(PB)
SciTegic.value.DoubleValue
-57.595

@<SCITEGIC>MOL_PROPERTY
W(SA)
SciTegic.value.DoubleValue
2.138

@<SCITEGIC>MOL_PROPERTY
Valence
SciTegic.value.DoubleValue
2.583

@<SCITEGIC>MOL_PROPERTY
Coulomb
SciTegic.value.DoubleValue
44.791

@<SCITEGIC>MOL_PROPERTY
VdW
SciTegic.value.DoubleValue
0.674

@<SCITEGIC>MOL_PROPERTY
VdW6
SciTegic.value.DoubleValue
-5.789

@<SCITEGIC>MOL_PROPERTY
VdW12
SciTegic.value.DoubleValue
6.462

@<SCITEGIC>MOL_PROPERTY
Bond
SciTegic.value.DoubleValue
0.177

@<SCITEGIC>MOL_PROPERTY
Angle
SciTegic.value.DoubleValue
0.787

@<SCITEGIC>MOL_PROPERTY
Pdih
SciTegic.value.DoubleValue
1.619

@<SCITEGIC>MOL_PROPERTY
Idih
SciTegic.value.DoubleValue
0.000

@<SCITEGIC>MOL_PROPERTY
Tether
SciTegic.value.DoubleValue
0.000

@<TRIPOS>MOLECULE
guest-2_confgen4.mol2 : confsearch ligand conformer 820
          23          22           1
SMALL
USER_CHARGES
 
@<TRIPOS>ATOM
       1    N1      17.557338   20.486483   20.276764 N.4        1 MOL1        -0.5940
       2    H1      17.902511   21.154615   19.579276 H          1 MOL1         0.3649
       3    H2      16.688356   20.875361   20.656894 H          1 MOL1         0.3649
       4    H3      17.308572   19.630041   19.771332 H          1 MOL1         0.3649
       5    C1      18.582147   20.225387   21.361831 C.3        1 MOL1         0.0207
       6    H4      18.821044   21.180463   21.837411 H          1 MOL1         0.0950
       7    H5      19.487344   19.843344   20.882922 H          1 MOL1         0.0950
       8    C2      18.092764   19.224865   22.425935 C.3        1 MOL1        -0.1415
       9    H6      17.159490   19.598911   22.867562 H          1 MOL1         0.0976
      10    H7      17.852043   18.265865   21.948057 H          1 MOL1         0.0976
      11    C3      19.126485   18.998511   23.554304 C.3        1 MOL1        -0.1375
      12    H8      18.676239   18.351253   24.319671 H          1 MOL1         0.0976
      13    H9      19.346068   19.955742   24.047398 H          1 MOL1         0.0976
      14    C4      20.442030   18.354938   23.053687 C.3        1 MOL1        -0.1375
      15    H10     20.215664   17.414556   22.532286 H          1 MOL1         0.0976
      16    H11     20.928729   19.014780   22.323078 H          1 MOL1         0.0976
      17    C5      21.422088   18.075466   24.214787 C.3        1 MOL1        -0.1350
      18    H12     20.948155   17.408586   24.948693 H          1 MOL1         0.0976
      19    H13     21.651500   19.013040   24.740433 H          1 MOL1         0.0976
      20    C6      22.734235   17.434926   23.714246 C.3        1 MOL1        -0.2365
      21    H14     22.540122   16.477734   23.212916 H          1 MOL1         0.0987
      22    H15     23.416649   17.243695   24.552571 H          1 MOL1         0.0987
      23    H16     23.249825   18.094470   23.004043 H          1 MOL1         0.0987
@<TRIPOS>BOND
    1     1     2    1
    2     1     3    1
    3     1     4    1
    4     1     5    1
    5     5     6    1
    6     5     7    1
    7     5     8    1
    8     8     9    1
    9     8    10    1
   10     8    11    1
   11    11    12    1
   12    11    13    1
   13    11    14    1
   14    14    15    1
   15    14    16    1
   16    14    17    1
   17    17    18    1
   18    17    19    1
   19    17    20    1
   20    20    21    1
   21    20    22    1
   22    20    23    1
@<TRIPOS>SUBSTRUCTURE
       1 MOL1            1 RESIDUE      1      MOL     
@<SCITEGIC>MOL_PROPERTY
VConf Rank
SciTegic.value.IntegerValue
820

@<SCITEGIC>MOL_PROPERTY
Conf_Id
SciTegic.value.IntegerValue
42

@<SCITEGIC>MOL_PROPERTY
Delta U+W
SciTegic.value.DoubleValue
0.365

@<SCITEGIC>MOL_PROPERTY
U+W
SciTegic.value.DoubleValue
-8.017

@<SCITEGIC>MOL_PROPERTY
Grad RMS
SciTegic.value.DoubleValue
0.000000

@<SCITEGIC>MOL_PROPERTY
U
SciTegic.value.DoubleValue
47.375

@<SCITEGIC>MOL_PROPERTY
W
SciTegic.value.DoubleValue
-55.392

@<SCITEGIC>MOL_PROPERTY
W(PB)
SciTegic.value.DoubleValue
-57.543

@<SCITEGIC>MOL_PROPERTY
W(SA)
SciTegic.value.DoubleValue
2.152

@<SCITEGIC>MOL_PROPERTY
Valence
SciTegic.value.DoubleValue
2.032

@<SCITEGIC>MOL_PROPERTY
Coulomb
SciTegic.value.DoubleValue
44.843

@<SCITEGIC>MOL_PROPERTY
VdW
SciTegic.value.DoubleValue
0.499

@<SCITEGIC>MOL_PROPERTY
VdW6
SciTegic.value.DoubleValue
-5.218

@<SCITEGIC>MOL_PROPERTY
VdW12
SciTegic.value.DoubleValue
5.717

@<SCITEGIC>MOL_PROPERTY
Bond
SciTegic.value.DoubleValue
0.135

@<SCITEGIC>MOL_PROPERTY
Angle
SciTegic.value.DoubleValue
0.514

@<SCITEGIC>MOL_PROPERTY
Pdih
SciTegic.value.DoubleValue
1.383

@<SCITEGIC>MOL_PROPERTY
Idih
SciTegic.value.DoubleValue
0.000

@<SCITEGIC>MOL_PROPERTY
Tether
SciTegic.value.DoubleValue
0.000

@<TRIPOS>MOLECULE
guest-2_confgen4.mol2 : confsearch ligand conformer 821
          23          22           1
SMALL
USER_CHARGES
 
@<TRIPOS>ATOM
       1    N1      16.882871   17.655213   22.370043 N.4        1 MOL1        -0.5940
       2    H1      16.558448   18.047828   23.259558 H          1 MOL1         0.3649
       3    H2      16.235093   16.899321   22.123142 H          1 MOL1         0.3649
       4    H3      16.775084   18.385250   21.659531 H          1 MOL1         0.3649
       5    C1      18.314236   17.162548   22.459828 C.3        1 MOL1         0.0207
       6    H4      18.588914   16.736655   21.491020 H          1 MOL1         0.0950
       7    H5      18.341377   16.361545   23.203622 H          1 MOL1         0.0950
       8    C2      19.326838   18.256205   22.851978 C.3        1 MOL1        -0.1415
       9    H6      19.033449   18.701415   23.811854 H          1 MOL1         0.0976
      10    H7      20.299034   17.772543   23.006974 H          1 MOL1         0.0976
      11    C3      19.466252   19.357551   21.772901 C.3        1 MOL1        -0.1375
      12    H8      18.475471   19.770419   21.542193 H          1 MOL1         0.0976
      13    H9      19.834714   18.908410   20.840209 H          1 MOL1         0.0976
      14    C4      20.390669   20.535323   22.177084 C.3        1 MOL1        -0.1375
      15    H10     20.373000   21.265349   21.355965 H          1 MOL1         0.0976
      16    H11     19.974171   21.060660   23.047587 H          1 MOL1         0.0976
      17    C5      21.867629   20.144658   22.442437 C.3        1 MOL1        -0.1350
      18    H12     22.514399   20.959153   22.087111 H          1 MOL1         0.0976
      19    H13     22.142114   19.261239   21.849287 H          1 MOL1         0.0976
      20    C6      22.180324   19.907073   23.938444 C.3        1 MOL1        -0.2365
      21    H14     21.980221   20.810900   24.528456 H          1 MOL1         0.0987
      22    H15     23.238889   19.649800   24.073221 H          1 MOL1         0.0987
      23    H16     21.584058   19.090766   24.360614 H          1 MOL1         0.0987
@<TRIPOS>BOND
    1     1     2    1
    2     1     3    1
    3     1     4    1
    4     1     5    1
    5     5     6    1
    6     5     7    1
    7     5     8    1
    8     8     9    1
    9     8    10    1
   10     8    11    1
   11    11    12    1
   12    11    13    1
   13    11    14    1
   14    14    15    1
   15    14    16    1
   16    14    17    1
   17    17    18    1
   18    17    19    1
   19    17    20    1
   20    20    21    1
   21    20    22    1
   22    20    23    1
@<TRIPOS>SUBSTRUCTURE
       1 MOL1            1 RESIDUE      1      MOL     
@<SCITEGIC>MOL_PROPERTY
VConf Rank
SciTegic.value.IntegerValue
821

@<SCITEGIC>MOL_PROPERTY
Conf_Id
SciTegic.value.IntegerValue
3

@<SCITEGIC>MOL_PROPERTY
Delta U+W
SciTegic.value.DoubleValue
3.283

@<SCITEGIC>MOL_PROPERTY
U+W
SciTegic.value.DoubleValue
-5.099

@<SCITEGIC>MOL_PROPERTY
Grad RMS
SciTegic.value.DoubleValue
0.000000

@<SCITEGIC>MOL_PROPERTY
U
SciTegic.value.DoubleValue
50.701

@<SCITEGIC>MOL_PROPERTY
W
SciTegic.value.DoubleValue
-55.800

@<SCITEGIC>MOL_PROPERTY
W(PB)
SciTegic.value.DoubleValue
-57.867

@<SCITEGIC>MOL_PROPERTY
W(SA)
SciTegic.value.DoubleValue
2.067

@<SCITEGIC>MOL_PROPERTY
Valence
SciTegic.value.DoubleValue
4.880

@<SCITEGIC>MOL_PROPERTY
Coulomb
SciTegic.value.DoubleValue
45.095

@<SCITEGIC>MOL_PROPERTY
VdW
SciTegic.value.DoubleValue
0.726

@<SCITEGIC>MOL_PROPERTY
VdW6
SciTegic.value.DoubleValue
-6.620

@<SCITEGIC>MOL_PROPERTY
VdW12
SciTegic.value.DoubleValue
7.346

@<SCITEGIC>MOL_PROPERTY
Bond
SciTegic.value.DoubleValue
0.222

@<SCITEGIC>MOL_PROPERTY
Angle
SciTegic.value.DoubleValue
1.260

@<SCITEGIC>MOL_PROPERTY
Pdih
SciTegic.value.DoubleValue
3.398

@<SCITEGIC>MOL_PROPERTY
Idih
SciTegic.value.DoubleValue
0.000

@<SCITEGIC>MOL_PROPERTY
Tether
SciTegic.value.DoubleValue
0.000

@<TRIPOS>MOLECULE
guest-2_confgen4.mol2 : confsearch ligand conformer 822
          23          22           1
SMALL
USER_CHARGES
 
@<TRIPOS>ATOM
       1    N1      18.163290   16.917167   23.666395 N.4        1 MOL1        -0.5940
       2    H1      18.692971   16.243572   24.228767 H          1 MOL1         0.3649
       3    H2      17.179705   16.628845   23.701975 H          1 MOL1         0.3649
       4    H3      18.228271   17.824048   24.138564 H          1 MOL1         0.3649
       5    C1      18.678038   16.989748   22.242295 C.3        1 MOL1         0.0207
       6    H4      18.054227   17.698523   21.691851 H          1 MOL1         0.0950
       7    H5      18.547233   16.002608   21.790663 H          1 MOL1         0.0950
       8    C2      20.159523   17.406624   22.138885 C.3        1 MOL1        -0.1415
       9    H6      20.778268   16.658476   22.651947 H          1 MOL1         0.0976
      10    H7      20.460264   17.379442   21.083103 H          1 MOL1         0.0976
      11    C3      20.466596   18.809639   22.721038 C.3        1 MOL1        -0.1375
      12    H8      21.546640   18.984849   22.633391 H          1 MOL1         0.0976
      13    H9      20.240554   18.826476   23.795454 H          1 MOL1         0.0976
      14    C4      19.697221   19.948907   22.005106 C.3        1 MOL1        -0.1375
      15    H10     19.945923   19.948017   20.934912 H          1 MOL1         0.0976
      16    H11     18.617417   19.761837   22.071303 H          1 MOL1         0.0976
      17    C5      19.978907   21.350456   22.599041 C.3        1 MOL1        -0.1350
      18    H12     19.721601   21.360506   23.667413 H          1 MOL1         0.0976
      19    H13     19.311399   22.077692   22.115900 H          1 MOL1         0.0976
      20    C6      21.440341   21.817742   22.411429 C.3        1 MOL1        -0.2365
      21    H14     21.732889   21.784909   21.353911 H          1 MOL1         0.0987
      22    H15     22.140188   21.194801   22.981872 H          1 MOL1         0.0987
      23    H16     21.560493   22.851486   22.760530 H          1 MOL1         0.0987
@<TRIPOS>BOND
    1     1     2    1
    2     1     3    1
    3     1     4    1
    4     1     5    1
    5     5     6    1
    6     5     7    1
    7     5     8    1
    8     8     9    1
    9     8    10    1
   10     8    11    1
   11    11    12    1
   12    11    13    1
   13    11    14    1
   14    14    15    1
   15    14    16    1
   16    14    17    1
   17    17    18    1
   18    17    19    1
   19    17    20    1
   20    20    21    1
   21    20    22    1
   22    20    23    1
@<TRIPOS>SUBSTRUCTURE
       1 MOL1            1 RESIDUE      1      MOL     
@<SCITEGIC>MOL_PROPERTY
VConf Rank
SciTegic.value.IntegerValue
822

@<SCITEGIC>MOL_PROPERTY
Conf_Id
SciTegic.value.IntegerValue
83

@<SCITEGIC>MOL_PROPERTY
Delta U+W
SciTegic.value.DoubleValue
1.229

@<SCITEGIC>MOL_PROPERTY
U+W
SciTegic.value.DoubleValue
-7.154

@<SCITEGIC>MOL_PROPERTY
Grad RMS
SciTegic.value.DoubleValue
0.000000

@<SCITEGIC>MOL_PROPERTY
U
SciTegic.value.DoubleValue
48.727

@<SCITEGIC>MOL_PROPERTY
W
SciTegic.value.DoubleValue
-55.880

@<SCITEGIC>MOL_PROPERTY
W(PB)
SciTegic.value.DoubleValue
-57.960

@<SCITEGIC>MOL_PROPERTY
W(SA)
SciTegic.value.DoubleValue
2.080

@<SCITEGIC>MOL_PROPERTY
Valence
SciTegic.value.DoubleValue
2.671

@<SCITEGIC>MOL_PROPERTY
Coulomb
SciTegic.value.DoubleValue
45.371

@<SCITEGIC>MOL_PROPERTY
VdW
SciTegic.value.DoubleValue
0.684

@<SCITEGIC>MOL_PROPERTY
VdW6
SciTegic.value.DoubleValue
-6.511

@<SCITEGIC>MOL_PROPERTY
VdW12
SciTegic.value.DoubleValue
7.195

@<SCITEGIC>MOL_PROPERTY
Bond
SciTegic.value.DoubleValue
0.203

@<SCITEGIC>MOL_PROPERTY
Angle
SciTegic.value.DoubleValue
0.915

@<SCITEGIC>MOL_PROPERTY
Pdih
SciTegic.value.DoubleValue
1.554

@<SCITEGIC>MOL_PROPERTY
Idih
SciTegic.value.DoubleValue
0.000

@<SCITEGIC>MOL_PROPERTY
Tether
SciTegic.value.DoubleValue
0.000

@<TRIPOS>MOLECULE
guest-2_confgen4.mol2 : confsearch ligand conformer 823
          23          22           1
SMALL
USER_CHARGES
 
@<TRIPOS>ATOM
       1    N1      18.185727   18.522094   20.158119 N.4        1 MOL1        -0.5940
       2    H1      17.257618   18.957012   20.161736 H          1 MOL1         0.3649
       3    H2      18.205424   17.842866   20.924842 H          1 MOL1         0.3649
       4    H3      18.264332   17.991771   19.283811 H          1 MOL1         0.3649
       5    C1      19.290415   19.551403   20.294071 C.3        1 MOL1         0.0207
       6    H4      19.231558   20.218563   19.429803 H          1 MOL1         0.0950
       7    H5      20.248872   19.027863   20.252148 H          1 MOL1         0.0950
       8    C2      19.205666   20.384641   21.589373 C.3        1 MOL1        -0.1415
       9    H6      20.006307   21.136108   21.577862 H          1 MOL1         0.0976
      10    H7      18.261210   20.944813   21.593171 H          1 MOL1         0.0976
      11    C3      19.309032   19.548672   22.890188 C.3        1 MOL1        -0.1375
      12    H8      18.468989   18.844022   22.949720 H          1 MOL1         0.0976
      13    H9      19.196163   20.231141   23.742462 H          1 MOL1         0.0976
      14    C4      20.648857   18.779646   23.016277 C.3        1 MOL1        -0.1375
      15    H10     20.774096   18.114563   22.151792 H          1 MOL1         0.0976
      16    H11     21.487296   19.488994   22.984415 H          1 MOL1         0.0976
      17    C5      20.747870   17.921212   24.300695 C.3        1 MOL1        -0.1350
      18    H12     21.669226   17.323880   24.254204 H          1 MOL1         0.0976
      19    H13     19.917419   17.202147   24.332698 H          1 MOL1         0.0976
      20    C6      20.763378   18.756366   25.601318 C.3        1 MOL1        -0.2365
      21    H14     21.565080   19.505916   25.579925 H          1 MOL1         0.0987
      22    H15     20.933105   18.108736   26.471204 H          1 MOL1         0.0987
      23    H16     19.810298   19.275886   25.759371 H          1 MOL1         0.0987
@<TRIPOS>BOND
    1     1     2    1
    2     1     3    1
    3     1     4    1
    4     1     5    1
    5     5     6    1
    6     5     7    1
    7     5     8    1
    8     8     9    1
    9     8    10    1
   10     8    11    1
   11    11    12    1
   12    11    13    1
   13    11    14    1
   14    14    15    1
   15    14    16    1
   16    14    17    1
   17    17    18    1
   18    17    19    1
   19    17    20    1
   20    20    21    1
   21    20    22    1
   22    20    23    1
@<TRIPOS>SUBSTRUCTURE
       1 MOL1            1 RESIDUE      1      MOL     
@<SCITEGIC>MOL_PROPERTY
VConf Rank
SciTegic.value.IntegerValue
823

@<SCITEGIC>MOL_PROPERTY
Conf_Id
SciTegic.value.IntegerValue
50

@<SCITEGIC>MOL_PROPERTY
Delta U+W
SciTegic.value.DoubleValue
1.252

@<SCITEGIC>MOL_PROPERTY
U+W
SciTegic.value.DoubleValue
-7.130

@<SCITEGIC>MOL_PROPERTY
Grad RMS
SciTegic.value.DoubleValue
0.000000

@<SCITEGIC>MOL_PROPERTY
U
SciTegic.value.DoubleValue
48.727

@<SCITEGIC>MOL_PROPERTY
W
SciTegic.value.DoubleValue
-55.857

@<SCITEGIC>MOL_PROPERTY
W(PB)
SciTegic.value.DoubleValue
-57.937

@<SCITEGIC>MOL_PROPERTY
W(SA)
SciTegic.value.DoubleValue
2.080

@<SCITEGIC>MOL_PROPERTY
Valence
SciTegic.value.DoubleValue
2.671

@<SCITEGIC>MOL_PROPERTY
Coulomb
SciTegic.value.DoubleValue
45.371

@<SCITEGIC>MOL_PROPERTY
VdW
SciTegic.value.DoubleValue
0.684

@<SCITEGIC>MOL_PROPERTY
VdW6
SciTegic.value.DoubleValue
-6.511

@<SCITEGIC>MOL_PROPERTY
VdW12
SciTegic.value.DoubleValue
7.196

@<SCITEGIC>MOL_PROPERTY
Bond
SciTegic.value.DoubleValue
0.203

@<SCITEGIC>MOL_PROPERTY
Angle
SciTegic.value.DoubleValue
0.915

@<SCITEGIC>MOL_PROPERTY
Pdih
SciTegic.value.DoubleValue
1.554

@<SCITEGIC>MOL_PROPERTY
Idih
SciTegic.value.DoubleValue
0.000

@<SCITEGIC>MOL_PROPERTY
Tether
SciTegic.value.DoubleValue
0.000

@<TRIPOS>MOLECULE
guest-2_confgen4.mol2 : confsearch ligand conformer 824
          23          22           1
SMALL
USER_CHARGES
 
@<TRIPOS>ATOM
       1    N1      16.920320   18.279013   23.758610 N.4        1 MOL1        -0.5940
       2    H1      17.126817   19.151289   24.254622 H          1 MOL1         0.3649
       3    H2      16.381335   17.689165   24.401651 H          1 MOL1         0.3649
       4    H3      16.299631   18.513992   22.977486 H          1 MOL1         0.3649
       5    C1      18.184305   17.587406   23.286103 C.3        1 MOL1         0.0207
       6    H4      17.889441   16.650457   22.805732 H          1 MOL1         0.0950
       7    H5      18.787021   17.344192   24.165303 H          1 MOL1         0.0950
       8    C2      19.020938   18.425434   22.299943 C.3        1 MOL1        -0.1415
       9    H6      19.845770   17.803008   21.935385 H          1 MOL1         0.0976
      10    H7      18.409880   18.671437   21.421388 H          1 MOL1         0.0976
      11    C3      19.571631   19.725803   22.939047 C.3        1 MOL1        -0.1375
      12    H8      20.104980   19.497333   23.872158 H          1 MOL1         0.0976
      13    H9      18.722436   20.362233   23.221558 H          1 MOL1         0.0976
      14    C4      20.488977   20.538143   21.987898 C.3        1 MOL1        -0.1375
      15    H10     20.196422   20.372695   20.941842 H          1 MOL1         0.0976
      16    H11     20.317460   21.606924   22.177062 H          1 MOL1         0.0976
      17    C5      22.005699   20.271607   22.165999 C.3        1 MOL1        -0.1350
      18    H12     22.308745   20.537286   23.188423 H          1 MOL1         0.0976
      19    H13     22.559006   20.948233   21.499784 H          1 MOL1         0.0976
      20    C6      22.436842   18.819461   21.865303 C.3        1 MOL1        -0.2365
      21    H14     22.096997   18.503021   20.870714 H          1 MOL1         0.0987
      22    H15     22.035871   18.122000   22.610986 H          1 MOL1         0.0987
      23    H16     23.530714   18.731515   21.889798 H          1 MOL1         0.0987
@<TRIPOS>BOND
    1     1     2    1
    2     1     3    1
    3     1     4    1
    4     1     5    1
    5     5     6    1
    6     5     7    1
    7     5     8    1
    8     8     9    1
    9     8    10    1
   10     8    11    1
   11    11    12    1
   12    11    13    1
   13    11    14    1
   14    14    15    1
   15    14    16    1
   16    14    17    1
   17    17    18    1
   18    17    19    1
   19    17    20    1
   20    20    21    1
   21    20    22    1
   22    20    23    1
@<TRIPOS>SUBSTRUCTURE
       1 MOL1            1 RESIDUE      1      MOL     
@<SCITEGIC>MOL_PROPERTY
VConf Rank
SciTegic.value.IntegerValue
824

@<SCITEGIC>MOL_PROPERTY
Conf_Id
SciTegic.value.IntegerValue
55

@<SCITEGIC>MOL_PROPERTY
Delta U+W
SciTegic.value.DoubleValue
3.232

@<SCITEGIC>MOL_PROPERTY
U+W
SciTegic.value.DoubleValue
-5.150

@<SCITEGIC>MOL_PROPERTY
Grad RMS
SciTegic.value.DoubleValue
0.000000

@<SCITEGIC>MOL_PROPERTY
U
SciTegic.value.DoubleValue
50.625

@<SCITEGIC>MOL_PROPERTY
W
SciTegic.value.DoubleValue
-55.776

@<SCITEGIC>MOL_PROPERTY
W(PB)
SciTegic.value.DoubleValue
-57.839

@<SCITEGIC>MOL_PROPERTY
W(SA)
SciTegic.value.DoubleValue
2.064

@<SCITEGIC>MOL_PROPERTY
Valence
SciTegic.value.DoubleValue
4.837

@<SCITEGIC>MOL_PROPERTY
Coulomb
SciTegic.value.DoubleValue
45.097

@<SCITEGIC>MOL_PROPERTY
VdW
SciTegic.value.DoubleValue
0.692

@<SCITEGIC>MOL_PROPERTY
VdW6
SciTegic.value.DoubleValue
-6.655

@<SCITEGIC>MOL_PROPERTY
VdW12
SciTegic.value.DoubleValue
7.347

@<SCITEGIC>MOL_PROPERTY
Bond
SciTegic.value.DoubleValue
0.223

@<SCITEGIC>MOL_PROPERTY
Angle
SciTegic.value.DoubleValue
1.167

@<SCITEGIC>MOL_PROPERTY
Pdih
SciTegic.value.DoubleValue
3.447

@<SCITEGIC>MOL_PROPERTY
Idih
SciTegic.value.DoubleValue
0.000

@<SCITEGIC>MOL_PROPERTY
Tether
SciTegic.value.DoubleValue
0.000

@<TRIPOS>MOLECULE
guest-2_confgen4.mol2 : confsearch ligand conformer 825
          23          22           1
SMALL
USER_CHARGES
 
@<TRIPOS>ATOM
       1    N1      19.007994   21.267607   24.624980 N.4        1 MOL1        -0.5940
       2    H1      18.597368   22.154768   24.316498 H          1 MOL1         0.3649
       3    H2      19.588805   21.477329   25.443927 H          1 MOL1         0.3649
       4    H3      18.236880   20.675612   24.950067 H          1 MOL1         0.3649
       5    C1      19.807063   20.601528   23.523402 C.3        1 MOL1         0.0207
       6    H4      20.241437   19.687636   23.932624 H          1 MOL1         0.0950
       7    H5      20.624410   21.273439   23.247938 H          1 MOL1         0.0950
       8    C2      18.961240   20.280307   22.275530 C.3        1 MOL1        -0.1415
       9    H6      18.108600   19.643072   22.545346 H          1 MOL1         0.0976
      10    H7      18.538095   21.221467   21.899784 H          1 MOL1         0.0976
      11    C3      19.781242   19.620095   21.138349 C.3        1 MOL1        -0.1375
      12    H8      20.786112   20.062581   21.093120 H          1 MOL1         0.0976
      13    H9      19.302738   19.872044   20.181765 H          1 MOL1         0.0976
      14    C4      19.882395   18.074433   21.216907 C.3        1 MOL1        -0.1375
      15    H10     18.875760   17.638251   21.155881 H          1 MOL1         0.0976
      16    H11     20.421097   17.721809   20.326459 H          1 MOL1         0.0976
      17    C5      20.597370   17.539015   22.478906 C.3        1 MOL1        -0.1350
      18    H12     19.990145   17.747212   23.369325 H          1 MOL1         0.0976
      19    H13     21.558663   18.054827   22.611309 H          1 MOL1         0.0976
      20    C6      20.840694   16.017158   22.392730 C.3        1 MOL1        -0.2365
      21    H14     21.478880   15.766587   21.535323 H          1 MOL1         0.0987
      22    H15     19.893999   15.471733   22.285343 H          1 MOL1         0.0987
      23    H16     21.338651   15.652278   23.300437 H          1 MOL1         0.0987
@<TRIPOS>BOND
    1     1     2    1
    2     1     3    1
    3     1     4    1
    4     1     5    1
    5     5     6    1
    6     5     7    1
    7     5     8    1
    8     8     9    1
    9     8    10    1
   10     8    11    1
   11    11    12    1
   12    11    13    1
   13    11    14    1
   14    14    15    1
   15    14    16    1
   16    14    17    1
   17    17    18    1
   18    17    19    1
   19    17    20    1
   20    20    21    1
   21    20    22    1
   22    20    23    1
@<TRIPOS>SUBSTRUCTURE
       1 MOL1            1 RESIDUE      1      MOL     
@<SCITEGIC>MOL_PROPERTY
VConf Rank
SciTegic.value.IntegerValue
825

@<SCITEGIC>MOL_PROPERTY
Conf_Id
SciTegic.value.IntegerValue
93

@<SCITEGIC>MOL_PROPERTY
Delta U+W
SciTegic.value.DoubleValue
2.589

@<SCITEGIC>MOL_PROPERTY
U+W
SciTegic.value.DoubleValue
-5.793

@<SCITEGIC>MOL_PROPERTY
Grad RMS
SciTegic.value.DoubleValue
0.000000

@<SCITEGIC>MOL_PROPERTY
U
SciTegic.value.DoubleValue
50.122

@<SCITEGIC>MOL_PROPERTY
W
SciTegic.value.DoubleValue
-55.915

@<SCITEGIC>MOL_PROPERTY
W(PB)
SciTegic.value.DoubleValue
-58.031

@<SCITEGIC>MOL_PROPERTY
W(SA)
SciTegic.value.DoubleValue
2.115

@<SCITEGIC>MOL_PROPERTY
Valence
SciTegic.value.DoubleValue
4.132

@<SCITEGIC>MOL_PROPERTY
Coulomb
SciTegic.value.DoubleValue
45.536

@<SCITEGIC>MOL_PROPERTY
VdW
SciTegic.value.DoubleValue
0.454

@<SCITEGIC>MOL_PROPERTY
VdW6
SciTegic.value.DoubleValue
-6.262

@<SCITEGIC>MOL_PROPERTY
VdW12
SciTegic.value.DoubleValue
6.715

@<SCITEGIC>MOL_PROPERTY
Bond
SciTegic.value.DoubleValue
0.182

@<SCITEGIC>MOL_PROPERTY
Angle
SciTegic.value.DoubleValue
1.157

@<SCITEGIC>MOL_PROPERTY
Pdih
SciTegic.value.DoubleValue
2.794

@<SCITEGIC>MOL_PROPERTY
Idih
SciTegic.value.DoubleValue
0.000

@<SCITEGIC>MOL_PROPERTY
Tether
SciTegic.value.DoubleValue
0.000

@<TRIPOS>MOLECULE
guest-2_confgen4.mol2 : confsearch ligand conformer 826
          23          22           1
SMALL
USER_CHARGES
 
@<TRIPOS>ATOM
       1    N1      19.093743   16.902438   20.315241 N.4        1 MOL1        -0.5940
       2    H1      18.879696   17.679075   19.681383 H          1 MOL1         0.3649
       3    H2      18.256530   16.311336   20.356144 H          1 MOL1         0.3649
       4    H3      19.830100   16.344838   19.870619 H          1 MOL1         0.3649
       5    C1      19.506272   17.390563   21.688995 C.3        1 MOL1         0.0207
       6    H4      19.689890   16.513826   22.315904 H          1 MOL1         0.0950
       7    H5      18.665204   17.941833   22.113314 H          1 MOL1         0.0950
       8    C2      20.767246   18.276501   21.659936 C.3        1 MOL1        -0.1415
       9    H6      21.585430   17.689577   21.221627 H          1 MOL1         0.0976
      10    H7      20.613903   19.138031   20.996525 H          1 MOL1         0.0976
      11    C3      21.204846   18.758050   23.066379 C.3        1 MOL1        -0.1375
      12    H8      22.290860   18.924552   23.047664 H          1 MOL1         0.0976
      13    H9      21.039423   17.961627   23.805262 H          1 MOL1         0.0976
      14    C4      20.538836   20.074868   23.543764 C.3        1 MOL1        -0.1375
      15    H10     20.978750   20.348193   24.512893 H          1 MOL1         0.0976
      16    H11     20.798387   20.887998   22.851850 H          1 MOL1         0.0976
      17    C5      19.001866   20.001416   23.694856 C.3        1 MOL1        -0.1350
      18    H12     18.726503   19.121569   24.292954 H          1 MOL1         0.0976
      19    H13     18.534374   19.884663   22.708582 H          1 MOL1         0.0976
      20    C6      18.434172   21.272163   24.362393 C.3        1 MOL1        -0.2365
      21    H14     17.341961   21.208045   24.451792 H          1 MOL1         0.0987
      22    H15     18.672026   22.167279   23.772951 H          1 MOL1         0.0987
      23    H16     18.846679   21.407162   25.370772 H          1 MOL1         0.0987
@<TRIPOS>BOND
    1     1     2    1
    2     1     3    1
    3     1     4    1
    4     1     5    1
    5     5     6    1
    6     5     7    1
    7     5     8    1
    8     8     9    1
    9     8    10    1
   10     8    11    1
   11    11    12    1
   12    11    13    1
   13    11    14    1
   14    14    15    1
   15    14    16    1
   16    14    17    1
   17    17    18    1
   18    17    19    1
   19    17    20    1
   20    20    21    1
   21    20    22    1
   22    20    23    1
@<TRIPOS>SUBSTRUCTURE
       1 MOL1            1 RESIDUE      1      MOL     
@<SCITEGIC>MOL_PROPERTY
VConf Rank
SciTegic.value.IntegerValue
826

@<SCITEGIC>MOL_PROPERTY
Conf_Id
SciTegic.value.IntegerValue
70

@<SCITEGIC>MOL_PROPERTY
Delta U+W
SciTegic.value.DoubleValue
2.599

@<SCITEGIC>MOL_PROPERTY
U+W
SciTegic.value.DoubleValue
-5.783

@<SCITEGIC>MOL_PROPERTY
Grad RMS
SciTegic.value.DoubleValue
0.000000

@<SCITEGIC>MOL_PROPERTY
U
SciTegic.value.DoubleValue
50.122

@<SCITEGIC>MOL_PROPERTY
W
SciTegic.value.DoubleValue
-55.906

@<SCITEGIC>MOL_PROPERTY
W(PB)
SciTegic.value.DoubleValue
-58.010

@<SCITEGIC>MOL_PROPERTY
W(SA)
SciTegic.value.DoubleValue
2.105

@<SCITEGIC>MOL_PROPERTY
Valence
SciTegic.value.DoubleValue
4.132

@<SCITEGIC>MOL_PROPERTY
Coulomb
SciTegic.value.DoubleValue
45.536

@<SCITEGIC>MOL_PROPERTY
VdW
SciTegic.value.DoubleValue
0.454

@<SCITEGIC>MOL_PROPERTY
VdW6
SciTegic.value.DoubleValue
-6.262

@<SCITEGIC>MOL_PROPERTY
VdW12
SciTegic.value.DoubleValue
6.715

@<SCITEGIC>MOL_PROPERTY
Bond
SciTegic.value.DoubleValue
0.182

@<SCITEGIC>MOL_PROPERTY
Angle
SciTegic.value.DoubleValue
1.157

@<SCITEGIC>MOL_PROPERTY
Pdih
SciTegic.value.DoubleValue
2.794

@<SCITEGIC>MOL_PROPERTY
Idih
SciTegic.value.DoubleValue
0.000

@<SCITEGIC>MOL_PROPERTY
Tether
SciTegic.value.DoubleValue
0.000

@<TRIPOS>MOLECULE
guest-2_confgen4.mol2 : confsearch ligand conformer 827
          23          22           1
SMALL
USER_CHARGES
 
@<TRIPOS>ATOM
       1    N1      19.284749   18.417973   25.321875 N.4        1 MOL1        -0.5940
       2    H1      20.000172   18.371059   26.054320 H          1 MOL1         0.3649
       3    H2      18.423535   18.027909   25.719272 H          1 MOL1         0.3649
       4    H3      19.107998   19.409446   25.134244 H          1 MOL1         0.3649
       5    C1      19.712703   17.679236   24.069134 C.3        1 MOL1         0.0207
       6    H4      18.896609   17.738540   23.344277 H          1 MOL1         0.0950
       7    H5      19.855433   16.628209   24.334587 H          1 MOL1         0.0950
       8    C2      21.008500   18.229249   23.439706 C.3        1 MOL1        -0.1415
       9    H6      21.828280   18.132866   24.163851 H          1 MOL1         0.0976
      10    H7      21.285888   17.594561   22.588447 H          1 MOL1         0.0976
      11    C3      20.907204   19.707025   22.978271 C.3        1 MOL1        -0.1375
      12    H8      21.857494   19.997273   22.509328 H          1 MOL1         0.0976
      13    H9      20.801409   20.354785   23.858866 H          1 MOL1         0.0976
      14    C4      19.745962   20.005953   21.994931 C.3        1 MOL1        -0.1375
      15    H10     18.780739   19.810528   22.480776 H          1 MOL1         0.0976
      16    H11     19.756020   21.080103   21.763765 H          1 MOL1         0.0976
      17    C5      19.834519   19.207351   20.673081 C.3        1 MOL1        -0.1350
      18    H12     19.754753   18.130828   20.874758 H          1 MOL1         0.0976
      19    H13     20.815022   19.372298   20.204979 H          1 MOL1         0.0976
      20    C6      18.720601   19.615602   19.685711 C.3        1 MOL1        -0.2365
      21    H14     18.796625   19.038124   18.755252 H          1 MOL1         0.0987
      22    H15     18.791873   20.680294   19.427749 H          1 MOL1         0.0987
      23    H16     17.726728   19.433543   20.114985 H          1 MOL1         0.0987
@<TRIPOS>BOND
    1     1     2    1
    2     1     3    1
    3     1     4    1
    4     1     5    1
    5     5     6    1
    6     5     7    1
    7     5     8    1
    8     8     9    1
    9     8    10    1
   10     8    11    1
   11    11    12    1
   12    11    13    1
   13    11    14    1
   14    14    15    1
   15    14    16    1
   16    14    17    1
   17    17    18    1
   18    17    19    1
   19    17    20    1
   20    20    21    1
   21    20    22    1
   22    20    23    1
@<TRIPOS>SUBSTRUCTURE
       1 MOL1            1 RESIDUE      1      MOL     
@<SCITEGIC>MOL_PROPERTY
VConf Rank
SciTegic.value.IntegerValue
827

@<SCITEGIC>MOL_PROPERTY
Conf_Id
SciTegic.value.IntegerValue
72

@<SCITEGIC>MOL_PROPERTY
Delta U+W
SciTegic.value.DoubleValue
1.051

@<SCITEGIC>MOL_PROPERTY
U+W
SciTegic.value.DoubleValue
-7.331

@<SCITEGIC>MOL_PROPERTY
Grad RMS
SciTegic.value.DoubleValue
0.000000

@<SCITEGIC>MOL_PROPERTY
U
SciTegic.value.DoubleValue
48.590

@<SCITEGIC>MOL_PROPERTY
W
SciTegic.value.DoubleValue
-55.922

@<SCITEGIC>MOL_PROPERTY
W(PB)
SciTegic.value.DoubleValue
-58.012

@<SCITEGIC>MOL_PROPERTY
W(SA)
SciTegic.value.DoubleValue
2.090

@<SCITEGIC>MOL_PROPERTY
Valence
SciTegic.value.DoubleValue
2.601

@<SCITEGIC>MOL_PROPERTY
Coulomb
SciTegic.value.DoubleValue
45.520

@<SCITEGIC>MOL_PROPERTY
VdW
SciTegic.value.DoubleValue
0.469

@<SCITEGIC>MOL_PROPERTY
VdW6
SciTegic.value.DoubleValue
-6.867

@<SCITEGIC>MOL_PROPERTY
VdW12
SciTegic.value.DoubleValue
7.336

@<SCITEGIC>MOL_PROPERTY
Bond
SciTegic.value.DoubleValue
0.205

@<SCITEGIC>MOL_PROPERTY
Angle
SciTegic.value.DoubleValue
0.962

@<SCITEGIC>MOL_PROPERTY
Pdih
SciTegic.value.DoubleValue
1.434

@<SCITEGIC>MOL_PROPERTY
Idih
SciTegic.value.DoubleValue
0.000

@<SCITEGIC>MOL_PROPERTY
Tether
SciTegic.value.DoubleValue
0.000

@<TRIPOS>MOLECULE
guest-2_confgen4.mol2 : confsearch ligand conformer 828
          23          22           1
SMALL
USER_CHARGES
 
@<TRIPOS>ATOM
       1    N1      22.608622   18.675179   23.865321 N.4        1 MOL1        -0.5940
       2    H1      22.887461   18.424647   24.820014 H          1 MOL1         0.3649
       3    H2      23.305056   19.341947   23.517206 H          1 MOL1         0.3649
       4    H3      22.693668   17.826138   23.297378 H          1 MOL1         0.3649
       5    C1      21.206563   19.247765   23.820460 C.3        1 MOL1         0.0207
       6    H4      21.180522   20.129196   24.466796 H          1 MOL1         0.0950
       7    H5      20.524583   18.499000   24.231784 H          1 MOL1         0.0950
       8    C2      20.757115   19.634399   22.399077 C.3        1 MOL1        -0.1415
       9    H6      21.469431   20.358244   21.981484 H          1 MOL1         0.0976
      10    H7      20.795262   18.753104   21.746164 H          1 MOL1         0.0976
      11    C3      19.338291   20.254958   22.368965 C.3        1 MOL1        -0.1375
      12    H8      19.087707   20.527941   21.335216 H          1 MOL1         0.0976
      13    H9      19.352626   21.200093   22.929167 H          1 MOL1         0.0976
      14    C4      18.219167   19.350769   22.952716 C.3        1 MOL1        -0.1375
      15    H10     18.384553   19.215010   24.029990 H          1 MOL1         0.0976
      16    H11     17.260254   19.880098   22.866313 H          1 MOL1         0.0976
      17    C5      18.082593   17.957750   22.287086 C.3        1 MOL1        -0.1350
      18    H12     17.273692   17.408051   22.788285 H          1 MOL1         0.0976
      19    H13     18.993802   17.367179   22.451531 H          1 MOL1         0.0976
      20    C6      17.772634   18.028902   20.774678 C.3        1 MOL1        -0.2365
      21    H14     16.871320   18.625911   20.584534 H          1 MOL1         0.0987
      22    H15     17.601107   17.023318   20.369435 H          1 MOL1         0.0987
      23    H16     18.604137   18.473741   20.214072 H          1 MOL1         0.0987
@<TRIPOS>BOND
    1     1     2    1
    2     1     3    1
    3     1     4    1
    4     1     5    1
    5     5     6    1
    6     5     7    1
    7     5     8    1
    8     8     9    1
    9     8    10    1
   10     8    11    1
   11    11    12    1
   12    11    13    1
   13    11    14    1
   14    14    15    1
   15    14    16    1
   16    14    17    1
   17    17    18    1
   18    17    19    1
   19    17    20    1
   20    20    21    1
   21    20    22    1
   22    20    23    1
@<TRIPOS>SUBSTRUCTURE
       1 MOL1            1 RESIDUE      1      MOL     
@<SCITEGIC>MOL_PROPERTY
VConf Rank
SciTegic.value.IntegerValue
828

@<SCITEGIC>MOL_PROPERTY
Conf_Id
SciTegic.value.IntegerValue
26

@<SCITEGIC>MOL_PROPERTY
Delta U+W
SciTegic.value.DoubleValue
1.076

@<SCITEGIC>MOL_PROPERTY
U+W
SciTegic.value.DoubleValue
-7.306

@<SCITEGIC>MOL_PROPERTY
Grad RMS
SciTegic.value.DoubleValue
0.000000

@<SCITEGIC>MOL_PROPERTY
U
SciTegic.value.DoubleValue
48.641

@<SCITEGIC>MOL_PROPERTY
W
SciTegic.value.DoubleValue
-55.947

@<SCITEGIC>MOL_PROPERTY
W(PB)
SciTegic.value.DoubleValue
-58.031

@<SCITEGIC>MOL_PROPERTY
W(SA)
SciTegic.value.DoubleValue
2.084

@<SCITEGIC>MOL_PROPERTY
Valence
SciTegic.value.DoubleValue
2.922

@<SCITEGIC>MOL_PROPERTY
Coulomb
SciTegic.value.DoubleValue
45.269

@<SCITEGIC>MOL_PROPERTY
VdW
SciTegic.value.DoubleValue
0.449

@<SCITEGIC>MOL_PROPERTY
VdW6
SciTegic.value.DoubleValue
-7.045

@<SCITEGIC>MOL_PROPERTY
VdW12
SciTegic.value.DoubleValue
7.494

@<SCITEGIC>MOL_PROPERTY
Bond
SciTegic.value.DoubleValue
0.220

@<SCITEGIC>MOL_PROPERTY
Angle
SciTegic.value.DoubleValue
1.205

@<SCITEGIC>MOL_PROPERTY
Pdih
SciTegic.value.DoubleValue
1.497

@<SCITEGIC>MOL_PROPERTY
Idih
SciTegic.value.DoubleValue
0.000

@<SCITEGIC>MOL_PROPERTY
Tether
SciTegic.value.DoubleValue
0.000

@<TRIPOS>MOLECULE
guest-2_confgen4.mol2 : confsearch ligand conformer 829
          23          22           1
SMALL
USER_CHARGES
 
@<TRIPOS>ATOM
       1    N1      17.322469   18.060821   20.960995 N.4        1 MOL1        -0.5940
       2    H1      17.501909   17.885275   19.967130 H          1 MOL1         0.3649
       3    H2      16.337678   18.335833   21.041701 H          1 MOL1         0.3649
       4    H3      17.422682   17.164716   21.448453 H          1 MOL1         0.3649
       5    C1      18.250040   19.118131   21.524326 C.3        1 MOL1         0.0207
       6    H4      17.983499   19.274715   22.572835 H          1 MOL1         0.0950
       7    H5      18.070685   20.049590   20.980668 H          1 MOL1         0.0950
       8    C2      19.737916   18.734948   21.418418 C.3        1 MOL1        -0.1415
       9    H6      19.916619   17.793199   21.952840 H          1 MOL1         0.0976
      10    H7      19.985597   18.543681   20.365897 H          1 MOL1         0.0976
      11    C3      20.679404   19.838750   21.960895 C.3        1 MOL1        -0.1375
      12    H8      20.571992   20.735545   21.335169 H          1 MOL1         0.0976
      13    H9      21.721333   19.514842   21.836722 H          1 MOL1         0.0976
      14    C4      20.432425   20.236012   23.441416 C.3        1 MOL1        -0.1375
      15    H10     21.161143   21.008497   23.723207 H          1 MOL1         0.0976
      16    H11     19.447439   20.713467   23.531638 H          1 MOL1         0.0976
      17    C5      20.520036   19.071192   24.460113 C.3        1 MOL1        -0.1350
      18    H12     19.730301   18.333918   24.262967 H          1 MOL1         0.0976
      19    H13     20.316473   19.468332   25.464371 H          1 MOL1         0.0976
      20    C6      21.897275   18.370065   24.472447 C.3        1 MOL1        -0.2365
      21    H14     22.098740   17.862240   23.521088 H          1 MOL1         0.0987
      22    H15     21.936387   17.612919   25.266198 H          1 MOL1         0.0987
      23    H16     22.704934   19.090578   24.655445 H          1 MOL1         0.0987
@<TRIPOS>BOND
    1     1     2    1
    2     1     3    1
    3     1     4    1
    4     1     5    1
    5     5     6    1
    6     5     7    1
    7     5     8    1
    8     8     9    1
    9     8    10    1
   10     8    11    1
   11    11    12    1
   12    11    13    1
   13    11    14    1
   14    14    15    1
   15    14    16    1
   16    14    17    1
   17    17    18    1
   18    17    19    1
   19    17    20    1
   20    20    21    1
   21    20    22    1
   22    20    23    1
@<TRIPOS>SUBSTRUCTURE
       1 MOL1            1 RESIDUE      1      MOL     
@<SCITEGIC>MOL_PROPERTY
VConf Rank
SciTegic.value.IntegerValue
829

@<SCITEGIC>MOL_PROPERTY
Conf_Id
SciTegic.value.IntegerValue
90

@<SCITEGIC>MOL_PROPERTY
Delta U+W
SciTegic.value.DoubleValue
1.131

@<SCITEGIC>MOL_PROPERTY
U+W
SciTegic.value.DoubleValue
-7.251

@<SCITEGIC>MOL_PROPERTY
Grad RMS
SciTegic.value.DoubleValue
0.000000

@<SCITEGIC>MOL_PROPERTY
U
SciTegic.value.DoubleValue
48.641

@<SCITEGIC>MOL_PROPERTY
W
SciTegic.value.DoubleValue
-55.892

@<SCITEGIC>MOL_PROPERTY
W(PB)
SciTegic.value.DoubleValue
-57.962

@<SCITEGIC>MOL_PROPERTY
W(SA)
SciTegic.value.DoubleValue
2.070

@<SCITEGIC>MOL_PROPERTY
Valence
SciTegic.value.DoubleValue
2.922

@<SCITEGIC>MOL_PROPERTY
Coulomb
SciTegic.value.DoubleValue
45.269

@<SCITEGIC>MOL_PROPERTY
VdW
SciTegic.value.DoubleValue
0.450

@<SCITEGIC>MOL_PROPERTY
VdW6
SciTegic.value.DoubleValue
-7.045

@<SCITEGIC>MOL_PROPERTY
VdW12
SciTegic.value.DoubleValue
7.495

@<SCITEGIC>MOL_PROPERTY
Bond
SciTegic.value.DoubleValue
0.220

@<SCITEGIC>MOL_PROPERTY
Angle
SciTegic.value.DoubleValue
1.205

@<SCITEGIC>MOL_PROPERTY
Pdih
SciTegic.value.DoubleValue
1.497

@<SCITEGIC>MOL_PROPERTY
Idih
SciTegic.value.DoubleValue
0.000

@<SCITEGIC>MOL_PROPERTY
Tether
SciTegic.value.DoubleValue
0.000

@<TRIPOS>MOLECULE
guest-2_confgen4.mol2 : confsearch ligand conformer 830
          23          22           1
SMALL
USER_CHARGES
 
@<TRIPOS>ATOM
       1    N1      20.976322   19.576044   24.874429 N.4        1 MOL1        -0.5940
       2    H1      20.684269   19.971207   25.774653 H          1 MOL1         0.3649
       3    H2      20.667664   20.226465   24.145522 H          1 MOL1         0.3649
       4    H3      22.001266   19.575107   24.866589 H          1 MOL1         0.3649
       5    C1      20.410534   18.186089   24.659243 C.3        1 MOL1         0.0207
       6    H4      19.320677   18.252252   24.709745 H          1 MOL1         0.0950
       7    H5      20.750417   17.556521   25.486070 H          1 MOL1         0.0950
       8    C2      20.832700   17.545447   23.321243 C.3        1 MOL1        -0.1415
       9    H6      21.925602   17.440712   23.301575 H          1 MOL1         0.0976
      10    H7      20.427106   16.526010   23.275577 H          1 MOL1         0.0976
      11    C3      20.370881   18.335758   22.071158 C.3        1 MOL1        -0.1375
      12    H8      20.729813   17.812668   21.174132 H          1 MOL1         0.0976
      13    H9      20.852084   19.321904   22.063208 H          1 MOL1         0.0976
      14    C4      18.831391   18.491519   21.986413 C.3        1 MOL1        -0.1375
      15    H10     18.365328   17.501082   22.081745 H          1 MOL1         0.0976
      16    H11     18.463779   19.089209   22.831138 H          1 MOL1         0.0976
      17    C5      18.351804   19.135134   20.663104 C.3        1 MOL1        -0.1350
      18    H12     17.253357   19.111266   20.637028 H          1 MOL1         0.0976
      19    H13     18.692319   18.530987   19.810557 H          1 MOL1         0.0976
      20    C6      18.822629   20.596668   20.485966 C.3        1 MOL1        -0.2365
      21    H14     18.517171   21.216310   21.339006 H          1 MOL1         0.0987
      22    H15     18.383813   21.034086   19.579852 H          1 MOL1         0.0987
      23    H16     19.913320   20.659958   20.386993 H          1 MOL1         0.0987
@<TRIPOS>BOND
    1     1     2    1
    2     1     3    1
    3     1     4    1
    4     1     5    1
    5     5     6    1
    6     5     7    1
    7     5     8    1
    8     8     9    1
    9     8    10    1
   10     8    11    1
   11    11    12    1
   12    11    13    1
   13    11    14    1
   14    14    15    1
   15    14    16    1
   16    14    17    1
   17    17    18    1
   18    17    19    1
   19    17    20    1
   20    20    21    1
   21    20    22    1
   22    20    23    1
@<TRIPOS>SUBSTRUCTURE
       1 MOL1            1 RESIDUE      1      MOL     
@<SCITEGIC>MOL_PROPERTY
VConf Rank
SciTegic.value.IntegerValue
830

@<SCITEGIC>MOL_PROPERTY
Conf_Id
SciTegic.value.IntegerValue
85

@<SCITEGIC>MOL_PROPERTY
Delta U+W
SciTegic.value.DoubleValue
1.193

@<SCITEGIC>MOL_PROPERTY
U+W
SciTegic.value.DoubleValue
-7.189

@<SCITEGIC>MOL_PROPERTY
Grad RMS
SciTegic.value.DoubleValue
0.000000

@<SCITEGIC>MOL_PROPERTY
U
SciTegic.value.DoubleValue
48.775

@<SCITEGIC>MOL_PROPERTY
W
SciTegic.value.DoubleValue
-55.965

@<SCITEGIC>MOL_PROPERTY
W(PB)
SciTegic.value.DoubleValue
-58.038

@<SCITEGIC>MOL_PROPERTY
W(SA)
SciTegic.value.DoubleValue
2.073

@<SCITEGIC>MOL_PROPERTY
Valence
SciTegic.value.DoubleValue
2.602

@<SCITEGIC>MOL_PROPERTY
Coulomb
SciTegic.value.DoubleValue
45.581

@<SCITEGIC>MOL_PROPERTY
VdW
SciTegic.value.DoubleValue
0.592

@<SCITEGIC>MOL_PROPERTY
VdW6
SciTegic.value.DoubleValue
-6.616

@<SCITEGIC>MOL_PROPERTY
VdW12
SciTegic.value.DoubleValue
7.208

@<SCITEGIC>MOL_PROPERTY
Bond
SciTegic.value.DoubleValue
0.196

@<SCITEGIC>MOL_PROPERTY
Angle
SciTegic.value.DoubleValue
0.832

@<SCITEGIC>MOL_PROPERTY
Pdih
SciTegic.value.DoubleValue
1.574

@<SCITEGIC>MOL_PROPERTY
Idih
SciTegic.value.DoubleValue
0.000

@<SCITEGIC>MOL_PROPERTY
Tether
SciTegic.value.DoubleValue
0.000

@<TRIPOS>MOLECULE
guest-2_confgen4.mol2 : confsearch ligand conformer 831
          23          22           1
SMALL
USER_CHARGES
 
@<TRIPOS>ATOM
       1    N1      21.784295   18.994826   22.776327 N.4        1 MOL1        -0.5940
       2    H1      21.016727   18.468187   23.205467 H          1 MOL1         0.3649
       3    H2      22.386528   19.333450   23.534584 H          1 MOL1         0.3649
       4    H3      22.340512   18.331873   22.226664 H          1 MOL1         0.3649
       5    C1      21.262157   20.133079   21.921098 C.3        1 MOL1         0.0207
       6    H4      22.133590   20.641919   21.500152 H          1 MOL1         0.0950
       7    H5      20.734107   20.841393   22.564979 H          1 MOL1         0.0950
       8    C2      20.339019   19.681243   20.771151 C.3        1 MOL1        -0.1415
       9    H6      20.345233   20.471101   20.008311 H          1 MOL1         0.0976
      10    H7      20.761296   18.792439   20.283726 H          1 MOL1         0.0976
      11    C3      18.861779   19.420603   21.171074 C.3        1 MOL1        -0.1375
      12    H8      18.313847   19.163501   20.253917 H          1 MOL1         0.0976
      13    H9      18.402602   20.349717   21.536276 H          1 MOL1         0.0976
      14    C4      18.643938   18.278308   22.196241 C.3        1 MOL1        -0.1375
      15    H10     17.711605   17.754824   21.942357 H          1 MOL1         0.0976
      16    H11     19.439290   17.527174   22.101699 H          1 MOL1         0.0976
      17    C5      18.522966   18.783243   23.654839 C.3        1 MOL1        -0.1350
      18    H12     17.618038   19.399731   23.750668 H          1 MOL1         0.0976
      19    H13     19.362822   19.437285   23.917797 H          1 MOL1         0.0976
      20    C6      18.448142   17.613842   24.659194 C.3        1 MOL1        -0.2365
      21    H14     17.582680   16.971115   24.451234 H          1 MOL1         0.0987
      22    H15     18.347665   17.990407   25.685489 H          1 MOL1         0.0987
      23    H16     19.351967   16.992577   24.615650 H          1 MOL1         0.0987
@<TRIPOS>BOND
    1     1     2    1
    2     1     3    1
    3     1     4    1
    4     1     5    1
    5     5     6    1
    6     5     7    1
    7     5     8    1
    8     8     9    1
    9     8    10    1
   10     8    11    1
   11    11    12    1
   12    11    13    1
   13    11    14    1
   14    14    15    1
   15    14    16    1
   16    14    17    1
   17    17    18    1
   18    17    19    1
   19    17    20    1
   20    20    21    1
   21    20    22    1
   22    20    23    1
@<TRIPOS>SUBSTRUCTURE
       1 MOL1            1 RESIDUE      1      MOL     
@<SCITEGIC>MOL_PROPERTY
VConf Rank
SciTegic.value.IntegerValue
831

@<SCITEGIC>MOL_PROPERTY
Conf_Id
SciTegic.value.IntegerValue
82

@<SCITEGIC>MOL_PROPERTY
Delta U+W
SciTegic.value.DoubleValue
5.994

@<SCITEGIC>MOL_PROPERTY
U+W
SciTegic.value.DoubleValue
-2.388

@<SCITEGIC>MOL_PROPERTY
Grad RMS
SciTegic.value.DoubleValue
0.000000

@<SCITEGIC>MOL_PROPERTY
U
SciTegic.value.DoubleValue
52.836

@<SCITEGIC>MOL_PROPERTY
W
SciTegic.value.DoubleValue
-55.224

@<SCITEGIC>MOL_PROPERTY
W(PB)
SciTegic.value.DoubleValue
-57.261

@<SCITEGIC>MOL_PROPERTY
W(SA)
SciTegic.value.DoubleValue
2.037

@<SCITEGIC>MOL_PROPERTY
Valence
SciTegic.value.DoubleValue
5.785

@<SCITEGIC>MOL_PROPERTY
Coulomb
SciTegic.value.DoubleValue
46.744

@<SCITEGIC>MOL_PROPERTY
VdW
SciTegic.value.DoubleValue
0.307

@<SCITEGIC>MOL_PROPERTY
VdW6
SciTegic.value.DoubleValue
-7.672

@<SCITEGIC>MOL_PROPERTY
VdW12
SciTegic.value.DoubleValue
7.979

@<SCITEGIC>MOL_PROPERTY
Bond
SciTegic.value.DoubleValue
0.217

@<SCITEGIC>MOL_PROPERTY
Angle
SciTegic.value.DoubleValue
1.470

@<SCITEGIC>MOL_PROPERTY
Pdih
SciTegic.value.DoubleValue
4.098

@<SCITEGIC>MOL_PROPERTY
Idih
SciTegic.value.DoubleValue
0.000

@<SCITEGIC>MOL_PROPERTY
Tether
SciTegic.value.DoubleValue
0.000

@<TRIPOS>MOLECULE
guest-2_confgen4.mol2 : confsearch ligand conformer 832
          23          22           1
SMALL
USER_CHARGES
 
@<TRIPOS>ATOM
       1    N1      19.349184   19.211588   20.566270 N.4        1 MOL1        -0.5940
       2    H1      19.159886   20.162049   20.231895 H          1 MOL1         0.3649
       3    H2      19.525244   18.632908   19.737757 H          1 MOL1         0.3649
       4    H3      20.218745   19.245303   21.107936 H          1 MOL1         0.3649
       5    C1      18.201921   18.670578   21.397385 C.3        1 MOL1         0.0207
       6    H4      18.425670   17.636423   21.672318 H          1 MOL1         0.0950
       7    H5      17.316678   18.666972   20.755637 H          1 MOL1         0.0950
       8    C2      17.901452   19.496583   22.664726 C.3        1 MOL1        -0.1415
       9    H6      17.933684   20.567888   22.425689 H          1 MOL1         0.0976
      10    H7      16.864799   19.288083   22.960897 H          1 MOL1         0.0976
      11    C3      18.812673   19.193327   23.884491 C.3        1 MOL1        -0.1375
      12    H8      18.677142   18.150671   24.203818 H          1 MOL1         0.0976
      13    H9      18.453359   19.805895   24.723036 H          1 MOL1         0.0976
      14    C4      20.318831   19.497495   23.678980 C.3        1 MOL1        -0.1375
      15    H10     20.445686   20.311302   22.952791 H          1 MOL1         0.0976
      16    H11     20.729948   19.878427   24.624290 H          1 MOL1         0.0976
      17    C5      21.142163   18.251382   23.271022 C.3        1 MOL1        -0.1350
      18    H12     20.689204   17.741979   22.412174 H          1 MOL1         0.0976
      19    H13     21.130184   17.523922   24.094911 H          1 MOL1         0.0976
      20    C6      22.604337   18.617094   22.939165 C.3        1 MOL1        -0.2365
      21    H14     22.658364   19.318857   22.096920 H          1 MOL1         0.0987
      22    H15     23.175871   17.720141   22.667128 H          1 MOL1         0.0987
      23    H16     23.099418   19.081720   23.801943 H          1 MOL1         0.0987
@<TRIPOS>BOND
    1     1     2    1
    2     1     3    1
    3     1     4    1
    4     1     5    1
    5     5     6    1
    6     5     7    1
    7     5     8    1
    8     8     9    1
    9     8    10    1
   10     8    11    1
   11    11    12    1
   12    11    13    1
   13    11    14    1
   14    14    15    1
   15    14    16    1
   16    14    17    1
   17    17    18    1
   18    17    19    1
   19    17    20    1
   20    20    21    1
   21    20    22    1
   22    20    23    1
@<TRIPOS>SUBSTRUCTURE
       1 MOL1            1 RESIDUE      1      MOL     
@<SCITEGIC>MOL_PROPERTY
VConf Rank
SciTegic.value.IntegerValue
832

@<SCITEGIC>MOL_PROPERTY
Conf_Id
SciTegic.value.IntegerValue
5

@<SCITEGIC>MOL_PROPERTY
Delta U+W
SciTegic.value.DoubleValue
6.087

@<SCITEGIC>MOL_PROPERTY
U+W
SciTegic.value.DoubleValue
-2.295

@<SCITEGIC>MOL_PROPERTY
Grad RMS
SciTegic.value.DoubleValue
0.000000

@<SCITEGIC>MOL_PROPERTY
U
SciTegic.value.DoubleValue
52.836

@<SCITEGIC>MOL_PROPERTY
W
SciTegic.value.DoubleValue
-55.131

@<SCITEGIC>MOL_PROPERTY
W(PB)
SciTegic.value.DoubleValue
-57.202

@<SCITEGIC>MOL_PROPERTY
W(SA)
SciTegic.value.DoubleValue
2.071

@<SCITEGIC>MOL_PROPERTY
Valence
SciTegic.value.DoubleValue
5.785

@<SCITEGIC>MOL_PROPERTY
Coulomb
SciTegic.value.DoubleValue
46.744

@<SCITEGIC>MOL_PROPERTY
VdW
SciTegic.value.DoubleValue
0.307

@<SCITEGIC>MOL_PROPERTY
VdW6
SciTegic.value.DoubleValue
-7.672

@<SCITEGIC>MOL_PROPERTY
VdW12
SciTegic.value.DoubleValue
7.980

@<SCITEGIC>MOL_PROPERTY
Bond
SciTegic.value.DoubleValue
0.217

@<SCITEGIC>MOL_PROPERTY
Angle
SciTegic.value.DoubleValue
1.470

@<SCITEGIC>MOL_PROPERTY
Pdih
SciTegic.value.DoubleValue
4.098

@<SCITEGIC>MOL_PROPERTY
Idih
SciTegic.value.DoubleValue
0.000

@<SCITEGIC>MOL_PROPERTY
Tether
SciTegic.value.DoubleValue
0.000

@<TRIPOS>MOLECULE
guest-2_confgen4.mol2 : confsearch ligand conformer 833
          23          22           1
SMALL
USER_CHARGES
 
@<TRIPOS>ATOM
       1    N1      16.198847   19.635187   21.333520 N.4        1 MOL1        -0.5940
       2    H1      16.394665   20.532081   20.877320 H          1 MOL1         0.3649
       3    H2      15.237867   19.685181   21.688643 H          1 MOL1         0.3649
       4    H3      16.209093   18.916483   20.602600 H          1 MOL1         0.3649
       5    C1      17.191829   19.333408   22.437519 C.3        1 MOL1         0.0207
       6    H4      16.906940   18.383127   22.897192 H          1 MOL1         0.0950
       7    H5      17.106361   20.119662   23.192500 H          1 MOL1         0.0950
       8    C2      18.644852   19.251680   21.936897 C.3        1 MOL1        -0.1415
       9    H6      18.722455   18.471989   21.167379 H          1 MOL1         0.0976
      10    H7      18.921129   20.202370   21.461547 H          1 MOL1         0.0976
      11    C3      19.624092   18.943053   23.091030 C.3        1 MOL1        -0.1375
      12    H8      19.341133   17.993929   23.567371 H          1 MOL1         0.0976
      13    H9      19.539622   19.722492   23.861187 H          1 MOL1         0.0976
      14    C4      21.086998   18.858649   22.599315 C.3        1 MOL1        -0.1375
      15    H10     21.171655   18.079238   21.829338 H          1 MOL1         0.0976
      16    H11     21.370090   19.807601   22.123014 H          1 MOL1         0.0976
      17    C5      22.066088   18.550070   23.753837 C.3        1 MOL1        -0.1350
      18    H12     21.788504   17.600236   24.232100 H          1 MOL1         0.0976
      19    H13     21.986930   19.328450   24.525738 H          1 MOL1         0.0976
      20    C6      23.525780   18.466547   23.259032 C.3        1 MOL1        -0.2365
      21    H14     24.205647   18.246871   24.092440 H          1 MOL1         0.0987
      22    H15     23.843867   19.414512   22.805808 H          1 MOL1         0.0987
      23    H16     23.643886   17.672813   22.509854 H          1 MOL1         0.0987
@<TRIPOS>BOND
    1     1     2    1
    2     1     3    1
    3     1     4    1
    4     1     5    1
    5     5     6    1
    6     5     7    1
    7     5     8    1
    8     8     9    1
    9     8    10    1
   10     8    11    1
   11    11    12    1
   12    11    13    1
   13    11    14    1
   14    14    15    1
   15    14    16    1
   16    14    17    1
   17    17    18    1
   18    17    19    1
   19    17    20    1
   20    20    21    1
   21    20    22    1
   22    20    23    1
@<TRIPOS>SUBSTRUCTURE
       1 MOL1            1 RESIDUE      1      MOL     
@<SCITEGIC>MOL_PROPERTY
VConf Rank
SciTegic.value.IntegerValue
833

@<SCITEGIC>MOL_PROPERTY
Conf_Id
SciTegic.value.IntegerValue
40

@<SCITEGIC>MOL_PROPERTY
Delta U+W
SciTegic.value.DoubleValue
0.000

@<SCITEGIC>MOL_PROPERTY
U+W
SciTegic.value.DoubleValue
-8.382

@<SCITEGIC>MOL_PROPERTY
Grad RMS
SciTegic.value.DoubleValue
0.000000

@<SCITEGIC>MOL_PROPERTY
U
SciTegic.value.DoubleValue
46.604

@<SCITEGIC>MOL_PROPERTY
W
SciTegic.value.DoubleValue
-54.986

@<SCITEGIC>MOL_PROPERTY
W(PB)
SciTegic.value.DoubleValue
-57.162

@<SCITEGIC>MOL_PROPERTY
W(SA)
SciTegic.value.DoubleValue
2.176

@<SCITEGIC>MOL_PROPERTY
Valence
SciTegic.value.DoubleValue
1.727

@<SCITEGIC>MOL_PROPERTY
Coulomb
SciTegic.value.DoubleValue
44.434

@<SCITEGIC>MOL_PROPERTY
VdW
SciTegic.value.DoubleValue
0.443

@<SCITEGIC>MOL_PROPERTY
VdW6
SciTegic.value.DoubleValue
-4.623

@<SCITEGIC>MOL_PROPERTY
VdW12
SciTegic.value.DoubleValue
5.066

@<SCITEGIC>MOL_PROPERTY
Bond
SciTegic.value.DoubleValue
0.112

@<SCITEGIC>MOL_PROPERTY
Angle
SciTegic.value.DoubleValue
0.386

@<SCITEGIC>MOL_PROPERTY
Pdih
SciTegic.value.DoubleValue
1.228

@<SCITEGIC>MOL_PROPERTY
Idih
SciTegic.value.DoubleValue
0.000

@<SCITEGIC>MOL_PROPERTY
Tether
SciTegic.value.DoubleValue
0.000

@<TRIPOS>MOLECULE
guest-2_confgen4.mol2 : confsearch ligand conformer 834
          23          22           1
SMALL
USER_CHARGES
 
@<TRIPOS>ATOM
       1    N1      21.294662   21.934493   24.004800 N.4        1 MOL1        -0.5940
       2    H1      21.505664   22.613804   23.266658 H          1 MOL1         0.3649
       3    H2      22.181156   21.494507   24.271960 H          1 MOL1         0.3649
       4    H3      20.970367   22.469211   24.817782 H          1 MOL1         0.3649
       5    C1      20.268851   20.913255   23.556953 C.3        1 MOL1         0.0207
       6    H4      19.344975   21.446109   23.316261 H          1 MOL1         0.0950
       7    H5      20.071623   20.245384   24.399312 H          1 MOL1         0.0950
       8    C2      20.727086   20.093323   22.335944 C.3        1 MOL1        -0.1415
       9    H6      20.966927   20.780558   21.513671 H          1 MOL1         0.0976
      10    H7      21.654393   19.556923   22.577525 H          1 MOL1         0.0976
      11    C3      19.655710   19.087740   21.851612 C.3        1 MOL1        -0.1375
      12    H8      20.010995   18.630279   20.919162 H          1 MOL1         0.0976
      13    H9      18.732377   19.628361   21.601497 H          1 MOL1         0.0976
      14    C4      19.348380   17.979115   22.890397 C.3        1 MOL1        -0.1375
      15    H10     20.268078   17.425404   23.124451 H          1 MOL1         0.0976
      16    H11     19.016674   18.438552   23.830820 H          1 MOL1         0.0976
      17    C5      18.253301   16.987703   22.427330 C.3        1 MOL1        -0.1350
      18    H12     17.327387   17.535062   22.201765 H          1 MOL1         0.0976
      19    H13     18.015079   16.312274   23.260947 H          1 MOL1         0.0976
      20    C6      18.667169   16.138670   21.203709 C.3        1 MOL1        -0.2365
      21    H14     18.794762   16.757458   20.307006 H          1 MOL1         0.0987
      22    H15     17.897672   15.388780   20.979021 H          1 MOL1         0.0987
      23    H16     19.608707   15.606708   21.392215 H          1 MOL1         0.0987
@<TRIPOS>BOND
    1     1     2    1
    2     1     3    1
    3     1     4    1
    4     1     5    1
    5     5     6    1
    6     5     7    1
    7     5     8    1
    8     8     9    1
    9     8    10    1
   10     8    11    1
   11    11    12    1
   12    11    13    1
   13    11    14    1
   14    14    15    1
   15    14    16    1
   16    14    17    1
   17    17    18    1
   18    17    19    1
   19    17    20    1
   20    20    21    1
   21    20    22    1
   22    20    23    1
@<TRIPOS>SUBSTRUCTURE
       1 MOL1            1 RESIDUE      1      MOL     
@<SCITEGIC>MOL_PROPERTY
VConf Rank
SciTegic.value.IntegerValue
834

@<SCITEGIC>MOL_PROPERTY
Conf_Id
SciTegic.value.IntegerValue
65

@<SCITEGIC>MOL_PROPERTY
Delta U+W
SciTegic.value.DoubleValue
1.004

@<SCITEGIC>MOL_PROPERTY
U+W
SciTegic.value.DoubleValue
-7.378

@<SCITEGIC>MOL_PROPERTY
Grad RMS
SciTegic.value.DoubleValue
0.000000

@<SCITEGIC>MOL_PROPERTY
U
SciTegic.value.DoubleValue
48.047

@<SCITEGIC>MOL_PROPERTY
W
SciTegic.value.DoubleValue
-55.425

@<SCITEGIC>MOL_PROPERTY
W(PB)
SciTegic.value.DoubleValue
-57.542

@<SCITEGIC>MOL_PROPERTY
W(SA)
SciTegic.value.DoubleValue
2.116

@<SCITEGIC>MOL_PROPERTY
Valence
SciTegic.value.DoubleValue
2.583

@<SCITEGIC>MOL_PROPERTY
Coulomb
SciTegic.value.DoubleValue
44.791

@<SCITEGIC>MOL_PROPERTY
VdW
SciTegic.value.DoubleValue
0.673

@<SCITEGIC>MOL_PROPERTY
VdW6
SciTegic.value.DoubleValue
-5.788

@<SCITEGIC>MOL_PROPERTY
VdW12
SciTegic.value.DoubleValue
6.462

@<SCITEGIC>MOL_PROPERTY
Bond
SciTegic.value.DoubleValue
0.177

@<SCITEGIC>MOL_PROPERTY
Angle
SciTegic.value.DoubleValue
0.787

@<SCITEGIC>MOL_PROPERTY
Pdih
SciTegic.value.DoubleValue
1.619

@<SCITEGIC>MOL_PROPERTY
Idih
SciTegic.value.DoubleValue
0.000

@<SCITEGIC>MOL_PROPERTY
Tether
SciTegic.value.DoubleValue
0.000

@<TRIPOS>MOLECULE
guest-2_confgen4.mol2 : confsearch ligand conformer 835
          23          22           1
SMALL
USER_CHARGES
 
@<TRIPOS>ATOM
       1    N1      22.159175   16.514743   23.489946 N.4        1 MOL1        -0.5940
       2    H1      22.441019   15.984228   22.659310 H          1 MOL1         0.3649
       3    H2      22.089855   15.843695   24.262550 H          1 MOL1         0.3649
       4    H3      22.929783   17.151586   23.716726 H          1 MOL1         0.3649
       5    C1      20.857064   17.258004   23.271208 C.3        1 MOL1         0.0207
       6    H4      20.604676   17.772081   24.202091 H          1 MOL1         0.0950
       7    H5      20.077869   16.519739   23.063290 H          1 MOL1         0.0950
       8    C2      20.929284   18.274346   22.115800 C.3        1 MOL1        -0.1415
       9    H6      21.710987   19.016842   22.324666 H          1 MOL1         0.0976
      10    H7      21.230013   17.751383   21.198185 H          1 MOL1         0.0976
      11    C3      19.582881   18.993582   21.863780 C.3        1 MOL1        -0.1375
      12    H8      18.805007   18.248864   21.645427 H          1 MOL1         0.0976
      13    H9      19.686480   19.609470   20.961055 H          1 MOL1         0.0976
      14    C4      19.137028   19.883548   23.051950 C.3        1 MOL1        -0.1375
      15    H10     19.057524   19.271393   23.959943 H          1 MOL1         0.0976
      16    H11     19.906016   20.641237   23.256363 H          1 MOL1         0.0976
      17    C5      17.774286   20.580981   22.821643 C.3        1 MOL1        -0.1350
      18    H12     17.479525   21.091936   23.748958 H          1 MOL1         0.0976
      19    H13     16.998794   19.826971   22.627013 H          1 MOL1         0.0976
      20    C6      17.796281   21.613708   21.671696 C.3        1 MOL1        -0.2365
      21    H14     17.962390   21.132877   20.699859 H          1 MOL1         0.0987
      22    H15     18.585992   22.360346   21.826292 H          1 MOL1         0.0987
      23    H16     16.837964   22.146093   21.615675 H          1 MOL1         0.0987
@<TRIPOS>BOND
    1     1     2    1
    2     1     3    1
    3     1     4    1
    4     1     5    1
    5     5     6    1
    6     5     7    1
    7     5     8    1
    8     8     9    1
    9     8    10    1
   10     8    11    1
   11    11    12    1
   12    11    13    1
   13    11    14    1
   14    14    15    1
   15    14    16    1
   16    14    17    1
   17    17    18    1
   18    17    19    1
   19    17    20    1
   20    20    21    1
   21    20    22    1
   22    20    23    1
@<TRIPOS>SUBSTRUCTURE
       1 MOL1            1 RESIDUE      1      MOL     
@<SCITEGIC>MOL_PROPERTY
VConf Rank
SciTegic.value.IntegerValue
835

@<SCITEGIC>MOL_PROPERTY
Conf_Id
SciTegic.value.IntegerValue
92

@<SCITEGIC>MOL_PROPERTY
Delta U+W
SciTegic.value.DoubleValue
0.973

@<SCITEGIC>MOL_PROPERTY
U+W
SciTegic.value.DoubleValue
-7.409

@<SCITEGIC>MOL_PROPERTY
Grad RMS
SciTegic.value.DoubleValue
0.000000

@<SCITEGIC>MOL_PROPERTY
U
SciTegic.value.DoubleValue
48.047

@<SCITEGIC>MOL_PROPERTY
W
SciTegic.value.DoubleValue
-55.456

@<SCITEGIC>MOL_PROPERTY
W(PB)
SciTegic.value.DoubleValue
-57.595

@<SCITEGIC>MOL_PROPERTY
W(SA)
SciTegic.value.DoubleValue
2.138

@<SCITEGIC>MOL_PROPERTY
Valence
SciTegic.value.DoubleValue
2.583

@<SCITEGIC>MOL_PROPERTY
Coulomb
SciTegic.value.DoubleValue
44.791

@<SCITEGIC>MOL_PROPERTY
VdW
SciTegic.value.DoubleValue
0.674

@<SCITEGIC>MOL_PROPERTY
VdW6
SciTegic.value.DoubleValue
-5.789

@<SCITEGIC>MOL_PROPERTY
VdW12
SciTegic.value.DoubleValue
6.462

@<SCITEGIC>MOL_PROPERTY
Bond
SciTegic.value.DoubleValue
0.177

@<SCITEGIC>MOL_PROPERTY
Angle
SciTegic.value.DoubleValue
0.787

@<SCITEGIC>MOL_PROPERTY
Pdih
SciTegic.value.DoubleValue
1.619

@<SCITEGIC>MOL_PROPERTY
Idih
SciTegic.value.DoubleValue
0.000

@<SCITEGIC>MOL_PROPERTY
Tether
SciTegic.value.DoubleValue
0.000

@<TRIPOS>MOLECULE
guest-2_confgen4.mol2 : confsearch ligand conformer 836
          23          22           1
SMALL
USER_CHARGES
 
@<TRIPOS>ATOM
       1    N1      18.204744   15.791380   22.689255 N.4        1 MOL1        -0.5940
       2    H1      17.516435   15.554072   23.411716 H          1 MOL1         0.3649
       3    H2      18.826223   14.981852   22.592915 H          1 MOL1         0.3649
       4    H3      17.690887   15.883594   21.807049 H          1 MOL1         0.3649
       5    C1      18.969408   17.053497   23.032949 C.3        1 MOL1         0.0207
       6    H4      19.467144   16.895620   23.993548 H          1 MOL1         0.0950
       7    H5      18.244512   17.863168   23.149795 H          1 MOL1         0.0950
       8    C2      20.012237   17.436698   21.965933 C.3        1 MOL1        -0.1415
       9    H6      20.707340   16.598068   21.826372 H          1 MOL1         0.0976
      10    H7      19.512333   17.594439   21.000941 H          1 MOL1         0.0976
      11    C3      20.820002   18.700153   22.345710 C.3        1 MOL1        -0.1375
      12    H8      21.601866   18.858547   21.590032 H          1 MOL1         0.0976
      13    H9      21.339613   18.529953   23.298960 H          1 MOL1         0.0976
      14    C4      19.945595   19.973151   22.447454 C.3        1 MOL1        -0.1375
      15    H10     19.402135   20.121784   21.504068 H          1 MOL1         0.0976
      16    H11     19.189493   19.847628   23.233972 H          1 MOL1         0.0976
      17    C5      20.792684   21.227878   22.755467 C.3        1 MOL1        -0.1350
      18    H12     21.548076   21.368316   21.969579 H          1 MOL1         0.0976
      19    H13     21.339189   21.084288   23.698172 H          1 MOL1         0.0976
      20    C6      19.919506   22.496576   22.858076 C.3        1 MOL1        -0.2365
      21    H14     19.385660   22.685519   21.917578 H          1 MOL1         0.0987
      22    H15     20.538438   23.376467   23.076613 H          1 MOL1         0.0987
      23    H16     19.175879   22.400379   23.659941 H          1 MOL1         0.0987
@<TRIPOS>BOND
    1     1     2    1
    2     1     3    1
    3     1     4    1
    4     1     5    1
    5     5     6    1
    6     5     7    1
    7     5     8    1
    8     8     9    1
    9     8    10    1
   10     8    11    1
   11    11    12    1
   12    11    13    1
   13    11    14    1
   14    14    15    1
   15    14    16    1
   16    14    17    1
   17    17    18    1
   18    17    19    1
   19    17    20    1
   20    20    21    1
   21    20    22    1
   22    20    23    1
@<TRIPOS>SUBSTRUCTURE
       1 MOL1            1 RESIDUE      1      MOL     
@<SCITEGIC>MOL_PROPERTY
VConf Rank
SciTegic.value.IntegerValue
836

@<SCITEGIC>MOL_PROPERTY
Conf_Id
SciTegic.value.IntegerValue
42

@<SCITEGIC>MOL_PROPERTY
Delta U+W
SciTegic.value.DoubleValue
0.365

@<SCITEGIC>MOL_PROPERTY
U+W
SciTegic.value.DoubleValue
-8.017

@<SCITEGIC>MOL_PROPERTY
Grad RMS
SciTegic.value.DoubleValue
0.000000

@<SCITEGIC>MOL_PROPERTY
U
SciTegic.value.DoubleValue
47.375

@<SCITEGIC>MOL_PROPERTY
W
SciTegic.value.DoubleValue
-55.392

@<SCITEGIC>MOL_PROPERTY
W(PB)
SciTegic.value.DoubleValue
-57.543

@<SCITEGIC>MOL_PROPERTY
W(SA)
SciTegic.value.DoubleValue
2.152

@<SCITEGIC>MOL_PROPERTY
Valence
SciTegic.value.DoubleValue
2.032

@<SCITEGIC>MOL_PROPERTY
Coulomb
SciTegic.value.DoubleValue
44.843

@<SCITEGIC>MOL_PROPERTY
VdW
SciTegic.value.DoubleValue
0.499

@<SCITEGIC>MOL_PROPERTY
VdW6
SciTegic.value.DoubleValue
-5.218

@<SCITEGIC>MOL_PROPERTY
VdW12
SciTegic.value.DoubleValue
5.717

@<SCITEGIC>MOL_PROPERTY
Bond
SciTegic.value.DoubleValue
0.135

@<SCITEGIC>MOL_PROPERTY
Angle
SciTegic.value.DoubleValue
0.514

@<SCITEGIC>MOL_PROPERTY
Pdih
SciTegic.value.DoubleValue
1.383

@<SCITEGIC>MOL_PROPERTY
Idih
SciTegic.value.DoubleValue
0.000

@<SCITEGIC>MOL_PROPERTY
Tether
SciTegic.value.DoubleValue
0.000

@<TRIPOS>MOLECULE
guest-2_confgen4.mol2 : confsearch ligand conformer 837
          23          22           1
SMALL
USER_CHARGES
 
@<TRIPOS>ATOM
       1    N1      21.228321   19.819902   25.307656 N.4        1 MOL1        -0.5940
       2    H1      20.511339   19.392482   25.902535 H          1 MOL1         0.3649
       3    H2      21.771543   20.454062   25.903223 H          1 MOL1         0.3649
       4    H3      21.862067   19.071390   25.011857 H          1 MOL1         0.3649
       5    C1      20.619398   20.544425   24.122809 C.3        1 MOL1         0.0207
       6    H4      21.431289   20.995205   23.545703 H          1 MOL1         0.0950
       7    H5      19.992850   21.350043   24.515223 H          1 MOL1         0.0950
       8    C2      19.771664   19.639923   23.207136 C.3        1 MOL1        -0.1415
       9    H6      18.973791   19.166858   23.794722 H          1 MOL1         0.0976
      10    H7      19.284097   20.280413   22.462039 H          1 MOL1         0.0976
      11    C3      20.614777   18.560684   22.485189 C.3        1 MOL1        -0.1375
      12    H8      21.184671   17.985768   23.226825 H          1 MOL1         0.0976
      13    H9      21.358386   19.050489   21.841338 H          1 MOL1         0.0976
      14    C4      19.784154   17.558801   21.641770 C.3        1 MOL1        -0.1375
      15    H10     20.483414   16.823565   21.219929 H          1 MOL1         0.0976
      16    H11     19.110302   16.984953   22.292805 H          1 MOL1         0.0976
      17    C5      18.988349   18.192977   20.471747 C.3        1 MOL1        -0.1350
      18    H12     18.991710   17.491716   19.625465 H          1 MOL1         0.0976
      19    H13     19.493574   19.100569   20.113106 H          1 MOL1         0.0976
      20    C6      17.515218   18.501827   20.827778 C.3        1 MOL1        -0.2365
      21    H14     16.981778   17.586399   21.114994 H          1 MOL1         0.0987
      22    H15     16.993702   18.933105   19.963524 H          1 MOL1         0.0987
      23    H16     17.430866   19.214266   21.655688 H          1 MOL1         0.0987
@<TRIPOS>BOND
    1     1     2    1
    2     1     3    1
    3     1     4    1
    4     1     5    1
    5     5     6    1
    6     5     7    1
    7     5     8    1
    8     8     9    1
    9     8    10    1
   10     8    11    1
   11    11    12    1
   12    11    13    1
   13    11    14    1
   14    14    15    1
   15    14    16    1
   16    14    17    1
   17    17    18    1
   18    17    19    1
   19    17    20    1
   20    20    21    1
   21    20    22    1
   22    20    23    1
@<TRIPOS>SUBSTRUCTURE
       1 MOL1            1 RESIDUE      1      MOL     
@<SCITEGIC>MOL_PROPERTY
VConf Rank
SciTegic.value.IntegerValue
837

@<SCITEGIC>MOL_PROPERTY
Conf_Id
SciTegic.value.IntegerValue
3

@<SCITEGIC>MOL_PROPERTY
Delta U+W
SciTegic.value.DoubleValue
3.283

@<SCITEGIC>MOL_PROPERTY
U+W
SciTegic.value.DoubleValue
-5.099

@<SCITEGIC>MOL_PROPERTY
Grad RMS
SciTegic.value.DoubleValue
0.000000

@<SCITEGIC>MOL_PROPERTY
U
SciTegic.value.DoubleValue
50.701

@<SCITEGIC>MOL_PROPERTY
W
SciTegic.value.DoubleValue
-55.800

@<SCITEGIC>MOL_PROPERTY
W(PB)
SciTegic.value.DoubleValue
-57.867

@<SCITEGIC>MOL_PROPERTY
W(SA)
SciTegic.value.DoubleValue
2.067

@<SCITEGIC>MOL_PROPERTY
Valence
SciTegic.value.DoubleValue
4.880

@<SCITEGIC>MOL_PROPERTY
Coulomb
SciTegic.value.DoubleValue
45.095

@<SCITEGIC>MOL_PROPERTY
VdW
SciTegic.value.DoubleValue
0.726

@<SCITEGIC>MOL_PROPERTY
VdW6
SciTegic.value.DoubleValue
-6.620

@<SCITEGIC>MOL_PROPERTY
VdW12
SciTegic.value.DoubleValue
7.346

@<SCITEGIC>MOL_PROPERTY
Bond
SciTegic.value.DoubleValue
0.222

@<SCITEGIC>MOL_PROPERTY
Angle
SciTegic.value.DoubleValue
1.260

@<SCITEGIC>MOL_PROPERTY
Pdih
SciTegic.value.DoubleValue
3.398

@<SCITEGIC>MOL_PROPERTY
Idih
SciTegic.value.DoubleValue
0.000

@<SCITEGIC>MOL_PROPERTY
Tether
SciTegic.value.DoubleValue
0.000

@<TRIPOS>MOLECULE
guest-2_confgen4.mol2 : confsearch ligand conformer 838
          23          22           1
SMALL
USER_CHARGES
 
@<TRIPOS>ATOM
       1    N1      20.505313   18.656793   19.791346 N.4        1 MOL1        -0.5940
       2    H1      20.888159   19.493580   19.339937 H          1 MOL1         0.3649
       3    H2      20.534089   17.902492   19.097057 H          1 MOL1         0.3649
       4    H3      21.149198   18.397044   20.544699 H          1 MOL1         0.3649
       5    C1      19.100680   18.890439   20.311642 C.3        1 MOL1         0.0207
       6    H4      18.741790   17.956118   20.750655 H          1 MOL1         0.0950
       7    H5      18.463962   19.127975   19.455083 H          1 MOL1         0.0950
       8    C2      19.005085   20.027041   21.350040 C.3        1 MOL1        -0.1415
       9    H6      19.319642   20.968297   20.880046 H          1 MOL1         0.0976
      10    H7      17.951495   20.162037   21.628581 H          1 MOL1         0.0976
      11    C3      19.845113   19.789706   22.630537 C.3        1 MOL1        -0.1375
      12    H8      19.737049   20.671010   23.275906 H          1 MOL1         0.0976
      13    H9      20.910756   19.728568   22.372829 H          1 MOL1         0.0976
      14    C4      19.420637   18.520228   23.411994 C.3        1 MOL1        -0.1375
      15    H10     18.361165   18.595508   23.693101 H          1 MOL1         0.0976
      16    H11     19.505293   17.641186   22.759712 H          1 MOL1         0.0976
      17    C5      20.273250   18.262400   24.678099 C.3        1 MOL1        -0.1350
      18    H12     21.333284   18.175290   24.401575 H          1 MOL1         0.0976
      19    H13     19.986277   17.290436   25.103301 H          1 MOL1         0.0976
      20    C6      20.106787   19.348107   25.765699 C.3        1 MOL1        -0.2365
      21    H14     19.050784   19.477911   26.035914 H          1 MOL1         0.0987
      22    H15     20.498715   20.317033   25.432799 H          1 MOL1         0.0987
      23    H16     20.653437   19.067169   26.675194 H          1 MOL1         0.0987
@<TRIPOS>BOND
    1     1     2    1
    2     1     3    1
    3     1     4    1
    4     1     5    1
    5     5     6    1
    6     5     7    1
    7     5     8    1
    8     8     9    1
    9     8    10    1
   10     8    11    1
   11    11    12    1
   12    11    13    1
   13    11    14    1
   14    14    15    1
   15    14    16    1
   16    14    17    1
   17    17    18    1
   18    17    19    1
   19    17    20    1
   20    20    21    1
   21    20    22    1
   22    20    23    1
@<TRIPOS>SUBSTRUCTURE
       1 MOL1            1 RESIDUE      1      MOL     
@<SCITEGIC>MOL_PROPERTY
VConf Rank
SciTegic.value.IntegerValue
838

@<SCITEGIC>MOL_PROPERTY
Conf_Id
SciTegic.value.IntegerValue
83

@<SCITEGIC>MOL_PROPERTY
Delta U+W
SciTegic.value.DoubleValue
1.229

@<SCITEGIC>MOL_PROPERTY
U+W
SciTegic.value.DoubleValue
-7.154

@<SCITEGIC>MOL_PROPERTY
Grad RMS
SciTegic.value.DoubleValue
0.000000

@<SCITEGIC>MOL_PROPERTY
U
SciTegic.value.DoubleValue
48.727

@<SCITEGIC>MOL_PROPERTY
W
SciTegic.value.DoubleValue
-55.880

@<SCITEGIC>MOL_PROPERTY
W(PB)
SciTegic.value.DoubleValue
-57.960

@<SCITEGIC>MOL_PROPERTY
W(SA)
SciTegic.value.DoubleValue
2.080

@<SCITEGIC>MOL_PROPERTY
Valence
SciTegic.value.DoubleValue
2.671

@<SCITEGIC>MOL_PROPERTY
Coulomb
SciTegic.value.DoubleValue
45.371

@<SCITEGIC>MOL_PROPERTY
VdW
SciTegic.value.DoubleValue
0.684

@<SCITEGIC>MOL_PROPERTY
VdW6
SciTegic.value.DoubleValue
-6.511

@<SCITEGIC>MOL_PROPERTY
VdW12
SciTegic.value.DoubleValue
7.195

@<SCITEGIC>MOL_PROPERTY
Bond
SciTegic.value.DoubleValue
0.203

@<SCITEGIC>MOL_PROPERTY
Angle
SciTegic.value.DoubleValue
0.915

@<SCITEGIC>MOL_PROPERTY
Pdih
SciTegic.value.DoubleValue
1.554

@<SCITEGIC>MOL_PROPERTY
Idih
SciTegic.value.DoubleValue
0.000

@<SCITEGIC>MOL_PROPERTY
Tether
SciTegic.value.DoubleValue
0.000

@<TRIPOS>MOLECULE
guest-2_confgen4.mol2 : confsearch ligand conformer 839
          23          22           1
SMALL
USER_CHARGES
 
@<TRIPOS>ATOM
       1    N1      19.709389   21.807945   21.721719 N.4        1 MOL1        -0.5940
       2    H1      19.970047   22.465463   22.463528 H          1 MOL1         0.3649
       3    H2      18.845988   21.342908   22.018164 H          1 MOL1         0.3649
       4    H3      19.481052   22.367076   20.892822 H          1 MOL1         0.3649
       5    C1      20.814683   20.809128   21.440679 C.3        1 MOL1         0.0207
       6    H4      21.689333   21.368652   21.097974 H          1 MOL1         0.0950
       7    H5      20.486724   20.161205   20.623900 H          1 MOL1         0.0950
       8    C2      21.202812   19.953224   22.663816 C.3        1 MOL1        -0.1415
       9    H6      22.041585   19.301313   22.385730 H          1 MOL1         0.0976
      10    H7      21.578782   20.612829   23.457146 H          1 MOL1         0.0976
      11    C3      20.047126   19.086551   23.224990 C.3        1 MOL1        -0.1375
      12    H8      19.231964   19.732598   23.576958 H          1 MOL1         0.0976
      13    H9      20.419821   18.555388   24.110337 H          1 MOL1         0.0976
      14    C4      19.499029   18.062225   22.198940 C.3        1 MOL1        -0.1375
      15    H10     19.148293   18.590774   21.302852 H          1 MOL1         0.0976
      16    H11     20.310176   17.398789   21.868693 H          1 MOL1         0.0976
      17    C5      18.326341   17.211401   22.744235 C.3        1 MOL1        -0.1350
      18    H12     17.924320   16.600166   21.924093 H          1 MOL1         0.0976
      19    H13     17.507275   17.869543   23.066267 H          1 MOL1         0.0976
      20    C6      18.730678   16.276796   23.907149 C.3        1 MOL1        -0.2365
      21    H14     19.570737   15.630749   23.620914 H          1 MOL1         0.0987
      22    H15     17.890429   15.629019   24.188754 H          1 MOL1         0.0987
      23    H16     19.021356   16.844575   24.799548 H          1 MOL1         0.0987
@<TRIPOS>BOND
    1     1     2    1
    2     1     3    1
    3     1     4    1
    4     1     5    1
    5     5     6    1
    6     5     7    1
    7     5     8    1
    8     8     9    1
    9     8    10    1
   10     8    11    1
   11    11    12    1
   12    11    13    1
   13    11    14    1
   14    14    15    1
   15    14    16    1
   16    14    17    1
   17    17    18    1
   18    17    19    1
   19    17    20    1
   20    20    21    1
   21    20    22    1
   22    20    23    1
@<TRIPOS>SUBSTRUCTURE
       1 MOL1            1 RESIDUE      1      MOL     
@<SCITEGIC>MOL_PROPERTY
VConf Rank
SciTegic.value.IntegerValue
839

@<SCITEGIC>MOL_PROPERTY
Conf_Id
SciTegic.value.IntegerValue
50

@<SCITEGIC>MOL_PROPERTY
Delta U+W
SciTegic.value.DoubleValue
1.252

@<SCITEGIC>MOL_PROPERTY
U+W
SciTegic.value.DoubleValue
-7.130

@<SCITEGIC>MOL_PROPERTY
Grad RMS
SciTegic.value.DoubleValue
0.000000

@<SCITEGIC>MOL_PROPERTY
U
SciTegic.value.DoubleValue
48.727

@<SCITEGIC>MOL_PROPERTY
W
SciTegic.value.DoubleValue
-55.857

@<SCITEGIC>MOL_PROPERTY
W(PB)
SciTegic.value.DoubleValue
-57.937

@<SCITEGIC>MOL_PROPERTY
W(SA)
SciTegic.value.DoubleValue
2.080

@<SCITEGIC>MOL_PROPERTY
Valence
SciTegic.value.DoubleValue
2.671

@<SCITEGIC>MOL_PROPERTY
Coulomb
SciTegic.value.DoubleValue
45.371

@<SCITEGIC>MOL_PROPERTY
VdW
SciTegic.value.DoubleValue
0.684

@<SCITEGIC>MOL_PROPERTY
VdW6
SciTegic.value.DoubleValue
-6.511

@<SCITEGIC>MOL_PROPERTY
VdW12
SciTegic.value.DoubleValue
7.196

@<SCITEGIC>MOL_PROPERTY
Bond
SciTegic.value.DoubleValue
0.203

@<SCITEGIC>MOL_PROPERTY
Angle
SciTegic.value.DoubleValue
0.915

@<SCITEGIC>MOL_PROPERTY
Pdih
SciTegic.value.DoubleValue
1.554

@<SCITEGIC>MOL_PROPERTY
Idih
SciTegic.value.DoubleValue
0.000

@<SCITEGIC>MOL_PROPERTY
Tether
SciTegic.value.DoubleValue
0.000

@<TRIPOS>MOLECULE
guest-2_confgen4.mol2 : confsearch ligand conformer 840
          23          22           1
SMALL
USER_CHARGES
 
@<TRIPOS>ATOM
       1    N1      16.760130   20.002326   22.527749 N.4        1 MOL1        -0.5940
       2    H1      17.223247   20.786335   22.997202 H          1 MOL1         0.3649
       3    H2      15.821683   19.922185   22.933731 H          1 MOL1         0.3649
       4    H3      16.638796   20.266343   21.544795 H          1 MOL1         0.3649
       5    C1      17.547806   18.714769   22.672677 C.3        1 MOL1         0.0207
       6    H4      16.975972   17.920046   22.185856 H          1 MOL1         0.0950
       7    H5      17.619610   18.478920   23.737868 H          1 MOL1         0.0950
       8    C2      18.960123   18.776647   22.059252 C.3        1 MOL1        -0.1415
       9    H6      19.402358   17.775698   22.115744 H          1 MOL1         0.0976
      10    H7      18.882973   19.018805   20.990994 H          1 MOL1         0.0976
      11    C3      19.874424   19.808198   22.768218 C.3        1 MOL1        -0.1375
      12    H8      19.882010   19.631027   23.852611 H          1 MOL1         0.0976
      13    H9      19.446170   20.809397   22.626134 H          1 MOL1         0.0976
      14    C4      21.326104   19.821519   22.221819 C.3        1 MOL1        -0.1375
      15    H10     21.338627   19.524564   21.164060 H          1 MOL1         0.0976
      16    H11     21.689895   20.858218   22.241889 H          1 MOL1         0.0976
      17    C5      22.330599   18.960174   23.029459 C.3        1 MOL1        -0.1350
      18    H12     22.386301   19.330951   24.062511 H          1 MOL1         0.0976
      19    H13     23.333117   19.101118   22.601782 H          1 MOL1         0.0976
      20    C6      22.006897   17.450198   23.044277 C.3        1 MOL1        -0.2365
      21    H14     21.886712   17.060615   22.025151 H          1 MOL1         0.0987
      22    H15     21.088911   17.244764   23.608522 H          1 MOL1         0.0987
      23    H16     22.818773   16.888830   23.524497 H          1 MOL1         0.0987
@<TRIPOS>BOND
    1     1     2    1
    2     1     3    1
    3     1     4    1
    4     1     5    1
    5     5     6    1
    6     5     7    1
    7     5     8    1
    8     8     9    1
    9     8    10    1
   10     8    11    1
   11    11    12    1
   12    11    13    1
   13    11    14    1
   14    14    15    1
   15    14    16    1
   16    14    17    1
   17    17    18    1
   18    17    19    1
   19    17    20    1
   20    20    21    1
   21    20    22    1
   22    20    23    1
@<TRIPOS>SUBSTRUCTURE
       1 MOL1            1 RESIDUE      1      MOL     
@<SCITEGIC>MOL_PROPERTY
VConf Rank
SciTegic.value.IntegerValue
840

@<SCITEGIC>MOL_PROPERTY
Conf_Id
SciTegic.value.IntegerValue
55

@<SCITEGIC>MOL_PROPERTY
Delta U+W
SciTegic.value.DoubleValue
3.232

@<SCITEGIC>MOL_PROPERTY
U+W
SciTegic.value.DoubleValue
-5.150

@<SCITEGIC>MOL_PROPERTY
Grad RMS
SciTegic.value.DoubleValue
0.000000

@<SCITEGIC>MOL_PROPERTY
U
SciTegic.value.DoubleValue
50.625

@<SCITEGIC>MOL_PROPERTY
W
SciTegic.value.DoubleValue
-55.776

@<SCITEGIC>MOL_PROPERTY
W(PB)
SciTegic.value.DoubleValue
-57.839

@<SCITEGIC>MOL_PROPERTY
W(SA)
SciTegic.value.DoubleValue
2.064

@<SCITEGIC>MOL_PROPERTY
Valence
SciTegic.value.DoubleValue
4.837

@<SCITEGIC>MOL_PROPERTY
Coulomb
SciTegic.value.DoubleValue
45.097

@<SCITEGIC>MOL_PROPERTY
VdW
SciTegic.value.DoubleValue
0.692

@<SCITEGIC>MOL_PROPERTY
VdW6
SciTegic.value.DoubleValue
-6.655

@<SCITEGIC>MOL_PROPERTY
VdW12
SciTegic.value.DoubleValue
7.347

@<SCITEGIC>MOL_PROPERTY
Bond
SciTegic.value.DoubleValue
0.223

@<SCITEGIC>MOL_PROPERTY
Angle
SciTegic.value.DoubleValue
1.167

@<SCITEGIC>MOL_PROPERTY
Pdih
SciTegic.value.DoubleValue
3.447

@<SCITEGIC>MOL_PROPERTY
Idih
SciTegic.value.DoubleValue
0.000

@<SCITEGIC>MOL_PROPERTY
Tether
SciTegic.value.DoubleValue
0.000

@<TRIPOS>MOLECULE
guest-2_confgen4.mol2 : confsearch ligand conformer 841
          23          22           1
SMALL
USER_CHARGES
 
@<TRIPOS>ATOM
       1    N1      21.344204   20.643016   24.830155 N.4        1 MOL1        -0.5940
       2    H1      21.808565   21.536181   24.636628 H          1 MOL1         0.3649
       3    H2      21.909494   20.160751   25.537168 H          1 MOL1         0.3649
       4    H3      20.442682   20.860558   25.266835 H          1 MOL1         0.3649
       5    C1      21.178836   19.808790   23.576214 C.3        1 MOL1         0.0207
       6    H4      20.713789   18.863999   23.863343 H          1 MOL1         0.0950
       7    H5      22.175735   19.592061   23.182997 H          1 MOL1         0.0950
       8    C2      20.338640   20.511413   22.491698 C.3        1 MOL1        -0.1415
       9    H6      19.349308   20.777311   22.887153 H          1 MOL1         0.0976
      10    H7      20.834843   21.457280   22.236480 H          1 MOL1         0.0976
      11    C3      20.187445   19.669963   21.199194 C.3        1 MOL1        -0.1375
      12    H8      21.122128   19.131631   20.989032 H          1 MOL1         0.0976
      13    H9      20.047057   20.360968   20.356400 H          1 MOL1         0.0976
      14    C4      18.991502   18.682446   21.197408 C.3        1 MOL1        -0.1375
      15    H10     18.053076   19.243999   21.303743 H          1 MOL1         0.0976
      16    H11     18.947667   18.201047   20.210607 H          1 MOL1         0.0976
      17    C5      19.059311   17.586690   22.286086 C.3        1 MOL1        -0.1350
      18    H12     18.946050   18.039294   23.279684 H          1 MOL1         0.0976
      19    H13     20.041878   17.095137   22.261257 H          1 MOL1         0.0976
      20    C6      17.952261   16.527657   22.097485 C.3        1 MOL1        -0.2365
      21    H14     18.051216   16.020212   21.129021 H          1 MOL1         0.0987
      22    H15     16.955797   16.986168   22.143073 H          1 MOL1         0.0987
      23    H16     18.008157   15.764215   22.884290 H          1 MOL1         0.0987
@<TRIPOS>BOND
    1     1     2    1
    2     1     3    1
    3     1     4    1
    4     1     5    1
    5     5     6    1
    6     5     7    1
    7     5     8    1
    8     8     9    1
    9     8    10    1
   10     8    11    1
   11    11    12    1
   12    11    13    1
   13    11    14    1
   14    14    15    1
   15    14    16    1
   16    14    17    1
   17    17    18    1
   18    17    19    1
   19    17    20    1
   20    20    21    1
   21    20    22    1
   22    20    23    1
@<TRIPOS>SUBSTRUCTURE
       1 MOL1            1 RESIDUE      1      MOL     
@<SCITEGIC>MOL_PROPERTY
VConf Rank
SciTegic.value.IntegerValue
841

@<SCITEGIC>MOL_PROPERTY
Conf_Id
SciTegic.value.IntegerValue
93

@<SCITEGIC>MOL_PROPERTY
Delta U+W
SciTegic.value.DoubleValue
2.589

@<SCITEGIC>MOL_PROPERTY
U+W
SciTegic.value.DoubleValue
-5.793

@<SCITEGIC>MOL_PROPERTY
Grad RMS
SciTegic.value.DoubleValue
0.000000

@<SCITEGIC>MOL_PROPERTY
U
SciTegic.value.DoubleValue
50.122

@<SCITEGIC>MOL_PROPERTY
W
SciTegic.value.DoubleValue
-55.915

@<SCITEGIC>MOL_PROPERTY
W(PB)
SciTegic.value.DoubleValue
-58.031

@<SCITEGIC>MOL_PROPERTY
W(SA)
SciTegic.value.DoubleValue
2.115

@<SCITEGIC>MOL_PROPERTY
Valence
SciTegic.value.DoubleValue
4.132

@<SCITEGIC>MOL_PROPERTY
Coulomb
SciTegic.value.DoubleValue
45.536

@<SCITEGIC>MOL_PROPERTY
VdW
SciTegic.value.DoubleValue
0.454

@<SCITEGIC>MOL_PROPERTY
VdW6
SciTegic.value.DoubleValue
-6.262

@<SCITEGIC>MOL_PROPERTY
VdW12
SciTegic.value.DoubleValue
6.715

@<SCITEGIC>MOL_PROPERTY
Bond
SciTegic.value.DoubleValue
0.182

@<SCITEGIC>MOL_PROPERTY
Angle
SciTegic.value.DoubleValue
1.157

@<SCITEGIC>MOL_PROPERTY
Pdih
SciTegic.value.DoubleValue
2.794

@<SCITEGIC>MOL_PROPERTY
Idih
SciTegic.value.DoubleValue
0.000

@<SCITEGIC>MOL_PROPERTY
Tether
SciTegic.value.DoubleValue
0.000

@<TRIPOS>MOLECULE
guest-2_confgen4.mol2 : confsearch ligand conformer 842
          23          22           1
SMALL
USER_CHARGES
 
@<TRIPOS>ATOM
       1    N1      21.852506   21.108285   21.791708 N.4        1 MOL1        -0.5940
       2    H1      21.098995   21.762638   21.557618 H          1 MOL1         0.3649
       3    H2      22.418610   20.989823   20.944658 H          1 MOL1         0.3649
       4    H3      22.448609   21.570959   22.485554 H          1 MOL1         0.3649
       5    C1      21.315759   19.785710   22.299985 C.3        1 MOL1         0.0207
       6    H4      22.168729   19.131888   22.500878 H          1 MOL1         0.0950
       7    H5      20.724066   19.336639   21.500251 H          1 MOL1         0.0950
       8    C2      20.466038   19.931481   23.577683 C.3        1 MOL1        -0.1415
       9    H6      21.093340   20.391492   24.352861 H          1 MOL1         0.0976
      10    H7      19.630669   20.622846   23.404377 H          1 MOL1         0.0976
      11    C3      19.935095   18.577534   24.112838 C.3        1 MOL1        -0.1375
      12    H8      19.798719   18.669665   25.199306 H          1 MOL1         0.0976
      13    H9      20.693593   17.794531   23.974311 H          1 MOL1         0.0976
      14    C4      18.581224   18.120977   23.509460 C.3        1 MOL1        -0.1375
      15    H10     18.277492   17.193759   24.014885 H          1 MOL1         0.0976
      16    H11     17.806500   18.863617   23.745213 H          1 MOL1         0.0976
      17    C5      18.606786   17.873716   21.983449 C.3        1 MOL1        -0.1350
      18    H12     19.451835   17.220629   21.724515 H          1 MOL1         0.0976
      19    H13     18.754167   18.823475   21.453210 H          1 MOL1         0.0976
      20    C6      17.293209   17.231426   21.488818 C.3        1 MOL1        -0.2365
      21    H14     17.324068   17.073093   20.402997 H          1 MOL1         0.0987
      22    H15     16.431526   17.874300   21.711228 H          1 MOL1         0.0987
      23    H16     17.125162   16.257119   21.965997 H          1 MOL1         0.0987
@<TRIPOS>BOND
    1     1     2    1
    2     1     3    1
    3     1     4    1
    4     1     5    1
    5     5     6    1
    6     5     7    1
    7     5     8    1
    8     8     9    1
    9     8    10    1
   10     8    11    1
   11    11    12    1
   12    11    13    1
   13    11    14    1
   14    14    15    1
   15    14    16    1
   16    14    17    1
   17    17    18    1
   18    17    19    1
   19    17    20    1
   20    20    21    1
   21    20    22    1
   22    20    23    1
@<TRIPOS>SUBSTRUCTURE
       1 MOL1            1 RESIDUE      1      MOL     
@<SCITEGIC>MOL_PROPERTY
VConf Rank
SciTegic.value.IntegerValue
842

@<SCITEGIC>MOL_PROPERTY
Conf_Id
SciTegic.value.IntegerValue
70

@<SCITEGIC>MOL_PROPERTY
Delta U+W
SciTegic.value.DoubleValue
2.599

@<SCITEGIC>MOL_PROPERTY
U+W
SciTegic.value.DoubleValue
-5.783

@<SCITEGIC>MOL_PROPERTY
Grad RMS
SciTegic.value.DoubleValue
0.000000

@<SCITEGIC>MOL_PROPERTY
U
SciTegic.value.DoubleValue
50.122

@<SCITEGIC>MOL_PROPERTY
W
SciTegic.value.DoubleValue
-55.906

@<SCITEGIC>MOL_PROPERTY
W(PB)
SciTegic.value.DoubleValue
-58.010

@<SCITEGIC>MOL_PROPERTY
W(SA)
SciTegic.value.DoubleValue
2.105

@<SCITEGIC>MOL_PROPERTY
Valence
SciTegic.value.DoubleValue
4.132

@<SCITEGIC>MOL_PROPERTY
Coulomb
SciTegic.value.DoubleValue
45.536

@<SCITEGIC>MOL_PROPERTY
VdW
SciTegic.value.DoubleValue
0.454

@<SCITEGIC>MOL_PROPERTY
VdW6
SciTegic.value.DoubleValue
-6.262

@<SCITEGIC>MOL_PROPERTY
VdW12
SciTegic.value.DoubleValue
6.715

@<SCITEGIC>MOL_PROPERTY
Bond
SciTegic.value.DoubleValue
0.182

@<SCITEGIC>MOL_PROPERTY
Angle
SciTegic.value.DoubleValue
1.157

@<SCITEGIC>MOL_PROPERTY
Pdih
SciTegic.value.DoubleValue
2.794

@<SCITEGIC>MOL_PROPERTY
Idih
SciTegic.value.DoubleValue
0.000

@<SCITEGIC>MOL_PROPERTY
Tether
SciTegic.value.DoubleValue
0.000

@<TRIPOS>MOLECULE
guest-2_confgen4.mol2 : confsearch ligand conformer 843
          23          22           1
SMALL
USER_CHARGES
 
@<TRIPOS>ATOM
       1    N1      19.886050   16.143619   22.626255 N.4        1 MOL1        -0.5940
       2    H1      20.447873   15.585745   23.277130 H          1 MOL1         0.3649
       3    H2      19.547380   15.504343   21.899349 H          1 MOL1         0.3649
       4    H3      19.065447   16.475357   23.142034 H          1 MOL1         0.3649
       5    C1      20.680802   17.293775   22.039956 C.3        1 MOL1         0.0207
       6    H4      20.038230   17.825251   21.333147 H          1 MOL1         0.0950
       7    H5      21.520047   16.868822   21.482662 H          1 MOL1         0.0950
       8    C2      21.215362   18.278757   23.099125 C.3        1 MOL1        -0.1415
       9    H6      21.886360   17.741655   23.782498 H          1 MOL1         0.0976
      10    H7      21.838094   19.032048   22.599952 H          1 MOL1         0.0976
      11    C3      20.104862   18.981976   23.923308 C.3        1 MOL1        -0.1375
      12    H8      20.575421   19.689716   24.619643 H          1 MOL1         0.0976
      13    H9      19.596872   18.239728   24.553584 H          1 MOL1         0.0976
      14    C4      19.042298   19.733225   23.079874 C.3        1 MOL1        -0.1375
      15    H10     18.495410   19.024250   22.444139 H          1 MOL1         0.0976
      16    H11     18.297403   20.162386   23.764191 H          1 MOL1         0.0976
      17    C5      19.633526   20.865648   22.207544 C.3        1 MOL1        -0.1350
      18    H12     20.329394   20.449397   21.466975 H          1 MOL1         0.0976
      19    H13     20.212963   21.555056   22.837371 H          1 MOL1         0.0976
      20    C6      18.528808   21.651785   21.470001 C.3        1 MOL1        -0.2365
      21    H14     18.965475   22.448894   20.854409 H          1 MOL1         0.0987
      22    H15     17.833883   22.117880   22.180654 H          1 MOL1         0.0987
      23    H16     17.950854   20.993445   20.808365 H          1 MOL1         0.0987
@<TRIPOS>BOND
    1     1     2    1
    2     1     3    1
    3     1     4    1
    4     1     5    1
    5     5     6    1
    6     5     7    1
    7     5     8    1
    8     8     9    1
    9     8    10    1
   10     8    11    1
   11    11    12    1
   12    11    13    1
   13    11    14    1
   14    14    15    1
   15    14    16    1
   16    14    17    1
   17    17    18    1
   18    17    19    1
   19    17    20    1
   20    20    21    1
   21    20    22    1
   22    20    23    1
@<TRIPOS>SUBSTRUCTURE
       1 MOL1            1 RESIDUE      1      MOL     
@<SCITEGIC>MOL_PROPERTY
VConf Rank
SciTegic.value.IntegerValue
843

@<SCITEGIC>MOL_PROPERTY
Conf_Id
SciTegic.value.IntegerValue
72

@<SCITEGIC>MOL_PROPERTY
Delta U+W
SciTegic.value.DoubleValue
1.051

@<SCITEGIC>MOL_PROPERTY
U+W
SciTegic.value.DoubleValue
-7.331

@<SCITEGIC>MOL_PROPERTY
Grad RMS
SciTegic.value.DoubleValue
0.000000

@<SCITEGIC>MOL_PROPERTY
U
SciTegic.value.DoubleValue
48.590

@<SCITEGIC>MOL_PROPERTY
W
SciTegic.value.DoubleValue
-55.922

@<SCITEGIC>MOL_PROPERTY
W(PB)
SciTegic.value.DoubleValue
-58.012

@<SCITEGIC>MOL_PROPERTY
W(SA)
SciTegic.value.DoubleValue
2.090

@<SCITEGIC>MOL_PROPERTY
Valence
SciTegic.value.DoubleValue
2.601

@<SCITEGIC>MOL_PROPERTY
Coulomb
SciTegic.value.DoubleValue
45.520

@<SCITEGIC>MOL_PROPERTY
VdW
SciTegic.value.DoubleValue
0.469

@<SCITEGIC>MOL_PROPERTY
VdW6
SciTegic.value.DoubleValue
-6.867

@<SCITEGIC>MOL_PROPERTY
VdW12
SciTegic.value.DoubleValue
7.336

@<SCITEGIC>MOL_PROPERTY
Bond
SciTegic.value.DoubleValue
0.205

@<SCITEGIC>MOL_PROPERTY
Angle
SciTegic.value.DoubleValue
0.962

@<SCITEGIC>MOL_PROPERTY
Pdih
SciTegic.value.DoubleValue
1.434

@<SCITEGIC>MOL_PROPERTY
Idih
SciTegic.value.DoubleValue
0.000

@<SCITEGIC>MOL_PROPERTY
Tether
SciTegic.value.DoubleValue
0.000

@<TRIPOS>MOLECULE
guest-2_confgen4.mol2 : confsearch ligand conformer 844
          23          22           1
SMALL
USER_CHARGES
 
@<TRIPOS>ATOM
       1    N1      22.293750   18.056187   24.202459 N.4        1 MOL1        -0.5940
       2    H1      22.644142   17.113065   24.401715 H          1 MOL1         0.3649
       3    H2      22.531604   18.639074   25.011441 H          1 MOL1         0.3649
       4    H3      22.831698   18.411957   23.405776 H          1 MOL1         0.3649
       5    C1      20.804304   18.056165   23.924628 C.3        1 MOL1         0.0207
       6    H4      20.297248   17.640170   24.799380 H          1 MOL1         0.0950
       7    H5      20.621299   17.394763   23.073752 H          1 MOL1         0.0950
       8    C2      20.246367   19.459173   23.621161 C.3        1 MOL1        -0.1415
       9    H6      20.468456   20.124565   24.465944 H          1 MOL1         0.0976
      10    H7      20.763704   19.883081   22.751049 H          1 MOL1         0.0976
      11    C3      18.716778   19.454214   23.377450 C.3        1 MOL1        -0.1375
      12    H8      18.379805   20.482409   23.189798 H          1 MOL1         0.0976
      13    H9      18.211421   19.141472   24.301636 H          1 MOL1         0.0976
      14    C4      18.244490   18.533889   22.219562 C.3        1 MOL1        -0.1375
      15    H10     18.435165   17.485523   22.485787 H          1 MOL1         0.0976
      16    H11     17.153172   18.620280   22.126130 H          1 MOL1         0.0976
      17    C5      18.888644   18.825968   20.840441 C.3        1 MOL1        -0.1350
      18    H12     18.490063   18.109139   20.109017 H          1 MOL1         0.0976
      19    H13     19.970919   18.643763   20.880441 H          1 MOL1         0.0976
      20    C6      18.619265   20.259428   20.329421 C.3        1 MOL1        -0.2365
      21    H14     17.542413   20.469174   20.292866 H          1 MOL1         0.0987
      22    H15     19.021173   20.388479   19.316179 H          1 MOL1         0.0987
      23    H16     19.094283   21.011406   20.971640 H          1 MOL1         0.0987
@<TRIPOS>BOND
    1     1     2    1
    2     1     3    1
    3     1     4    1
    4     1     5    1
    5     5     6    1
    6     5     7    1
    7     5     8    1
    8     8     9    1
    9     8    10    1
   10     8    11    1
   11    11    12    1
   12    11    13    1
   13    11    14    1
   14    14    15    1
   15    14    16    1
   16    14    17    1
   17    17    18    1
   18    17    19    1
   19    17    20    1
   20    20    21    1
   21    20    22    1
   22    20    23    1
@<TRIPOS>SUBSTRUCTURE
       1 MOL1            1 RESIDUE      1      MOL     
@<SCITEGIC>MOL_PROPERTY
VConf Rank
SciTegic.value.IntegerValue
844

@<SCITEGIC>MOL_PROPERTY
Conf_Id
SciTegic.value.IntegerValue
26

@<SCITEGIC>MOL_PROPERTY
Delta U+W
SciTegic.value.DoubleValue
1.076

@<SCITEGIC>MOL_PROPERTY
U+W
SciTegic.value.DoubleValue
-7.306

@<SCITEGIC>MOL_PROPERTY
Grad RMS
SciTegic.value.DoubleValue
0.000000

@<SCITEGIC>MOL_PROPERTY
U
SciTegic.value.DoubleValue
48.641

@<SCITEGIC>MOL_PROPERTY
W
SciTegic.value.DoubleValue
-55.947

@<SCITEGIC>MOL_PROPERTY
W(PB)
SciTegic.value.DoubleValue
-58.031

@<SCITEGIC>MOL_PROPERTY
W(SA)
SciTegic.value.DoubleValue
2.084

@<SCITEGIC>MOL_PROPERTY
Valence
SciTegic.value.DoubleValue
2.922

@<SCITEGIC>MOL_PROPERTY
Coulomb
SciTegic.value.DoubleValue
45.269

@<SCITEGIC>MOL_PROPERTY
VdW
SciTegic.value.DoubleValue
0.449

@<SCITEGIC>MOL_PROPERTY
VdW6
SciTegic.value.DoubleValue
-7.045

@<SCITEGIC>MOL_PROPERTY
VdW12
SciTegic.value.DoubleValue
7.494

@<SCITEGIC>MOL_PROPERTY
Bond
SciTegic.value.DoubleValue
0.220

@<SCITEGIC>MOL_PROPERTY
Angle
SciTegic.value.DoubleValue
1.205

@<SCITEGIC>MOL_PROPERTY
Pdih
SciTegic.value.DoubleValue
1.497

@<SCITEGIC>MOL_PROPERTY
Idih
SciTegic.value.DoubleValue
0.000

@<SCITEGIC>MOL_PROPERTY
Tether
SciTegic.value.DoubleValue
0.000

@<TRIPOS>MOLECULE
guest-2_confgen4.mol2 : confsearch ligand conformer 845
          23          22           1
SMALL
USER_CHARGES
 
@<TRIPOS>ATOM
       1    N1      17.736716   20.821994   24.082373 N.4        1 MOL1        -0.5940
       2    H1      17.921697   20.977436   25.078568 H          1 MOL1         0.3649
       3    H2      16.722728   20.903671   23.951548 H          1 MOL1         0.3649
       4    H3      18.166881   21.599161   23.570873 H          1 MOL1         0.3649
       5    C1      18.258234   19.478805   23.613870 C.3        1 MOL1         0.0207
       6    H4      18.000894   19.368519   22.557202 H          1 MOL1         0.0950
       7    H5      17.739122   18.699191   24.177852 H          1 MOL1         0.0950
       8    C2      19.779591   19.324295   23.796672 C.3        1 MOL1        -0.1415
       9    H6      20.301292   20.114263   23.241504 H          1 MOL1         0.0976
      10    H7      20.031290   19.473826   24.854980 H          1 MOL1         0.0976
      11    C3      20.296868   17.933878   23.351444 C.3        1 MOL1        -0.1375
      12    H8      19.853541   17.166054   24.000458 H          1 MOL1         0.0976
      13    H9      21.379518   17.880382   23.527397 H          1 MOL1         0.0976
      14    C4      19.992656   17.568209   21.873439 C.3        1 MOL1        -0.1375
      15    H10     20.415594   16.576086   21.663717 H          1 MOL1         0.0976
      16    H11     18.907833   17.460015   21.740191 H          1 MOL1         0.0976
      17    C5      20.529154   18.572471   20.821845 C.3        1 MOL1        -0.1350
      18    H12     20.040575   19.548344   20.944649 H          1 MOL1         0.0976
      19    H13     20.244276   18.217536   19.821566 H          1 MOL1         0.0976
      20    C6      22.063959   18.747638   20.868841 C.3        1 MOL1        -0.2365
      21    H14     22.388104   19.204010   21.812352 H          1 MOL1         0.0987
      22    H15     22.401897   19.399521   20.052945 H          1 MOL1         0.0987
      23    H16     22.574554   17.781962   20.760653 H          1 MOL1         0.0987
@<TRIPOS>BOND
    1     1     2    1
    2     1     3    1
    3     1     4    1
    4     1     5    1
    5     5     6    1
    6     5     7    1
    7     5     8    1
    8     8     9    1
    9     8    10    1
   10     8    11    1
   11    11    12    1
   12    11    13    1
   13    11    14    1
   14    14    15    1
   15    14    16    1
   16    14    17    1
   17    17    18    1
   18    17    19    1
   19    17    20    1
   20    20    21    1
   21    20    22    1
   22    20    23    1
@<TRIPOS>SUBSTRUCTURE
       1 MOL1            1 RESIDUE      1      MOL     
@<SCITEGIC>MOL_PROPERTY
VConf Rank
SciTegic.value.IntegerValue
845

@<SCITEGIC>MOL_PROPERTY
Conf_Id
SciTegic.value.IntegerValue
90

@<SCITEGIC>MOL_PROPERTY
Delta U+W
SciTegic.value.DoubleValue
1.131

@<SCITEGIC>MOL_PROPERTY
U+W
SciTegic.value.DoubleValue
-7.251

@<SCITEGIC>MOL_PROPERTY
Grad RMS
SciTegic.value.DoubleValue
0.000000

@<SCITEGIC>MOL_PROPERTY
U
SciTegic.value.DoubleValue
48.641

@<SCITEGIC>MOL_PROPERTY
W
SciTegic.value.DoubleValue
-55.892

@<SCITEGIC>MOL_PROPERTY
W(PB)
SciTegic.value.DoubleValue
-57.962

@<SCITEGIC>MOL_PROPERTY
W(SA)
SciTegic.value.DoubleValue
2.070

@<SCITEGIC>MOL_PROPERTY
Valence
SciTegic.value.DoubleValue
2.922

@<SCITEGIC>MOL_PROPERTY
Coulomb
SciTegic.value.DoubleValue
45.269

@<SCITEGIC>MOL_PROPERTY
VdW
SciTegic.value.DoubleValue
0.450

@<SCITEGIC>MOL_PROPERTY
VdW6
SciTegic.value.DoubleValue
-7.045

@<SCITEGIC>MOL_PROPERTY
VdW12
SciTegic.value.DoubleValue
7.495

@<SCITEGIC>MOL_PROPERTY
Bond
SciTegic.value.DoubleValue
0.220

@<SCITEGIC>MOL_PROPERTY
Angle
SciTegic.value.DoubleValue
1.205

@<SCITEGIC>MOL_PROPERTY
Pdih
SciTegic.value.DoubleValue
1.497

@<SCITEGIC>MOL_PROPERTY
Idih
SciTegic.value.DoubleValue
0.000

@<SCITEGIC>MOL_PROPERTY
Tether
SciTegic.value.DoubleValue
0.000

@<TRIPOS>MOLECULE
guest-2_confgen4.mol2 : confsearch ligand conformer 846
          23          22           1
SMALL
USER_CHARGES
 
@<TRIPOS>ATOM
       1    N1      21.057786   21.268390   22.743309 N.4        1 MOL1        -0.5940
       2    H1      21.007816   22.173143   22.262918 H          1 MOL1         0.3649
       3    H2      21.187717   20.551550   22.022975 H          1 MOL1         0.3649
       4    H3      21.907417   21.280601   23.316503 H          1 MOL1         0.3649
       5    C1      19.819748   21.004414   23.577560 C.3        1 MOL1         0.0207
       6    H4      18.951347   21.035345   22.914507 H          1 MOL1         0.0950
       7    H5      19.724267   21.820298   24.299181 H          1 MOL1         0.0950
       8    C2      19.854391   19.657999   24.329128 C.3        1 MOL1        -0.1415
       9    H6      20.702823   19.656894   25.026230 H          1 MOL1         0.0976
      10    H7      18.950619   19.576669   24.947534 H          1 MOL1         0.0976
      11    C3      19.951769   18.421082   23.401154 C.3        1 MOL1        -0.1375
      12    H8      19.985708   17.517353   24.025039 H          1 MOL1         0.0976
      13    H9      20.901345   18.449399   22.851967 H          1 MOL1         0.0976
      14    C4      18.764772   18.310475   22.411063 C.3        1 MOL1        -0.1375
      15    H10     17.822608   18.369669   22.973282 H          1 MOL1         0.0976
      16    H11     18.766909   19.163792   21.719849 H          1 MOL1         0.0976
      17    C5      18.767857   16.996034   21.593978 C.3        1 MOL1        -0.1350
      18    H12     17.844501   16.947812   20.999904 H          1 MOL1         0.0976
      19    H13     18.739895   16.134192   22.275320 H          1 MOL1         0.0976
      20    C6      19.979430   16.867995   20.642750 C.3        1 MOL1        -0.2365
      21    H14     20.045095   17.731437   19.968145 H          1 MOL1         0.0987
      22    H15     19.888140   15.965702   20.024310 H          1 MOL1         0.0987
      23    H16     20.922287   16.792159   21.198341 H          1 MOL1         0.0987
@<TRIPOS>BOND
    1     1     2    1
    2     1     3    1
    3     1     4    1
    4     1     5    1
    5     5     6    1
    6     5     7    1
    7     5     8    1
    8     8     9    1
    9     8    10    1
   10     8    11    1
   11    11    12    1
   12    11    13    1
   13    11    14    1
   14    14    15    1
   15    14    16    1
   16    14    17    1
   17    17    18    1
   18    17    19    1
   19    17    20    1
   20    20    21    1
   21    20    22    1
   22    20    23    1
@<TRIPOS>SUBSTRUCTURE
       1 MOL1            1 RESIDUE      1      MOL     
@<SCITEGIC>MOL_PROPERTY
VConf Rank
SciTegic.value.IntegerValue
846

@<SCITEGIC>MOL_PROPERTY
Conf_Id
SciTegic.value.IntegerValue
85

@<SCITEGIC>MOL_PROPERTY
Delta U+W
SciTegic.value.DoubleValue
1.193

@<SCITEGIC>MOL_PROPERTY
U+W
SciTegic.value.DoubleValue
-7.189

@<SCITEGIC>MOL_PROPERTY
Grad RMS
SciTegic.value.DoubleValue
0.000000

@<SCITEGIC>MOL_PROPERTY
U
SciTegic.value.DoubleValue
48.775

@<SCITEGIC>MOL_PROPERTY
W
SciTegic.value.DoubleValue
-55.965

@<SCITEGIC>MOL_PROPERTY
W(PB)
SciTegic.value.DoubleValue
-58.038

@<SCITEGIC>MOL_PROPERTY
W(SA)
SciTegic.value.DoubleValue
2.073

@<SCITEGIC>MOL_PROPERTY
Valence
SciTegic.value.DoubleValue
2.602

@<SCITEGIC>MOL_PROPERTY
Coulomb
SciTegic.value.DoubleValue
45.581

@<SCITEGIC>MOL_PROPERTY
VdW
SciTegic.value.DoubleValue
0.592

@<SCITEGIC>MOL_PROPERTY
VdW6
SciTegic.value.DoubleValue
-6.616

@<SCITEGIC>MOL_PROPERTY
VdW12
SciTegic.value.DoubleValue
7.208

@<SCITEGIC>MOL_PROPERTY
Bond
SciTegic.value.DoubleValue
0.196

@<SCITEGIC>MOL_PROPERTY
Angle
SciTegic.value.DoubleValue
0.832

@<SCITEGIC>MOL_PROPERTY
Pdih
SciTegic.value.DoubleValue
1.574

@<SCITEGIC>MOL_PROPERTY
Idih
SciTegic.value.DoubleValue
0.000

@<SCITEGIC>MOL_PROPERTY
Tether
SciTegic.value.DoubleValue
0.000

@<TRIPOS>MOLECULE
guest-2_confgen4.mol2 : confsearch ligand conformer 847
          23          22           1
SMALL
USER_CHARGES
 
@<TRIPOS>ATOM
       1    N1      20.844066   20.603739   22.068250 N.4        1 MOL1        -0.5940
       2    H1      19.977236   20.425329   22.585402 H          1 MOL1         0.3649
       3    H2      20.668196   21.392168   21.435990 H          1 MOL1         0.3649
       4    H3      21.546421   20.915943   22.746661 H          1 MOL1         0.3649
       5    C1      21.301455   19.369458   21.315251 C.3        1 MOL1         0.0207
       6    H4      22.224823   19.637097   20.794414 H          1 MOL1         0.0950
       7    H5      20.548497   19.118677   20.563392 H          1 MOL1         0.0950
       8    C2      21.568595   18.147417   22.217454 C.3        1 MOL1        -0.1415
       9    H6      22.246994   17.474827   21.675941 H          1 MOL1         0.0976
      10    H7      22.115290   18.462209   23.116288 H          1 MOL1         0.0976
      11    C3      20.310025   17.330499   22.615899 C.3        1 MOL1        -0.1375
      12    H8      20.651467   16.467714   23.204563 H          1 MOL1         0.0976
      13    H9      19.839255   16.905444   21.718584 H          1 MOL1         0.0976
      14    C4      19.259136   18.099531   23.457018 C.3        1 MOL1        -0.1375
      15    H10     18.818919   17.404392   24.185529 H          1 MOL1         0.0976
      16    H11     19.748765   18.880874   24.053250 H          1 MOL1         0.0976
      17    C5      18.107458   18.686481   22.604828 C.3        1 MOL1        -0.1350
      18    H12     17.534237   17.863576   22.154962 H          1 MOL1         0.0976
      19    H13     18.496810   19.276464   21.766614 H          1 MOL1         0.0976
      20    C6      17.159002   19.560833   23.452040 C.3        1 MOL1        -0.2365
      21    H14     16.712284   18.979315   24.269137 H          1 MOL1         0.0987
      22    H15     16.341339   19.955618   22.834990 H          1 MOL1         0.0987
      23    H16     17.690534   20.414233   23.892434 H          1 MOL1         0.0987
@<TRIPOS>BOND
    1     1     2    1
    2     1     3    1
    3     1     4    1
    4     1     5    1
    5     5     6    1
    6     5     7    1
    7     5     8    1
    8     8     9    1
    9     8    10    1
   10     8    11    1
   11    11    12    1
   12    11    13    1
   13    11    14    1
   14    14    15    1
   15    14    16    1
   16    14    17    1
   17    17    18    1
   18    17    19    1
   19    17    20    1
   20    20    21    1
   21    20    22    1
   22    20    23    1
@<TRIPOS>SUBSTRUCTURE
       1 MOL1            1 RESIDUE      1      MOL     
@<SCITEGIC>MOL_PROPERTY
VConf Rank
SciTegic.value.IntegerValue
847

@<SCITEGIC>MOL_PROPERTY
Conf_Id
SciTegic.value.IntegerValue
82

@<SCITEGIC>MOL_PROPERTY
Delta U+W
SciTegic.value.DoubleValue
5.994

@<SCITEGIC>MOL_PROPERTY
U+W
SciTegic.value.DoubleValue
-2.388

@<SCITEGIC>MOL_PROPERTY
Grad RMS
SciTegic.value.DoubleValue
0.000000

@<SCITEGIC>MOL_PROPERTY
U
SciTegic.value.DoubleValue
52.836

@<SCITEGIC>MOL_PROPERTY
W
SciTegic.value.DoubleValue
-55.224

@<SCITEGIC>MOL_PROPERTY
W(PB)
SciTegic.value.DoubleValue
-57.261

@<SCITEGIC>MOL_PROPERTY
W(SA)
SciTegic.value.DoubleValue
2.037

@<SCITEGIC>MOL_PROPERTY
Valence
SciTegic.value.DoubleValue
5.785

@<SCITEGIC>MOL_PROPERTY
Coulomb
SciTegic.value.DoubleValue
46.744

@<SCITEGIC>MOL_PROPERTY
VdW
SciTegic.value.DoubleValue
0.307

@<SCITEGIC>MOL_PROPERTY
VdW6
SciTegic.value.DoubleValue
-7.672

@<SCITEGIC>MOL_PROPERTY
VdW12
SciTegic.value.DoubleValue
7.979

@<SCITEGIC>MOL_PROPERTY
Bond
SciTegic.value.DoubleValue
0.217

@<SCITEGIC>MOL_PROPERTY
Angle
SciTegic.value.DoubleValue
1.470

@<SCITEGIC>MOL_PROPERTY
Pdih
SciTegic.value.DoubleValue
4.098

@<SCITEGIC>MOL_PROPERTY
Idih
SciTegic.value.DoubleValue
0.000

@<SCITEGIC>MOL_PROPERTY
Tether
SciTegic.value.DoubleValue
0.000

@<TRIPOS>MOLECULE
guest-2_confgen4.mol2 : confsearch ligand conformer 848
          23          22           1
SMALL
USER_CHARGES
 
@<TRIPOS>ATOM
       1    N1      19.537868   17.012091   23.095787 N.4        1 MOL1        -0.5940
       2    H1      18.581104   16.741536   23.345625 H          1 MOL1         0.3649
       3    H2      20.048437   16.146936   22.888117 H          1 MOL1         0.3649
       4    H3      19.485684   17.554075   22.227337 H          1 MOL1         0.3649
       5    C1      20.203249   17.806520   24.202948 C.3        1 MOL1         0.0207
       6    H4      21.237281   18.012194   23.913804 H          1 MOL1         0.0950
       7    H5      20.219821   17.166680   25.089424 H          1 MOL1         0.0950
       8    C2      19.483133   19.126019   24.548020 C.3        1 MOL1        -0.1415
       9    H6      18.398469   18.958408   24.583820 H          1 MOL1         0.0976
      10    H7      19.775146   19.408600   25.568174 H          1 MOL1         0.0976
      11    C3      19.808691   20.322268   23.613615 C.3        1 MOL1        -0.1375
      12    H8      20.876586   20.571976   23.682297 H          1 MOL1         0.0976
      13    H9      19.276496   21.199830   24.006243 H          1 MOL1         0.0976
      14    C4      19.398036   20.136091   22.130387 C.3        1 MOL1        -0.1375
      15    H10     18.531721   19.465270   22.058120 H          1 MOL1         0.0976
      16    H11     19.055391   21.104204   21.739122 H          1 MOL1         0.0976
      17    C5      20.560567   19.645838   21.233015 C.3        1 MOL1        -0.1350
      18    H12     21.039476   18.755526   21.657603 H          1 MOL1         0.0976
      19    H13     21.340161   20.419765   21.195528 H          1 MOL1         0.0976
      20    C6      20.083031   19.337702   19.798150 C.3        1 MOL1        -0.2365
      21    H14     19.325186   18.543723   19.792161 H          1 MOL1         0.0987
      22    H15     20.922568   19.006400   19.173174 H          1 MOL1         0.0987
      23    H16     19.646340   20.228936   19.328713 H          1 MOL1         0.0987
@<TRIPOS>BOND
    1     1     2    1
    2     1     3    1
    3     1     4    1
    4     1     5    1
    5     5     6    1
    6     5     7    1
    7     5     8    1
    8     8     9    1
    9     8    10    1
   10     8    11    1
   11    11    12    1
   12    11    13    1
   13    11    14    1
   14    14    15    1
   15    14    16    1
   16    14    17    1
   17    17    18    1
   18    17    19    1
   19    17    20    1
   20    20    21    1
   21    20    22    1
   22    20    23    1
@<TRIPOS>SUBSTRUCTURE
       1 MOL1            1 RESIDUE      1      MOL     
@<SCITEGIC>MOL_PROPERTY
VConf Rank
SciTegic.value.IntegerValue
848

@<SCITEGIC>MOL_PROPERTY
Conf_Id
SciTegic.value.IntegerValue
5

@<SCITEGIC>MOL_PROPERTY
Delta U+W
SciTegic.value.DoubleValue
6.087

@<SCITEGIC>MOL_PROPERTY
U+W
SciTegic.value.DoubleValue
-2.295

@<SCITEGIC>MOL_PROPERTY
Grad RMS
SciTegic.value.DoubleValue
0.000000

@<SCITEGIC>MOL_PROPERTY
U
SciTegic.value.DoubleValue
52.836

@<SCITEGIC>MOL_PROPERTY
W
SciTegic.value.DoubleValue
-55.131

@<SCITEGIC>MOL_PROPERTY
W(PB)
SciTegic.value.DoubleValue
-57.202

@<SCITEGIC>MOL_PROPERTY
W(SA)
SciTegic.value.DoubleValue
2.071

@<SCITEGIC>MOL_PROPERTY
Valence
SciTegic.value.DoubleValue
5.785

@<SCITEGIC>MOL_PROPERTY
Coulomb
SciTegic.value.DoubleValue
46.744

@<SCITEGIC>MOL_PROPERTY
VdW
SciTegic.value.DoubleValue
0.307

@<SCITEGIC>MOL_PROPERTY
VdW6
SciTegic.value.DoubleValue
-7.672

@<SCITEGIC>MOL_PROPERTY
VdW12
SciTegic.value.DoubleValue
7.980

@<SCITEGIC>MOL_PROPERTY
Bond
SciTegic.value.DoubleValue
0.217

@<SCITEGIC>MOL_PROPERTY
Angle
SciTegic.value.DoubleValue
1.470

@<SCITEGIC>MOL_PROPERTY
Pdih
SciTegic.value.DoubleValue
4.098

@<SCITEGIC>MOL_PROPERTY
Idih
SciTegic.value.DoubleValue
0.000

@<SCITEGIC>MOL_PROPERTY
Tether
SciTegic.value.DoubleValue
0.000

@<TRIPOS>MOLECULE
guest-2_confgen4.mol2 : confsearch ligand conformer 849
          23          22           1
SMALL
USER_CHARGES
 
@<TRIPOS>ATOM
       1    N1      22.000251   21.181569   24.853748 N.4        1 MOL1        -0.5940
       2    H1      22.805648   21.214298   24.220386 H          1 MOL1         0.3649
       3    H2      22.372167   21.196290   25.809549 H          1 MOL1         0.3649
       4    H3      21.478720   22.054493   24.723774 H          1 MOL1         0.3649
       5    C1      21.134514   19.963073   24.605424 C.3        1 MOL1         0.0207
       6    H4      20.316656   19.976627   25.330973 H          1 MOL1         0.0950
       7    H5      21.742926   19.073532   24.789950 H          1 MOL1         0.0950
       8    C2      20.560315   19.911078   23.178480 C.3        1 MOL1        -0.1415
       9    H6      19.963518   20.813955   22.992079 H          1 MOL1         0.0976
      10    H7      21.384765   19.914157   22.452966 H          1 MOL1         0.0976
      11    C3      19.685238   18.655904   22.966441 C.3        1 MOL1        -0.1375
      12    H8      18.864726   18.653817   23.697577 H          1 MOL1         0.0976
      13    H9      20.284478   17.754994   23.158990 H          1 MOL1         0.0976
      14    C4      19.103080   18.593493   21.535987 C.3        1 MOL1        -0.1375
      15    H10     18.503758   19.494170   21.343355 H          1 MOL1         0.0976
      16    H11     19.923378   18.595553   20.804809 H          1 MOL1         0.0976
      17    C5      18.228039   17.338015   21.324237 C.3        1 MOL1        -0.1350
      18    H12     17.404377   17.332571   22.051922 H          1 MOL1         0.0976
      19    H13     18.823873   16.434041   21.513410 H          1 MOL1         0.0976
      20    C6      17.648513   17.279158   19.894834 C.3        1 MOL1        -0.2365
      21    H14     17.030506   16.381422   19.763744 H          1 MOL1         0.0987
      22    H15     18.449725   17.248926   19.144918 H          1 MOL1         0.0987
      23    H16     17.019160   18.154491   19.687626 H          1 MOL1         0.0987
@<TRIPOS>BOND
    1     1     2    1
    2     1     3    1
    3     1     4    1
    4     1     5    1
    5     5     6    1
    6     5     7    1
    7     5     8    1
    8     8     9    1
    9     8    10    1
   10     8    11    1
   11    11    12    1
   12    11    13    1
   13    11    14    1
   14    14    15    1
   15    14    16    1
   16    14    17    1
   17    17    18    1
   18    17    19    1
   19    17    20    1
   20    20    21    1
   21    20    22    1
   22    20    23    1
@<TRIPOS>SUBSTRUCTURE
       1 MOL1            1 RESIDUE      1      MOL     
@<SCITEGIC>MOL_PROPERTY
VConf Rank
SciTegic.value.IntegerValue
849

@<SCITEGIC>MOL_PROPERTY
Conf_Id
SciTegic.value.IntegerValue
40

@<SCITEGIC>MOL_PROPERTY
Delta U+W
SciTegic.value.DoubleValue
0.000

@<SCITEGIC>MOL_PROPERTY
U+W
SciTegic.value.DoubleValue
-8.382

@<SCITEGIC>MOL_PROPERTY
Grad RMS
SciTegic.value.DoubleValue
0.000000

@<SCITEGIC>MOL_PROPERTY
U
SciTegic.value.DoubleValue
46.604

@<SCITEGIC>MOL_PROPERTY
W
SciTegic.value.DoubleValue
-54.986

@<SCITEGIC>MOL_PROPERTY
W(PB)
SciTegic.value.DoubleValue
-57.162

@<SCITEGIC>MOL_PROPERTY
W(SA)
SciTegic.value.DoubleValue
2.176

@<SCITEGIC>MOL_PROPERTY
Valence
SciTegic.value.DoubleValue
1.727

@<SCITEGIC>MOL_PROPERTY
Coulomb
SciTegic.value.DoubleValue
44.434

@<SCITEGIC>MOL_PROPERTY
VdW
SciTegic.value.DoubleValue
0.443

@<SCITEGIC>MOL_PROPERTY
VdW6
SciTegic.value.DoubleValue
-4.623

@<SCITEGIC>MOL_PROPERTY
VdW12
SciTegic.value.DoubleValue
5.066

@<SCITEGIC>MOL_PROPERTY
Bond
SciTegic.value.DoubleValue
0.112

@<SCITEGIC>MOL_PROPERTY
Angle
SciTegic.value.DoubleValue
0.386

@<SCITEGIC>MOL_PROPERTY
Pdih
SciTegic.value.DoubleValue
1.228

@<SCITEGIC>MOL_PROPERTY
Idih
SciTegic.value.DoubleValue
0.000

@<SCITEGIC>MOL_PROPERTY
Tether
SciTegic.value.DoubleValue
0.000

@<TRIPOS>MOLECULE
guest-2_confgen4.mol2 : confsearch ligand conformer 850
          23          22           1
SMALL
USER_CHARGES
 
@<TRIPOS>ATOM
       1    N1      22.339229   19.399375   20.160494 N.4        1 MOL1        -0.5940
       2    H1      22.495649   20.392174   19.958695 H          1 MOL1         0.3649
       3    H2      21.817040   19.009526   19.369186 H          1 MOL1         0.3649
       4    H3      23.259826   18.947127   20.161937 H          1 MOL1         0.3649
       5    C1      21.610566   19.197250   21.473498 C.3        1 MOL1         0.0207
       6    H4      22.233783   19.608589   22.272128 H          1 MOL1         0.0950
       7    H5      21.507296   18.121527   21.636822 H          1 MOL1         0.0950
       8    C2      20.223080   19.865955   21.502637 C.3        1 MOL1        -0.1415
       9    H6      20.338182   20.937157   21.289979 H          1 MOL1         0.0976
      10    H7      19.596246   19.452300   20.701418 H          1 MOL1         0.0976
      11    C3      19.505001   19.699928   22.862938 C.3        1 MOL1        -0.1375
      12    H8      18.583614   20.296138   22.839666 H          1 MOL1         0.0976
      13    H9      20.130145   20.123335   23.661244 H          1 MOL1         0.0976
      14    C4      19.161591   18.224985   23.193372 C.3        1 MOL1        -0.1375
      15    H10     18.519341   17.808534   22.405143 H          1 MOL1         0.0976
      16    H11     20.080831   17.624566   23.192127 H          1 MOL1         0.0976
      17    C5      18.472560   18.046157   24.568065 C.3        1 MOL1        -0.1350
      18    H12     19.115421   18.451661   25.361850 H          1 MOL1         0.0976
      19    H13     18.371963   16.971266   24.773889 H          1 MOL1         0.0976
      20    C6      17.073776   18.699308   24.646728 C.3        1 MOL1        -0.2365
      21    H14     17.133335   19.792129   24.572895 H          1 MOL1         0.0987
      22    H15     16.591858   18.460130   25.603544 H          1 MOL1         0.0987
      23    H16     16.421663   18.334555   23.842542 H          1 MOL1         0.0987
@<TRIPOS>BOND
    1     1     2    1
    2     1     3    1
    3     1     4    1
    4     1     5    1
    5     5     6    1
    6     5     7    1
    7     5     8    1
    8     8     9    1
    9     8    10    1
   10     8    11    1
   11    11    12    1
   12    11    13    1
   13    11    14    1
   14    14    15    1
   15    14    16    1
   16    14    17    1
   17    17    18    1
   18    17    19    1
   19    17    20    1
   20    20    21    1
   21    20    22    1
   22    20    23    1
@<TRIPOS>SUBSTRUCTURE
       1 MOL1            1 RESIDUE      1      MOL     
@<SCITEGIC>MOL_PROPERTY
VConf Rank
SciTegic.value.IntegerValue
850

@<SCITEGIC>MOL_PROPERTY
Conf_Id
SciTegic.value.IntegerValue
65

@<SCITEGIC>MOL_PROPERTY
Delta U+W
SciTegic.value.DoubleValue
1.004

@<SCITEGIC>MOL_PROPERTY
U+W
SciTegic.value.DoubleValue
-7.378

@<SCITEGIC>MOL_PROPERTY
Grad RMS
SciTegic.value.DoubleValue
0.000000

@<SCITEGIC>MOL_PROPERTY
U
SciTegic.value.DoubleValue
48.047

@<SCITEGIC>MOL_PROPERTY
W
SciTegic.value.DoubleValue
-55.425

@<SCITEGIC>MOL_PROPERTY
W(PB)
SciTegic.value.DoubleValue
-57.542

@<SCITEGIC>MOL_PROPERTY
W(SA)
SciTegic.value.DoubleValue
2.116

@<SCITEGIC>MOL_PROPERTY
Valence
SciTegic.value.DoubleValue
2.583

@<SCITEGIC>MOL_PROPERTY
Coulomb
SciTegic.value.DoubleValue
44.791

@<SCITEGIC>MOL_PROPERTY
VdW
SciTegic.value.DoubleValue
0.673

@<SCITEGIC>MOL_PROPERTY
VdW6
SciTegic.value.DoubleValue
-5.788

@<SCITEGIC>MOL_PROPERTY
VdW12
SciTegic.value.DoubleValue
6.462

@<SCITEGIC>MOL_PROPERTY
Bond
SciTegic.value.DoubleValue
0.177

@<SCITEGIC>MOL_PROPERTY
Angle
SciTegic.value.DoubleValue
0.787

@<SCITEGIC>MOL_PROPERTY
Pdih
SciTegic.value.DoubleValue
1.619

@<SCITEGIC>MOL_PROPERTY
Idih
SciTegic.value.DoubleValue
0.000

@<SCITEGIC>MOL_PROPERTY
Tether
SciTegic.value.DoubleValue
0.000

@<TRIPOS>MOLECULE
guest-2_confgen4.mol2 : confsearch ligand conformer 851
          23          22           1
SMALL
USER_CHARGES
 
@<TRIPOS>ATOM
       1    N1      21.210529   18.366848   25.814998 N.4        1 MOL1        -0.5940
       2    H1      21.479220   19.244829   26.270842 H          1 MOL1         0.3649
       3    H2      21.944155   17.683020   26.029943 H          1 MOL1         0.3649
       4    H3      20.354171   18.039009   26.273262 H          1 MOL1         0.3649
       5    C1      21.022069   18.539747   24.321558 C.3        1 MOL1         0.0207
       6    H4      20.769078   17.563253   23.900874 H          1 MOL1         0.0950
       7    H5      21.976460   18.861312   23.895948 H          1 MOL1         0.0950
       8    C2      19.925734   19.561943   23.966171 C.3        1 MOL1        -0.1415
       9    H6      18.966617   19.238844   24.392419 H          1 MOL1         0.0976
      10    H7      20.169333   20.524670   24.434960 H          1 MOL1         0.0976
      11    C3      19.772544   19.772268   22.441077 C.3        1 MOL1        -0.1375
      12    H8      20.730996   20.104914   22.019074 H          1 MOL1         0.0976
      13    H9      19.059481   20.590627   22.277394 H          1 MOL1         0.0976
      14    C4      19.285773   18.502145   21.697831 C.3        1 MOL1        -0.1375
      15    H10     19.986558   17.677281   21.882233 H          1 MOL1         0.0976
      16    H11     18.317307   18.182083   22.106311 H          1 MOL1         0.0976
      17    C5      19.161571   18.694100   20.166738 C.3        1 MOL1        -0.1350
      18    H12     18.927739   17.722982   19.708345 H          1 MOL1         0.0976
      19    H13     20.130469   19.004240   19.750987 H          1 MOL1         0.0976
      20    C6      18.070864   19.710648   19.758842 C.3        1 MOL1        -0.2365
      21    H14     18.322663   20.726767   20.086494 H          1 MOL1         0.0987
      22    H15     17.098104   19.440623   20.189928 H          1 MOL1         0.0987
      23    H16     17.958453   19.735502   18.667196 H          1 MOL1         0.0987
@<TRIPOS>BOND
    1     1     2    1
    2     1     3    1
    3     1     4    1
    4     1     5    1
    5     5     6    1
    6     5     7    1
    7     5     8    1
    8     8     9    1
    9     8    10    1
   10     8    11    1
   11    11    12    1
   12    11    13    1
   13    11    14    1
   14    14    15    1
   15    14    16    1
   16    14    17    1
   17    17    18    1
   18    17    19    1
   19    17    20    1
   20    20    21    1
   21    20    22    1
   22    20    23    1
@<TRIPOS>SUBSTRUCTURE
       1 MOL1            1 RESIDUE      1      MOL     
@<SCITEGIC>MOL_PROPERTY
VConf Rank
SciTegic.value.IntegerValue
851

@<SCITEGIC>MOL_PROPERTY
Conf_Id
SciTegic.value.IntegerValue
92

@<SCITEGIC>MOL_PROPERTY
Delta U+W
SciTegic.value.DoubleValue
0.973

@<SCITEGIC>MOL_PROPERTY
U+W
SciTegic.value.DoubleValue
-7.409

@<SCITEGIC>MOL_PROPERTY
Grad RMS
SciTegic.value.DoubleValue
0.000000

@<SCITEGIC>MOL_PROPERTY
U
SciTegic.value.DoubleValue
48.047

@<SCITEGIC>MOL_PROPERTY
W
SciTegic.value.DoubleValue
-55.456

@<SCITEGIC>MOL_PROPERTY
W(PB)
SciTegic.value.DoubleValue
-57.595

@<SCITEGIC>MOL_PROPERTY
W(SA)
SciTegic.value.DoubleValue
2.138

@<SCITEGIC>MOL_PROPERTY
Valence
SciTegic.value.DoubleValue
2.583

@<SCITEGIC>MOL_PROPERTY
Coulomb
SciTegic.value.DoubleValue
44.791

@<SCITEGIC>MOL_PROPERTY
VdW
SciTegic.value.DoubleValue
0.674

@<SCITEGIC>MOL_PROPERTY
VdW6
SciTegic.value.DoubleValue
-5.789

@<SCITEGIC>MOL_PROPERTY
VdW12
SciTegic.value.DoubleValue
6.462

@<SCITEGIC>MOL_PROPERTY
Bond
SciTegic.value.DoubleValue
0.177

@<SCITEGIC>MOL_PROPERTY
Angle
SciTegic.value.DoubleValue
0.787

@<SCITEGIC>MOL_PROPERTY
Pdih
SciTegic.value.DoubleValue
1.619

@<SCITEGIC>MOL_PROPERTY
Idih
SciTegic.value.DoubleValue
0.000

@<SCITEGIC>MOL_PROPERTY
Tether
SciTegic.value.DoubleValue
0.000

@<TRIPOS>MOLECULE
guest-2_confgen4.mol2 : confsearch ligand conformer 852
          23          22           1
SMALL
USER_CHARGES
 
@<TRIPOS>ATOM
       1    N1      17.403438   20.679281   20.580304 N.4        1 MOL1        -0.5940
       2    H1      16.399499   20.479488   20.645282 H          1 MOL1         0.3649
       3    H2      17.628973   20.749471   19.582776 H          1 MOL1         0.3649
       4    H3      17.549330   21.608253   20.988429 H          1 MOL1         0.3649
       5    C1      18.234530   19.619617   21.274691 C.3        1 MOL1         0.0207
       6    H4      18.008955   18.655776   20.810422 H          1 MOL1         0.0950
       7    H5      17.920492   19.579699   22.320865 H          1 MOL1         0.0950
       8    C2      19.748604   19.891621   21.194378 C.3        1 MOL1        -0.1415
       9    H6      20.042776   19.973641   20.139541 H          1 MOL1         0.0976
      10    H7      19.974982   20.860111   21.659971 H          1 MOL1         0.0976
      11    C3      20.592018   18.782151   21.865765 C.3        1 MOL1        -0.1375
      12    H8      21.655886   18.993342   21.689602 H          1 MOL1         0.0976
      13    H9      20.382428   17.818553   21.380789 H          1 MOL1         0.0976
      14    C4      20.341941   18.665762   23.388715 C.3        1 MOL1        -0.1375
      15    H10     20.520459   19.639440   23.865684 H          1 MOL1         0.0976
      16    H11     19.291781   18.406297   23.578186 H          1 MOL1         0.0976
      17    C5      21.251809   17.600344   24.039713 C.3        1 MOL1        -0.1350
      18    H12     22.306458   17.854557   23.863496 H          1 MOL1         0.0976
      19    H13     21.077759   16.624126   23.565706 H          1 MOL1         0.0976
      20    C6      21.000613   17.484141   25.558252 C.3        1 MOL1        -0.2365
      21    H14     21.199187   18.437387   26.065320 H          1 MOL1         0.0987
      22    H15     21.655792   16.723554   26.002428 H          1 MOL1         0.0987
      23    H16     19.961688   17.196414   25.765782 H          1 MOL1         0.0987
@<TRIPOS>BOND
    1     1     2    1
    2     1     3    1
    3     1     4    1
    4     1     5    1
    5     5     6    1
    6     5     7    1
    7     5     8    1
    8     8     9    1
    9     8    10    1
   10     8    11    1
   11    11    12    1
   12    11    13    1
   13    11    14    1
   14    14    15    1
   15    14    16    1
   16    14    17    1
   17    17    18    1
   18    17    19    1
   19    17    20    1
   20    20    21    1
   21    20    22    1
   22    20    23    1
@<TRIPOS>SUBSTRUCTURE
       1 MOL1            1 RESIDUE      1      MOL     
@<SCITEGIC>MOL_PROPERTY
VConf Rank
SciTegic.value.IntegerValue
852

@<SCITEGIC>MOL_PROPERTY
Conf_Id
SciTegic.value.IntegerValue
42

@<SCITEGIC>MOL_PROPERTY
Delta U+W
SciTegic.value.DoubleValue
0.365

@<SCITEGIC>MOL_PROPERTY
U+W
SciTegic.value.DoubleValue
-8.017

@<SCITEGIC>MOL_PROPERTY
Grad RMS
SciTegic.value.DoubleValue
0.000000

@<SCITEGIC>MOL_PROPERTY
U
SciTegic.value.DoubleValue
47.375

@<SCITEGIC>MOL_PROPERTY
W
SciTegic.value.DoubleValue
-55.392

@<SCITEGIC>MOL_PROPERTY
W(PB)
SciTegic.value.DoubleValue
-57.543

@<SCITEGIC>MOL_PROPERTY
W(SA)
SciTegic.value.DoubleValue
2.152

@<SCITEGIC>MOL_PROPERTY
Valence
SciTegic.value.DoubleValue
2.032

@<SCITEGIC>MOL_PROPERTY
Coulomb
SciTegic.value.DoubleValue
44.843

@<SCITEGIC>MOL_PROPERTY
VdW
SciTegic.value.DoubleValue
0.499

@<SCITEGIC>MOL_PROPERTY
VdW6
SciTegic.value.DoubleValue
-5.218

@<SCITEGIC>MOL_PROPERTY
VdW12
SciTegic.value.DoubleValue
5.717

@<SCITEGIC>MOL_PROPERTY
Bond
SciTegic.value.DoubleValue
0.135

@<SCITEGIC>MOL_PROPERTY
Angle
SciTegic.value.DoubleValue
0.514

@<SCITEGIC>MOL_PROPERTY
Pdih
SciTegic.value.DoubleValue
1.383

@<SCITEGIC>MOL_PROPERTY
Idih
SciTegic.value.DoubleValue
0.000

@<SCITEGIC>MOL_PROPERTY
Tether
SciTegic.value.DoubleValue
0.000

@<TRIPOS>MOLECULE
guest-2_confgen4.mol2 : confsearch ligand conformer 853
          23          22           1
SMALL
USER_CHARGES
 
@<TRIPOS>ATOM
       1    N1      17.319075   17.667287   21.067217 N.4        1 MOL1        -0.5940
       2    H1      17.861679   16.840374   20.798091 H          1 MOL1         0.3649
       3    H2      16.488698   17.688564   20.465578 H          1 MOL1         0.3649
       4    H3      16.990168   17.515024   22.025360 H          1 MOL1         0.3649
       5    C1      18.134115   18.940346   20.946328 C.3        1 MOL1         0.0207
       6    H4      17.493581   19.782049   21.223229 H          1 MOL1         0.0950
       7    H5      18.411912   19.055626   19.895086 H          1 MOL1         0.0950
       8    C2      19.407980   18.950097   21.813740 C.3        1 MOL1        -0.1415
       9    H6      20.036608   18.088411   21.553023 H          1 MOL1         0.0976
      10    H7      19.978998   19.851637   21.560201 H          1 MOL1         0.0976
      11    C3      19.099186   18.946286   23.330789 C.3        1 MOL1        -0.1375
      12    H8      18.440435   18.100465   23.567360 H          1 MOL1         0.0976
      13    H9      18.536124   19.853670   23.589675 H          1 MOL1         0.0976
      14    C4      20.352546   18.842104   24.238143 C.3        1 MOL1        -0.1375
      15    H10     20.003705   18.804031   25.279463 H          1 MOL1         0.0976
      16    H11     20.866212   17.886530   24.064218 H          1 MOL1         0.0976
      17    C5      21.352473   20.020090   24.108006 C.3        1 MOL1        -0.1350
      18    H12     21.780065   20.227379   25.099050 H          1 MOL1         0.0976
      19    H13     20.826214   20.937278   23.808980 H          1 MOL1         0.0976
      20    C6      22.520847   19.728920   23.137242 C.3        1 MOL1        -0.2365
      21    H14     23.098915   18.857355   23.470813 H          1 MOL1         0.0987
      22    H15     23.206132   20.585300   23.093521 H          1 MOL1         0.0987
      23    H16     22.171588   19.530999   22.117946 H          1 MOL1         0.0987
@<TRIPOS>BOND
    1     1     2    1
    2     1     3    1
    3     1     4    1
    4     1     5    1
    5     5     6    1
    6     5     7    1
    7     5     8    1
    8     8     9    1
    9     8    10    1
   10     8    11    1
   11    11    12    1
   12    11    13    1
   13    11    14    1
   14    14    15    1
   15    14    16    1
   16    14    17    1
   17    17    18    1
   18    17    19    1
   19    17    20    1
   20    20    21    1
   21    20    22    1
   22    20    23    1
@<TRIPOS>SUBSTRUCTURE
       1 MOL1            1 RESIDUE      1      MOL     
@<SCITEGIC>MOL_PROPERTY
VConf Rank
SciTegic.value.IntegerValue
853

@<SCITEGIC>MOL_PROPERTY
Conf_Id
SciTegic.value.IntegerValue
3

@<SCITEGIC>MOL_PROPERTY
Delta U+W
SciTegic.value.DoubleValue
3.283

@<SCITEGIC>MOL_PROPERTY
U+W
SciTegic.value.DoubleValue
-5.099

@<SCITEGIC>MOL_PROPERTY
Grad RMS
SciTegic.value.DoubleValue
0.000000

@<SCITEGIC>MOL_PROPERTY
U
SciTegic.value.DoubleValue
50.701

@<SCITEGIC>MOL_PROPERTY
W
SciTegic.value.DoubleValue
-55.800

@<SCITEGIC>MOL_PROPERTY
W(PB)
SciTegic.value.DoubleValue
-57.867

@<SCITEGIC>MOL_PROPERTY
W(SA)
SciTegic.value.DoubleValue
2.067

@<SCITEGIC>MOL_PROPERTY
Valence
SciTegic.value.DoubleValue
4.880

@<SCITEGIC>MOL_PROPERTY
Coulomb
SciTegic.value.DoubleValue
45.095

@<SCITEGIC>MOL_PROPERTY
VdW
SciTegic.value.DoubleValue
0.726

@<SCITEGIC>MOL_PROPERTY
VdW6
SciTegic.value.DoubleValue
-6.620

@<SCITEGIC>MOL_PROPERTY
VdW12
SciTegic.value.DoubleValue
7.346

@<SCITEGIC>MOL_PROPERTY
Bond
SciTegic.value.DoubleValue
0.222

@<SCITEGIC>MOL_PROPERTY
Angle
SciTegic.value.DoubleValue
1.260

@<SCITEGIC>MOL_PROPERTY
Pdih
SciTegic.value.DoubleValue
3.398

@<SCITEGIC>MOL_PROPERTY
Idih
SciTegic.value.DoubleValue
0.000

@<SCITEGIC>MOL_PROPERTY
Tether
SciTegic.value.DoubleValue
0.000

@<TRIPOS>MOLECULE
guest-2_confgen4.mol2 : confsearch ligand conformer 854
          23          22           1
SMALL
USER_CHARGES
 
@<TRIPOS>ATOM
       1    N1      22.683637   18.760682   22.401522 N.4        1 MOL1        -0.5940
       2    H1      23.029873   17.887120   22.810868 H          1 MOL1         0.3649
       3    H2      23.494923   19.248522   22.006983 H          1 MOL1         0.3649
       4    H3      22.074195   18.507798   21.617795 H          1 MOL1         0.3649
       5    C1      21.956435   19.612041   23.423608 C.3        1 MOL1         0.0207
       6    H4      21.642085   20.536642   22.932907 H          1 MOL1         0.0950
       7    H5      22.671422   19.872271   24.208846 H          1 MOL1         0.0950
       8    C2      20.734910   18.913882   24.055847 C.3        1 MOL1        -0.1415
       9    H6      21.072693   18.015015   24.588524 H          1 MOL1         0.0976
      10    H7      20.305499   19.577324   24.818284 H          1 MOL1         0.0976
      11    C3      19.631620   18.521760   23.040644 C.3        1 MOL1        -0.1375
      12    H8      18.836249   17.999700   23.588104 H          1 MOL1         0.0976
      13    H9      20.029548   17.798532   22.316530 H          1 MOL1         0.0976
      14    C4      19.031854   19.738730   22.291181 C.3        1 MOL1        -0.1375
      15    H10     18.609427   20.448353   23.015860 H          1 MOL1         0.0976
      16    H11     19.830610   20.275649   21.762919 H          1 MOL1         0.0976
      17    C5      17.947740   19.351600   21.256157 C.3        1 MOL1        -0.1350
      18    H12     18.367790   18.650020   20.521944 H          1 MOL1         0.0976
      19    H13     17.662494   20.251028   20.692662 H          1 MOL1         0.0976
      20    C6      16.677854   18.741093   21.891781 C.3        1 MOL1        -0.2365
      21    H14     16.257160   19.409644   22.654056 H          1 MOL1         0.0987
      22    H15     16.886812   17.771927   22.361142 H          1 MOL1         0.0987
      23    H16     15.907128   18.577033   21.127583 H          1 MOL1         0.0987
@<TRIPOS>BOND
    1     1     2    1
    2     1     3    1
    3     1     4    1
    4     1     5    1
    5     5     6    1
    6     5     7    1
    7     5     8    1
    8     8     9    1
    9     8    10    1
   10     8    11    1
   11    11    12    1
   12    11    13    1
   13    11    14    1
   14    14    15    1
   15    14    16    1
   16    14    17    1
   17    17    18    1
   18    17    19    1
   19    17    20    1
   20    20    21    1
   21    20    22    1
   22    20    23    1
@<TRIPOS>SUBSTRUCTURE
       1 MOL1            1 RESIDUE      1      MOL     
@<SCITEGIC>MOL_PROPERTY
VConf Rank
SciTegic.value.IntegerValue
854

@<SCITEGIC>MOL_PROPERTY
Conf_Id
SciTegic.value.IntegerValue
83

@<SCITEGIC>MOL_PROPERTY
Delta U+W
SciTegic.value.DoubleValue
1.229

@<SCITEGIC>MOL_PROPERTY
U+W
SciTegic.value.DoubleValue
-7.154

@<SCITEGIC>MOL_PROPERTY
Grad RMS
SciTegic.value.DoubleValue
0.000000

@<SCITEGIC>MOL_PROPERTY
U
SciTegic.value.DoubleValue
48.727

@<SCITEGIC>MOL_PROPERTY
W
SciTegic.value.DoubleValue
-55.880

@<SCITEGIC>MOL_PROPERTY
W(PB)
SciTegic.value.DoubleValue
-57.960

@<SCITEGIC>MOL_PROPERTY
W(SA)
SciTegic.value.DoubleValue
2.080

@<SCITEGIC>MOL_PROPERTY
Valence
SciTegic.value.DoubleValue
2.671

@<SCITEGIC>MOL_PROPERTY
Coulomb
SciTegic.value.DoubleValue
45.371

@<SCITEGIC>MOL_PROPERTY
VdW
SciTegic.value.DoubleValue
0.684

@<SCITEGIC>MOL_PROPERTY
VdW6
SciTegic.value.DoubleValue
-6.511

@<SCITEGIC>MOL_PROPERTY
VdW12
SciTegic.value.DoubleValue
7.195

@<SCITEGIC>MOL_PROPERTY
Bond
SciTegic.value.DoubleValue
0.203

@<SCITEGIC>MOL_PROPERTY
Angle
SciTegic.value.DoubleValue
0.915

@<SCITEGIC>MOL_PROPERTY
Pdih
SciTegic.value.DoubleValue
1.554

@<SCITEGIC>MOL_PROPERTY
Idih
SciTegic.value.DoubleValue
0.000

@<SCITEGIC>MOL_PROPERTY
Tether
SciTegic.value.DoubleValue
0.000

@<TRIPOS>MOLECULE
guest-2_confgen4.mol2 : confsearch ligand conformer 855
          23          22           1
SMALL
USER_CHARGES
 
@<TRIPOS>ATOM
       1    N1      20.882195   16.811191   24.051499 N.4        1 MOL1        -0.5940
       2    H1      21.794566   16.514940   23.690433 H          1 MOL1         0.3649
       3    H2      20.195334   16.651009   23.308422 H          1 MOL1         0.3649
       4    H3      20.645292   16.177562   24.822360 H          1 MOL1         0.3649
       5    C1      20.896521   18.260130   24.497219 C.3        1 MOL1         0.0207
       6    H4      21.622151   18.350880   25.310085 H          1 MOL1         0.0950
       7    H5      19.908656   18.501626   24.897586 H          1 MOL1         0.0950
       8    C2      21.261998   19.251152   23.373129 C.3        1 MOL1        -0.1415
       9    H6      21.301770   20.263975   23.795584 H          1 MOL1         0.0976
      10    H7      22.276509   19.029092   23.016392 H          1 MOL1         0.0976
      11    C3      20.283510   19.237481   22.171454 C.3        1 MOL1        -0.1375
      12    H8      20.292185   18.249052   21.693247 H          1 MOL1         0.0976
      13    H9      20.658853   19.943761   21.419682 H          1 MOL1         0.0976
      14    C4      18.832741   19.618798   22.561705 C.3        1 MOL1        -0.1375
      15    H10     18.465018   18.927581   23.331349 H          1 MOL1         0.0976
      16    H11     18.822148   20.619686   23.014785 H          1 MOL1         0.0976
      17    C5      17.844377   19.581084   21.370840 C.3        1 MOL1        -0.1350
      18    H12     16.827315   19.747444   21.752640 H          1 MOL1         0.0976
      19    H13     17.842704   18.578778   20.920165 H          1 MOL1         0.0976
      20    C6      18.145782   20.639236   20.285109 C.3        1 MOL1        -0.2365
      21    H14     18.185751   21.647759   20.716725 H          1 MOL1         0.0987
      22    H15     17.362103   20.634375   19.516501 H          1 MOL1         0.0987
      23    H16     19.100459   20.441723   19.782294 H          1 MOL1         0.0987
@<TRIPOS>BOND
    1     1     2    1
    2     1     3    1
    3     1     4    1
    4     1     5    1
    5     5     6    1
    6     5     7    1
    7     5     8    1
    8     8     9    1
    9     8    10    1
   10     8    11    1
   11    11    12    1
   12    11    13    1
   13    11    14    1
   14    14    15    1
   15    14    16    1
   16    14    17    1
   17    17    18    1
   18    17    19    1
   19    17    20    1
   20    20    21    1
   21    20    22    1
   22    20    23    1
@<TRIPOS>SUBSTRUCTURE
       1 MOL1            1 RESIDUE      1      MOL     
@<SCITEGIC>MOL_PROPERTY
VConf Rank
SciTegic.value.IntegerValue
855

@<SCITEGIC>MOL_PROPERTY
Conf_Id
SciTegic.value.IntegerValue
50

@<SCITEGIC>MOL_PROPERTY
Delta U+W
SciTegic.value.DoubleValue
1.252

@<SCITEGIC>MOL_PROPERTY
U+W
SciTegic.value.DoubleValue
-7.130

@<SCITEGIC>MOL_PROPERTY
Grad RMS
SciTegic.value.DoubleValue
0.000000

@<SCITEGIC>MOL_PROPERTY
U
SciTegic.value.DoubleValue
48.727

@<SCITEGIC>MOL_PROPERTY
W
SciTegic.value.DoubleValue
-55.857

@<SCITEGIC>MOL_PROPERTY
W(PB)
SciTegic.value.DoubleValue
-57.937

@<SCITEGIC>MOL_PROPERTY
W(SA)
SciTegic.value.DoubleValue
2.080

@<SCITEGIC>MOL_PROPERTY
Valence
SciTegic.value.DoubleValue
2.671

@<SCITEGIC>MOL_PROPERTY
Coulomb
SciTegic.value.DoubleValue
45.371

@<SCITEGIC>MOL_PROPERTY
VdW
SciTegic.value.DoubleValue
0.684

@<SCITEGIC>MOL_PROPERTY
VdW6
SciTegic.value.DoubleValue
-6.511

@<SCITEGIC>MOL_PROPERTY
VdW12
SciTegic.value.DoubleValue
7.196

@<SCITEGIC>MOL_PROPERTY
Bond
SciTegic.value.DoubleValue
0.203

@<SCITEGIC>MOL_PROPERTY
Angle
SciTegic.value.DoubleValue
0.915

@<SCITEGIC>MOL_PROPERTY
Pdih
SciTegic.value.DoubleValue
1.554

@<SCITEGIC>MOL_PROPERTY
Idih
SciTegic.value.DoubleValue
0.000

@<SCITEGIC>MOL_PROPERTY
Tether
SciTegic.value.DoubleValue
0.000

@<TRIPOS>MOLECULE
guest-2_confgen4.mol2 : confsearch ligand conformer 856
          23          22           1
SMALL
USER_CHARGES
 
@<TRIPOS>ATOM
       1    N1      16.828112   18.644437   23.709475 N.4        1 MOL1        -0.5940
       2    H1      17.043362   17.729789   23.301284 H          1 MOL1         0.3649
       3    H2      15.828566   18.813969   23.554251 H          1 MOL1         0.3649
       4    H3      16.963678   18.563984   24.722280 H          1 MOL1         0.3649
       5    C1      17.684803   19.743380   23.111441 C.3        1 MOL1         0.0207
       6    H4      17.372369   20.689300   23.562212 H          1 MOL1         0.0950
       7    H5      17.475316   19.791584   22.039432 H          1 MOL1         0.0950
       8    C2      19.196569   19.545787   23.335674 C.3        1 MOL1        -0.1415
       9    H6      19.716866   20.437335   22.968118 H          1 MOL1         0.0976
      10    H7      19.401120   19.492821   24.413227 H          1 MOL1         0.0976
      11    C3      19.743679   18.277108   22.632964 C.3        1 MOL1        -0.1375
      12    H8      19.460822   18.275837   21.571198 H          1 MOL1         0.0976
      13    H9      19.261165   17.396602   23.077797 H          1 MOL1         0.0976
      14    C4      21.279307   18.109563   22.773964 C.3        1 MOL1        -0.1375
      15    H10     21.628546   18.564658   23.711041 H          1 MOL1         0.0976
      16    H11     21.499544   17.036982   22.866468 H          1 MOL1         0.0976
      17    C5      22.103065   18.652292   21.578106 C.3        1 MOL1        -0.1350
      18    H12     21.817243   18.117938   20.661294 H          1 MOL1         0.0976
      19    H13     23.162722   18.416382   21.749241 H          1 MOL1         0.0976
      20    C6      21.965750   20.173235   21.348083 C.3        1 MOL1        -0.2365
      21    H14     22.188431   20.734402   22.264783 H          1 MOL1         0.0987
      22    H15     20.954841   20.436128   21.013086 H          1 MOL1         0.0987
      23    H16     22.665362   20.508137   20.571377 H          1 MOL1         0.0987
@<TRIPOS>BOND
    1     1     2    1
    2     1     3    1
    3     1     4    1
    4     1     5    1
    5     5     6    1
    6     5     7    1
    7     5     8    1
    8     8     9    1
    9     8    10    1
   10     8    11    1
   11    11    12    1
   12    11    13    1
   13    11    14    1
   14    14    15    1
   15    14    16    1
   16    14    17    1
   17    17    18    1
   18    17    19    1
   19    17    20    1
   20    20    21    1
   21    20    22    1
   22    20    23    1
@<TRIPOS>SUBSTRUCTURE
       1 MOL1            1 RESIDUE      1      MOL     
@<SCITEGIC>MOL_PROPERTY
VConf Rank
SciTegic.value.IntegerValue
856

@<SCITEGIC>MOL_PROPERTY
Conf_Id
SciTegic.value.IntegerValue
55

@<SCITEGIC>MOL_PROPERTY
Delta U+W
SciTegic.value.DoubleValue
3.232

@<SCITEGIC>MOL_PROPERTY
U+W
SciTegic.value.DoubleValue
-5.150

@<SCITEGIC>MOL_PROPERTY
Grad RMS
SciTegic.value.DoubleValue
0.000000

@<SCITEGIC>MOL_PROPERTY
U
SciTegic.value.DoubleValue
50.625

@<SCITEGIC>MOL_PROPERTY
W
SciTegic.value.DoubleValue
-55.776

@<SCITEGIC>MOL_PROPERTY
W(PB)
SciTegic.value.DoubleValue
-57.839

@<SCITEGIC>MOL_PROPERTY
W(SA)
SciTegic.value.DoubleValue
2.064

@<SCITEGIC>MOL_PROPERTY
Valence
SciTegic.value.DoubleValue
4.837

@<SCITEGIC>MOL_PROPERTY
Coulomb
SciTegic.value.DoubleValue
45.097

@<SCITEGIC>MOL_PROPERTY
VdW
SciTegic.value.DoubleValue
0.692

@<SCITEGIC>MOL_PROPERTY
VdW6
SciTegic.value.DoubleValue
-6.655

@<SCITEGIC>MOL_PROPERTY
VdW12
SciTegic.value.DoubleValue
7.347

@<SCITEGIC>MOL_PROPERTY
Bond
SciTegic.value.DoubleValue
0.223

@<SCITEGIC>MOL_PROPERTY
Angle
SciTegic.value.DoubleValue
1.167

@<SCITEGIC>MOL_PROPERTY
Pdih
SciTegic.value.DoubleValue
3.447

@<SCITEGIC>MOL_PROPERTY
Idih
SciTegic.value.DoubleValue
0.000

@<SCITEGIC>MOL_PROPERTY
Tether
SciTegic.value.DoubleValue
0.000

@<TRIPOS>MOLECULE
guest-2_confgen4.mol2 : confsearch ligand conformer 857
          23          22           1
SMALL
USER_CHARGES
 
@<TRIPOS>ATOM
       1    N1      22.465857   19.655078   20.998426 N.4        1 MOL1        -0.5940
       2    H1      22.460876   20.229460   20.149374 H          1 MOL1         0.3649
       3    H2      23.185332   18.935986   20.867046 H          1 MOL1         0.3649
       4    H3      22.781519   20.255796   21.766705 H          1 MOL1         0.3649
       5    C1      21.106315   19.047240   21.277397 C.3        1 MOL1         0.0207
       6    H4      21.196390   18.424112   22.168990 H          1 MOL1         0.0950
       7    H5      20.848117   18.400482   20.434522 H          1 MOL1         0.0950
       8    C2      20.002166   20.104860   21.472543 C.3        1 MOL1        -0.1415
       9    H6      20.269933   20.791243   22.286816 H          1 MOL1         0.0976
      10    H7      19.948322   20.712977   20.559684 H          1 MOL1         0.0976
      11    C3      18.606123   19.485453   21.734961 C.3        1 MOL1        -0.1375
      12    H8      18.477069   18.577876   21.128948 H          1 MOL1         0.0976
      13    H9      17.845770   20.192761   21.375686 H          1 MOL1         0.0976
      14    C4      18.294487   19.181308   23.223534 C.3        1 MOL1        -0.1375
      15    H10     18.324158   20.115112   23.801827 H          1 MOL1         0.0976
      16    H11     17.260048   18.816340   23.288164 H          1 MOL1         0.0976
      17    C5      19.233448   18.142443   23.878985 C.3        1 MOL1        -0.1350
      18    H12     20.246576   18.556042   23.965138 H          1 MOL1         0.0976
      19    H13     19.299310   17.246257   23.246380 H          1 MOL1         0.0976
      20    C6      18.743510   17.740544   25.286507 C.3        1 MOL1        -0.2365
      21    H14     17.745873   17.284452   25.242759 H          1 MOL1         0.0987
      22    H15     18.691666   18.613406   25.950341 H          1 MOL1         0.0987
      23    H16     19.426773   17.011558   25.741217 H          1 MOL1         0.0987
@<TRIPOS>BOND
    1     1     2    1
    2     1     3    1
    3     1     4    1
    4     1     5    1
    5     5     6    1
    6     5     7    1
    7     5     8    1
    8     8     9    1
    9     8    10    1
   10     8    11    1
   11    11    12    1
   12    11    13    1
   13    11    14    1
   14    14    15    1
   15    14    16    1
   16    14    17    1
   17    17    18    1
   18    17    19    1
   19    17    20    1
   20    20    21    1
   21    20    22    1
   22    20    23    1
@<TRIPOS>SUBSTRUCTURE
       1 MOL1            1 RESIDUE      1      MOL     
@<SCITEGIC>MOL_PROPERTY
VConf Rank
SciTegic.value.IntegerValue
857

@<SCITEGIC>MOL_PROPERTY
Conf_Id
SciTegic.value.IntegerValue
93

@<SCITEGIC>MOL_PROPERTY
Delta U+W
SciTegic.value.DoubleValue
2.589

@<SCITEGIC>MOL_PROPERTY
U+W
SciTegic.value.DoubleValue
-5.793

@<SCITEGIC>MOL_PROPERTY
Grad RMS
SciTegic.value.DoubleValue
0.000000

@<SCITEGIC>MOL_PROPERTY
U
SciTegic.value.DoubleValue
50.122

@<SCITEGIC>MOL_PROPERTY
W
SciTegic.value.DoubleValue
-55.915

@<SCITEGIC>MOL_PROPERTY
W(PB)
SciTegic.value.DoubleValue
-58.031

@<SCITEGIC>MOL_PROPERTY
W(SA)
SciTegic.value.DoubleValue
2.115

@<SCITEGIC>MOL_PROPERTY
Valence
SciTegic.value.DoubleValue
4.132

@<SCITEGIC>MOL_PROPERTY
Coulomb
SciTegic.value.DoubleValue
45.536

@<SCITEGIC>MOL_PROPERTY
VdW
SciTegic.value.DoubleValue
0.454

@<SCITEGIC>MOL_PROPERTY
VdW6
SciTegic.value.DoubleValue
-6.262

@<SCITEGIC>MOL_PROPERTY
VdW12
SciTegic.value.DoubleValue
6.715

@<SCITEGIC>MOL_PROPERTY
Bond
SciTegic.value.DoubleValue
0.182

@<SCITEGIC>MOL_PROPERTY
Angle
SciTegic.value.DoubleValue
1.157

@<SCITEGIC>MOL_PROPERTY
Pdih
SciTegic.value.DoubleValue
2.794

@<SCITEGIC>MOL_PROPERTY
Idih
SciTegic.value.DoubleValue
0.000

@<SCITEGIC>MOL_PROPERTY
Tether
SciTegic.value.DoubleValue
0.000

@<TRIPOS>MOLECULE
guest-2_confgen4.mol2 : confsearch ligand conformer 858
          23          22           1
SMALL
USER_CHARGES
 
@<TRIPOS>ATOM
       1    N1      22.641751   19.099663   23.697102 N.4        1 MOL1        -0.5940
       2    H1      22.289939   19.528833   24.558958 H          1 MOL1         0.3649
       3    H2      23.322355   19.753039   23.294761 H          1 MOL1         0.3649
       4    H3      23.161458   18.259099   23.969472 H          1 MOL1         0.3649
       5    C1      21.523215   18.782363   22.725585 C.3        1 MOL1         0.0207
       6    H4      21.971979   18.356826   21.823959 H          1 MOL1         0.0950
       7    H5      21.040873   19.723027   22.453855 H          1 MOL1         0.0950
       8    C2      20.487633   17.796062   23.300535 C.3        1 MOL1        -0.1415
       9    H6      21.012198   16.868703   23.566719 H          1 MOL1         0.0976
      10    H7      20.061506   18.189647   24.232935 H          1 MOL1         0.0976
      11    C3      19.354992   17.451769   22.300509 C.3        1 MOL1        -0.1375
      12    H8      18.980178   16.447369   22.541744 H          1 MOL1         0.0976
      13    H9      19.761100   17.380229   21.281901 H          1 MOL1         0.0976
      14    C4      18.143853   18.420287   22.324757 C.3        1 MOL1        -0.1375
      15    H10     17.384052   18.034311   21.631098 H          1 MOL1         0.0976
      16    H11     17.681956   18.403744   23.321587 H          1 MOL1         0.0976
      17    C5      18.478288   19.879676   21.938961 C.3        1 MOL1        -0.1350
      18    H12     19.042956   19.897299   20.996350 H          1 MOL1         0.0976
      19    H13     19.115205   20.333458   22.709244 H          1 MOL1         0.0976
      20    C6      17.202326   20.735017   21.787326 C.3        1 MOL1        -0.2365
      21    H14     17.458258   21.769603   21.524346 H          1 MOL1         0.0987
      22    H15     16.628770   20.757270   22.723162 H          1 MOL1         0.0987
      23    H16     16.551855   20.338304   20.996934 H          1 MOL1         0.0987
@<TRIPOS>BOND
    1     1     2    1
    2     1     3    1
    3     1     4    1
    4     1     5    1
    5     5     6    1
    6     5     7    1
    7     5     8    1
    8     8     9    1
    9     8    10    1
   10     8    11    1
   11    11    12    1
   12    11    13    1
   13    11    14    1
   14    14    15    1
   15    14    16    1
   16    14    17    1
   17    17    18    1
   18    17    19    1
   19    17    20    1
   20    20    21    1
   21    20    22    1
   22    20    23    1
@<TRIPOS>SUBSTRUCTURE
       1 MOL1            1 RESIDUE      1      MOL     
@<SCITEGIC>MOL_PROPERTY
VConf Rank
SciTegic.value.IntegerValue
858

@<SCITEGIC>MOL_PROPERTY
Conf_Id
SciTegic.value.IntegerValue
70

@<SCITEGIC>MOL_PROPERTY
Delta U+W
SciTegic.value.DoubleValue
2.599

@<SCITEGIC>MOL_PROPERTY
U+W
SciTegic.value.DoubleValue
-5.783

@<SCITEGIC>MOL_PROPERTY
Grad RMS
SciTegic.value.DoubleValue
0.000000

@<SCITEGIC>MOL_PROPERTY
U
SciTegic.value.DoubleValue
50.122

@<SCITEGIC>MOL_PROPERTY
W
SciTegic.value.DoubleValue
-55.906

@<SCITEGIC>MOL_PROPERTY
W(PB)
SciTegic.value.DoubleValue
-58.010

@<SCITEGIC>MOL_PROPERTY
W(SA)
SciTegic.value.DoubleValue
2.105

@<SCITEGIC>MOL_PROPERTY
Valence
SciTegic.value.DoubleValue
4.132

@<SCITEGIC>MOL_PROPERTY
Coulomb
SciTegic.value.DoubleValue
45.536

@<SCITEGIC>MOL_PROPERTY
VdW
SciTegic.value.DoubleValue
0.454

@<SCITEGIC>MOL_PROPERTY
VdW6
SciTegic.value.DoubleValue
-6.262

@<SCITEGIC>MOL_PROPERTY
VdW12
SciTegic.value.DoubleValue
6.715

@<SCITEGIC>MOL_PROPERTY
Bond
SciTegic.value.DoubleValue
0.182

@<SCITEGIC>MOL_PROPERTY
Angle
SciTegic.value.DoubleValue
1.157

@<SCITEGIC>MOL_PROPERTY
Pdih
SciTegic.value.DoubleValue
2.794

@<SCITEGIC>MOL_PROPERTY
Idih
SciTegic.value.DoubleValue
0.000

@<SCITEGIC>MOL_PROPERTY
Tether
SciTegic.value.DoubleValue
0.000

@<TRIPOS>MOLECULE
guest-2_confgen4.mol2 : confsearch ligand conformer 859
          23          22           1
SMALL
USER_CHARGES
 
@<TRIPOS>ATOM
       1    N1      18.342607   21.372297   22.113891 N.4        1 MOL1        -0.5940
       2    H1      18.583555   22.072599   21.405353 H          1 MOL1         0.3649
       3    H2      17.632059   21.793630   22.721645 H          1 MOL1         0.3649
       4    H3      17.896490   20.589426   21.626490 H          1 MOL1         0.3649
       5    C1      19.560011   20.922672   22.897473 C.3        1 MOL1         0.0207
       6    H4      19.231115   20.205792   23.654345 H          1 MOL1         0.0950
       7    H5      19.966568   21.797452   23.412223 H          1 MOL1         0.0950
       8    C2      20.658510   20.287140   22.021583 C.3        1 MOL1        -0.1415
       9    H6      21.005396   21.026893   21.287995 H          1 MOL1         0.0976
      10    H7      21.527945   20.061534   22.652137 H          1 MOL1         0.0976
      11    C3      20.206578   19.003600   21.276406 C.3        1 MOL1        -0.1375
      12    H8      21.060597   18.601650   20.714009 H          1 MOL1         0.0976
      13    H9      19.453686   19.269037   20.522132 H          1 MOL1         0.0976
      14    C4      19.630776   17.888302   22.187100 C.3        1 MOL1        -0.1375
      15    H10     18.719355   18.242608   22.686769 H          1 MOL1         0.0976
      16    H11     19.319606   17.048215   21.550889 H          1 MOL1         0.0976
      17    C5      20.636376   17.372315   23.243233 C.3        1 MOL1        -0.1350
      18    H12     20.907250   18.180825   23.935242 H          1 MOL1         0.0976
      19    H13     21.563685   17.052779   22.747544 H          1 MOL1         0.0976
      20    C6      20.056338   16.193393   24.053223 C.3        1 MOL1        -0.2365
      21    H14     20.781092   15.841662   24.798898 H          1 MOL1         0.0987
      22    H15     19.809783   15.347425   23.398440 H          1 MOL1         0.0987
      23    H16     19.143436   16.491508   24.585144 H          1 MOL1         0.0987
@<TRIPOS>BOND
    1     1     2    1
    2     1     3    1
    3     1     4    1
    4     1     5    1
    5     5     6    1
    6     5     7    1
    7     5     8    1
    8     8     9    1
    9     8    10    1
   10     8    11    1
   11    11    12    1
   12    11    13    1
   13    11    14    1
   14    14    15    1
   15    14    16    1
   16    14    17    1
   17    17    18    1
   18    17    19    1
   19    17    20    1
   20    20    21    1
   21    20    22    1
   22    20    23    1
@<TRIPOS>SUBSTRUCTURE
       1 MOL1            1 RESIDUE      1      MOL     
@<SCITEGIC>MOL_PROPERTY
VConf Rank
SciTegic.value.IntegerValue
859

@<SCITEGIC>MOL_PROPERTY
Conf_Id
SciTegic.value.IntegerValue
72

@<SCITEGIC>MOL_PROPERTY
Delta U+W
SciTegic.value.DoubleValue
1.051

@<SCITEGIC>MOL_PROPERTY
U+W
SciTegic.value.DoubleValue
-7.331

@<SCITEGIC>MOL_PROPERTY
Grad RMS
SciTegic.value.DoubleValue
0.000000

@<SCITEGIC>MOL_PROPERTY
U
SciTegic.value.DoubleValue
48.590

@<SCITEGIC>MOL_PROPERTY
W
SciTegic.value.DoubleValue
-55.922

@<SCITEGIC>MOL_PROPERTY
W(PB)
SciTegic.value.DoubleValue
-58.012

@<SCITEGIC>MOL_PROPERTY
W(SA)
SciTegic.value.DoubleValue
2.090

@<SCITEGIC>MOL_PROPERTY
Valence
SciTegic.value.DoubleValue
2.601

@<SCITEGIC>MOL_PROPERTY
Coulomb
SciTegic.value.DoubleValue
45.520

@<SCITEGIC>MOL_PROPERTY
VdW
SciTegic.value.DoubleValue
0.469

@<SCITEGIC>MOL_PROPERTY
VdW6
SciTegic.value.DoubleValue
-6.867

@<SCITEGIC>MOL_PROPERTY
VdW12
SciTegic.value.DoubleValue
7.336

@<SCITEGIC>MOL_PROPERTY
Bond
SciTegic.value.DoubleValue
0.205

@<SCITEGIC>MOL_PROPERTY
Angle
SciTegic.value.DoubleValue
0.962

@<SCITEGIC>MOL_PROPERTY
Pdih
SciTegic.value.DoubleValue
1.434

@<SCITEGIC>MOL_PROPERTY
Idih
SciTegic.value.DoubleValue
0.000

@<SCITEGIC>MOL_PROPERTY
Tether
SciTegic.value.DoubleValue
0.000

@<TRIPOS>MOLECULE
guest-2_confgen4.mol2 : confsearch ligand conformer 860
          23          22           1
SMALL
USER_CHARGES
 
@<TRIPOS>ATOM
       1    N1      17.184207   17.183419   22.375769 N.4        1 MOL1        -0.5940
       2    H1      16.213584   17.387803   22.636678 H          1 MOL1         0.3649
       3    H2      17.333028   16.183125   22.543245 H          1 MOL1         0.3649
       4    H3      17.259260   17.334391   21.364712 H          1 MOL1         0.3649
       5    C1      18.166974   18.038117   23.149913 C.3        1 MOL1         0.0207
       6    H4      18.012942   17.849170   24.215710 H          1 MOL1         0.0950
       7    H5      17.931699   19.086479   22.948630 H          1 MOL1         0.0950
       8    C2      19.635138   17.755271   22.780710 C.3        1 MOL1        -0.1415
       9    H6      19.850040   16.692041   22.951260 H          1 MOL1         0.0976
      10    H7      19.787904   17.932134   21.708417 H          1 MOL1         0.0976
      11    C3      20.633222   18.605523   23.605309 C.3        1 MOL1        -0.1375
      12    H8      21.657910   18.341538   23.311581 H          1 MOL1         0.0976
      13    H9      20.547638   18.325059   24.664236 H          1 MOL1         0.0976
      14    C4      20.437546   20.140926   23.482801 C.3        1 MOL1        -0.1375
      15    H10     19.475194   20.422994   23.930706 H          1 MOL1         0.0976
      16    H11     21.203521   20.641437   24.091029 H          1 MOL1         0.0976
      17    C5      20.501683   20.700714   22.038937 C.3        1 MOL1        -0.1350
      18    H12     20.338105   21.786757   22.076931 H          1 MOL1         0.0976
      19    H13     19.678220   20.293873   21.436852 H          1 MOL1         0.0976
      20    C6      21.849200   20.425219   21.334083 C.3        1 MOL1        -0.2365
      21    H14     22.689545   20.812517   21.924641 H          1 MOL1         0.0987
      22    H15     21.876129   20.913371   20.351319 H          1 MOL1         0.0987
      23    H16     22.007474   19.351466   21.174202 H          1 MOL1         0.0987
@<TRIPOS>BOND
    1     1     2    1
    2     1     3    1
    3     1     4    1
    4     1     5    1
    5     5     6    1
    6     5     7    1
    7     5     8    1
    8     8     9    1
    9     8    10    1
   10     8    11    1
   11    11    12    1
   12    11    13    1
   13    11    14    1
   14    14    15    1
   15    14    16    1
   16    14    17    1
   17    17    18    1
   18    17    19    1
   19    17    20    1
   20    20    21    1
   21    20    22    1
   22    20    23    1
@<TRIPOS>SUBSTRUCTURE
       1 MOL1            1 RESIDUE      1      MOL     
@<SCITEGIC>MOL_PROPERTY
VConf Rank
SciTegic.value.IntegerValue
860

@<SCITEGIC>MOL_PROPERTY
Conf_Id
SciTegic.value.IntegerValue
26

@<SCITEGIC>MOL_PROPERTY
Delta U+W
SciTegic.value.DoubleValue
1.076

@<SCITEGIC>MOL_PROPERTY
U+W
SciTegic.value.DoubleValue
-7.306

@<SCITEGIC>MOL_PROPERTY
Grad RMS
SciTegic.value.DoubleValue
0.000000

@<SCITEGIC>MOL_PROPERTY
U
SciTegic.value.DoubleValue
48.641

@<SCITEGIC>MOL_PROPERTY
W
SciTegic.value.DoubleValue
-55.947

@<SCITEGIC>MOL_PROPERTY
W(PB)
SciTegic.value.DoubleValue
-58.031

@<SCITEGIC>MOL_PROPERTY
W(SA)
SciTegic.value.DoubleValue
2.084

@<SCITEGIC>MOL_PROPERTY
Valence
SciTegic.value.DoubleValue
2.922

@<SCITEGIC>MOL_PROPERTY
Coulomb
SciTegic.value.DoubleValue
45.269

@<SCITEGIC>MOL_PROPERTY
VdW
SciTegic.value.DoubleValue
0.449

@<SCITEGIC>MOL_PROPERTY
VdW6
SciTegic.value.DoubleValue
-7.045

@<SCITEGIC>MOL_PROPERTY
VdW12
SciTegic.value.DoubleValue
7.494

@<SCITEGIC>MOL_PROPERTY
Bond
SciTegic.value.DoubleValue
0.220

@<SCITEGIC>MOL_PROPERTY
Angle
SciTegic.value.DoubleValue
1.205

@<SCITEGIC>MOL_PROPERTY
Pdih
SciTegic.value.DoubleValue
1.497

@<SCITEGIC>MOL_PROPERTY
Idih
SciTegic.value.DoubleValue
0.000

@<SCITEGIC>MOL_PROPERTY
Tether
SciTegic.value.DoubleValue
0.000

@<TRIPOS>MOLECULE
guest-2_confgen4.mol2 : confsearch ligand conformer 861
          23          22           1
SMALL
USER_CHARGES
 
@<TRIPOS>ATOM
       1    N1      16.908891   17.948772   22.082455 N.4        1 MOL1        -0.5940
       2    H1      16.535813   18.159670   21.151263 H          1 MOL1         0.3649
       3    H2      16.105767   17.882218   22.716901 H          1 MOL1         0.3649
       4    H3      17.329222   17.015125   22.034620 H          1 MOL1         0.3649
       5    C1      17.904246   18.994442   22.542321 C.3        1 MOL1         0.0207
       6    H4      18.235500   18.723508   23.548203 H          1 MOL1         0.0950
       7    H5      17.384391   19.954651   22.597978 H          1 MOL1         0.0950
       8    C2      19.123692   19.119026   21.609986 C.3        1 MOL1        -0.1415
       9    H6      19.638841   18.152292   21.543064 H          1 MOL1         0.0976
      10    H7      18.777296   19.354443   20.594940 H          1 MOL1         0.0976
      11    C3      20.115643   20.217329   22.066962 C.3        1 MOL1        -0.1375
      12    H8      19.614443   21.193522   22.010775 H          1 MOL1         0.0976
      13    H9      20.947062   20.270403   21.351506 H          1 MOL1         0.0976
      14    C4      20.677392   20.031499   23.502463 C.3        1 MOL1        -0.1375
      15    H10     21.377126   20.851775   23.713855 H          1 MOL1         0.0976
      16    H11     19.862809   20.144348   24.230489 H          1 MOL1         0.0976
      17    C5      21.396331   18.682738   23.759741 C.3        1 MOL1        -0.1350
      18    H12     20.688437   17.849353   23.657387 H          1 MOL1         0.0976
      19    H13     21.736837   18.661209   24.804386 H          1 MOL1         0.0976
      20    C6      22.612933   18.450616   22.835340 C.3        1 MOL1        -0.2365
      21    H14     22.308272   18.354905   21.785778 H          1 MOL1         0.0987
      22    H15     23.136493   17.526768   23.113245 H          1 MOL1         0.0987
      23    H16     23.329542   19.278653   22.911278 H          1 MOL1         0.0987
@<TRIPOS>BOND
    1     1     2    1
    2     1     3    1
    3     1     4    1
    4     1     5    1
    5     5     6    1
    6     5     7    1
    7     5     8    1
    8     8     9    1
    9     8    10    1
   10     8    11    1
   11    11    12    1
   12    11    13    1
   13    11    14    1
   14    14    15    1
   15    14    16    1
   16    14    17    1
   17    17    18    1
   18    17    19    1
   19    17    20    1
   20    20    21    1
   21    20    22    1
   22    20    23    1
@<TRIPOS>SUBSTRUCTURE
       1 MOL1            1 RESIDUE      1      MOL     
@<SCITEGIC>MOL_PROPERTY
VConf Rank
SciTegic.value.IntegerValue
861

@<SCITEGIC>MOL_PROPERTY
Conf_Id
SciTegic.value.IntegerValue
90

@<SCITEGIC>MOL_PROPERTY
Delta U+W
SciTegic.value.DoubleValue
1.131

@<SCITEGIC>MOL_PROPERTY
U+W
SciTegic.value.DoubleValue
-7.251

@<SCITEGIC>MOL_PROPERTY
Grad RMS
SciTegic.value.DoubleValue
0.000000

@<SCITEGIC>MOL_PROPERTY
U
SciTegic.value.DoubleValue
48.641

@<SCITEGIC>MOL_PROPERTY
W
SciTegic.value.DoubleValue
-55.892

@<SCITEGIC>MOL_PROPERTY
W(PB)
SciTegic.value.DoubleValue
-57.962

@<SCITEGIC>MOL_PROPERTY
W(SA)
SciTegic.value.DoubleValue
2.070

@<SCITEGIC>MOL_PROPERTY
Valence
SciTegic.value.DoubleValue
2.922

@<SCITEGIC>MOL_PROPERTY
Coulomb
SciTegic.value.DoubleValue
45.269

@<SCITEGIC>MOL_PROPERTY
VdW
SciTegic.value.DoubleValue
0.450

@<SCITEGIC>MOL_PROPERTY
VdW6
SciTegic.value.DoubleValue
-7.045

@<SCITEGIC>MOL_PROPERTY
VdW12
SciTegic.value.DoubleValue
7.495

@<SCITEGIC>MOL_PROPERTY
Bond
SciTegic.value.DoubleValue
0.220

@<SCITEGIC>MOL_PROPERTY
Angle
SciTegic.value.DoubleValue
1.205

@<SCITEGIC>MOL_PROPERTY
Pdih
SciTegic.value.DoubleValue
1.497

@<SCITEGIC>MOL_PROPERTY
Idih
SciTegic.value.DoubleValue
0.000

@<SCITEGIC>MOL_PROPERTY
Tether
SciTegic.value.DoubleValue
0.000

@<TRIPOS>MOLECULE
guest-2_confgen4.mol2 : confsearch ligand conformer 862
          23          22           1
SMALL
USER_CHARGES
 
@<TRIPOS>ATOM
       1    N1      21.971807   17.746176   21.652703 N.4        1 MOL1        -0.5940
       2    H1      22.177546   17.008121   20.970941 H          1 MOL1         0.3649
       3    H2      21.300864   17.358663   22.322995 H          1 MOL1         0.3649
       4    H3      22.840335   17.931062   22.164610 H          1 MOL1         0.3649
       5    C1      21.435257   18.996725   20.984394 C.3        1 MOL1         0.0207
       6    H4      20.531069   18.725245   20.433522 H          1 MOL1         0.0950
       7    H5      22.183126   19.335361   20.262219 H          1 MOL1         0.0950
       8    C2      21.121540   20.140414   21.970521 C.3        1 MOL1        -0.1415
       9    H6      22.046045   20.436643   22.483677 H          1 MOL1         0.0976
      10    H7      20.794650   21.018833   21.398361 H          1 MOL1         0.0976
      11    C3      20.041849   19.785575   23.023581 C.3        1 MOL1        -0.1375
      12    H8      19.900029   20.651464   23.684818 H          1 MOL1         0.0976
      13    H9      20.406451   18.970340   23.661203 H          1 MOL1         0.0976
      14    C4      18.680420   19.401298   22.390876 C.3        1 MOL1        -0.1375
      15    H10     18.374581   20.191640   21.691527 H          1 MOL1         0.0976
      16    H11     18.784404   18.484404   21.795540 H          1 MOL1         0.0976
      17    C5      17.553394   19.204066   23.433136 C.3        1 MOL1        -0.1350
      18    H12     16.605582   19.041128   22.901216 H          1 MOL1         0.0976
      19    H13     17.422518   20.124902   24.018552 H          1 MOL1         0.0976
      20    C6      17.800962   18.012594   24.386152 C.3        1 MOL1        -0.2365
      21    H14     17.961300   17.083586   23.823859 H          1 MOL1         0.0987
      22    H15     16.935375   17.861031   25.043969 H          1 MOL1         0.0987
      23    H16     18.675142   18.183133   25.026572 H          1 MOL1         0.0987
@<TRIPOS>BOND
    1     1     2    1
    2     1     3    1
    3     1     4    1
    4     1     5    1
    5     5     6    1
    6     5     7    1
    7     5     8    1
    8     8     9    1
    9     8    10    1
   10     8    11    1
   11    11    12    1
   12    11    13    1
   13    11    14    1
   14    14    15    1
   15    14    16    1
   16    14    17    1
   17    17    18    1
   18    17    19    1
   19    17    20    1
   20    20    21    1
   21    20    22    1
   22    20    23    1
@<TRIPOS>SUBSTRUCTURE
       1 MOL1            1 RESIDUE      1      MOL     
@<SCITEGIC>MOL_PROPERTY
VConf Rank
SciTegic.value.IntegerValue
862

@<SCITEGIC>MOL_PROPERTY
Conf_Id
SciTegic.value.IntegerValue
85

@<SCITEGIC>MOL_PROPERTY
Delta U+W
SciTegic.value.DoubleValue
1.193

@<SCITEGIC>MOL_PROPERTY
U+W
SciTegic.value.DoubleValue
-7.189

@<SCITEGIC>MOL_PROPERTY
Grad RMS
SciTegic.value.DoubleValue
0.000000

@<SCITEGIC>MOL_PROPERTY
U
SciTegic.value.DoubleValue
48.775

@<SCITEGIC>MOL_PROPERTY
W
SciTegic.value.DoubleValue
-55.965

@<SCITEGIC>MOL_PROPERTY
W(PB)
SciTegic.value.DoubleValue
-58.038

@<SCITEGIC>MOL_PROPERTY
W(SA)
SciTegic.value.DoubleValue
2.073

@<SCITEGIC>MOL_PROPERTY
Valence
SciTegic.value.DoubleValue
2.602

@<SCITEGIC>MOL_PROPERTY
Coulomb
SciTegic.value.DoubleValue
45.581

@<SCITEGIC>MOL_PROPERTY
VdW
SciTegic.value.DoubleValue
0.592

@<SCITEGIC>MOL_PROPERTY
VdW6
SciTegic.value.DoubleValue
-6.616

@<SCITEGIC>MOL_PROPERTY
VdW12
SciTegic.value.DoubleValue
7.208

@<SCITEGIC>MOL_PROPERTY
Bond
SciTegic.value.DoubleValue
0.196

@<SCITEGIC>MOL_PROPERTY
Angle
SciTegic.value.DoubleValue
0.832

@<SCITEGIC>MOL_PROPERTY
Pdih
SciTegic.value.DoubleValue
1.574

@<SCITEGIC>MOL_PROPERTY
Idih
SciTegic.value.DoubleValue
0.000

@<SCITEGIC>MOL_PROPERTY
Tether
SciTegic.value.DoubleValue
0.000

@<TRIPOS>MOLECULE
guest-2_confgen4.mol2 : confsearch ligand conformer 863
          23          22           1
SMALL
USER_CHARGES
 
@<TRIPOS>ATOM
       1    N1      18.791006   20.052372   24.020238 N.4        1 MOL1        -0.5940
       2    H1      18.527490   19.679529   23.102514 H          1 MOL1         0.3649
       3    H2      18.488704   21.032106   24.052452 H          1 MOL1         0.3649
       4    H3      18.243106   19.547519   24.724471 H          1 MOL1         0.3649
       5    C1      20.281305   19.914738   24.264628 C.3        1 MOL1         0.0207
       6    H4      20.481942   20.329789   25.256086 H          1 MOL1         0.0950
       7    H5      20.814608   20.522047   23.528495 H          1 MOL1         0.0950
       8    C2      20.793476   18.460813   24.214596 C.3        1 MOL1        -0.1415
       9    H6      21.736543   18.419777   24.775648 H          1 MOL1         0.0976
      10    H7      20.097475   17.803507   24.752557 H          1 MOL1         0.0976
      11    C3      21.064274   17.902547   22.791529 C.3        1 MOL1        -0.1375
      12    H8      21.473424   16.889446   22.908693 H          1 MOL1         0.0976
      13    H9      21.858801   18.485219   22.305022 H          1 MOL1         0.0976
      14    C4      19.823445   17.814808   21.866378 C.3        1 MOL1        -0.1375
      15    H10     19.914529   16.912818   21.245205 H          1 MOL1         0.0976
      16    H11     18.913945   17.670623   22.464497 H          1 MOL1         0.0976
      17    C5      19.682123   19.031372   20.919225 C.3        1 MOL1        -0.1350
      18    H12     20.530979   19.047235   20.221136 H          1 MOL1         0.0976
      19    H13     19.732201   19.974320   21.476557 H          1 MOL1         0.0976
      20    C6      18.365801   18.978789   20.115262 C.3        1 MOL1        -0.2365
      21    H14     18.313377   18.067593   19.505063 H          1 MOL1         0.0987
      22    H15     18.290108   19.840347   19.439119 H          1 MOL1         0.0987
      23    H16     17.492144   18.994523   20.779522 H          1 MOL1         0.0987
@<TRIPOS>BOND
    1     1     2    1
    2     1     3    1
    3     1     4    1
    4     1     5    1
    5     5     6    1
    6     5     7    1
    7     5     8    1
    8     8     9    1
    9     8    10    1
   10     8    11    1
   11    11    12    1
   12    11    13    1
   13    11    14    1
   14    14    15    1
   15    14    16    1
   16    14    17    1
   17    17    18    1
   18    17    19    1
   19    17    20    1
   20    20    21    1
   21    20    22    1
   22    20    23    1
@<TRIPOS>SUBSTRUCTURE
       1 MOL1            1 RESIDUE      1      MOL     
@<SCITEGIC>MOL_PROPERTY
VConf Rank
SciTegic.value.IntegerValue
863

@<SCITEGIC>MOL_PROPERTY
Conf_Id
SciTegic.value.IntegerValue
82

@<SCITEGIC>MOL_PROPERTY
Delta U+W
SciTegic.value.DoubleValue
5.994

@<SCITEGIC>MOL_PROPERTY
U+W
SciTegic.value.DoubleValue
-2.388

@<SCITEGIC>MOL_PROPERTY
Grad RMS
SciTegic.value.DoubleValue
0.000000

@<SCITEGIC>MOL_PROPERTY
U
SciTegic.value.DoubleValue
52.836

@<SCITEGIC>MOL_PROPERTY
W
SciTegic.value.DoubleValue
-55.224

@<SCITEGIC>MOL_PROPERTY
W(PB)
SciTegic.value.DoubleValue
-57.261

@<SCITEGIC>MOL_PROPERTY
W(SA)
SciTegic.value.DoubleValue
2.037

@<SCITEGIC>MOL_PROPERTY
Valence
SciTegic.value.DoubleValue
5.785

@<SCITEGIC>MOL_PROPERTY
Coulomb
SciTegic.value.DoubleValue
46.744

@<SCITEGIC>MOL_PROPERTY
VdW
SciTegic.value.DoubleValue
0.307

@<SCITEGIC>MOL_PROPERTY
VdW6
SciTegic.value.DoubleValue
-7.672

@<SCITEGIC>MOL_PROPERTY
VdW12
SciTegic.value.DoubleValue
7.979

@<SCITEGIC>MOL_PROPERTY
Bond
SciTegic.value.DoubleValue
0.217

@<SCITEGIC>MOL_PROPERTY
Angle
SciTegic.value.DoubleValue
1.470

@<SCITEGIC>MOL_PROPERTY
Pdih
SciTegic.value.DoubleValue
4.098

@<SCITEGIC>MOL_PROPERTY
Idih
SciTegic.value.DoubleValue
0.000

@<SCITEGIC>MOL_PROPERTY
Tether
SciTegic.value.DoubleValue
0.000

@<TRIPOS>MOLECULE
guest-2_confgen4.mol2 : confsearch ligand conformer 864
          23          22           1
SMALL
USER_CHARGES
 
@<TRIPOS>ATOM
       1    N1      18.326848   18.143663   21.454622 N.4        1 MOL1        -0.5940
       2    H1      18.001634   18.657726   20.629400 H          1 MOL1         0.3649
       3    H2      17.998136   17.177233   21.353318 H          1 MOL1         0.3649
       4    H3      19.351103   18.125102   21.419526 H          1 MOL1         0.3649
       5    C1      17.830086   18.775388   22.740626 C.3        1 MOL1         0.0207
       6    H4      18.148973   18.154438   23.581970 H          1 MOL1         0.0950
       7    H5      16.737461   18.759948   22.702656 H          1 MOL1         0.0950
       8    C2      18.305917   20.227327   22.950807 C.3        1 MOL1        -0.1415
       9    H6      18.219995   20.785926   22.009288 H          1 MOL1         0.0976
      10    H7      17.608233   20.709416   23.648421 H          1 MOL1         0.0976
      11    C3      19.737259   20.377581   23.532870 C.3        1 MOL1        -0.1375
      12    H8      19.783024   19.931006   24.535839 H          1 MOL1         0.0976
      13    H9      19.920361   21.450891   23.681135 H          1 MOL1         0.0976
      14    C4      20.876650   19.814663   22.645078 C.3        1 MOL1        -0.1375
      15    H10     20.591700   19.864245   21.585800 H          1 MOL1         0.0976
      16    H11     21.753456   20.469459   22.746031 H          1 MOL1         0.0976
      17    C5      21.306475   18.381042   23.041419 C.3        1 MOL1        -0.1350
      18    H12     20.440815   17.710581   23.099720 H          1 MOL1         0.0976
      19    H13     21.742962   18.399762   24.050013 H          1 MOL1         0.0976
      20    C6      22.339971   17.801271   22.052693 C.3        1 MOL1        -0.2365
      21    H14     21.927565   17.736260   21.037576 H          1 MOL1         0.0987
      22    H15     22.643954   16.791481   22.357812 H          1 MOL1         0.0987
      23    H16     23.241861   18.426178   22.014565 H          1 MOL1         0.0987
@<TRIPOS>BOND
    1     1     2    1
    2     1     3    1
    3     1     4    1
    4     1     5    1
    5     5     6    1
    6     5     7    1
    7     5     8    1
    8     8     9    1
    9     8    10    1
   10     8    11    1
   11    11    12    1
   12    11    13    1
   13    11    14    1
   14    14    15    1
   15    14    16    1
   16    14    17    1
   17    17    18    1
   18    17    19    1
   19    17    20    1
   20    20    21    1
   21    20    22    1
   22    20    23    1
@<TRIPOS>SUBSTRUCTURE
       1 MOL1            1 RESIDUE      1      MOL     
@<SCITEGIC>MOL_PROPERTY
VConf Rank
SciTegic.value.IntegerValue
864

@<SCITEGIC>MOL_PROPERTY
Conf_Id
SciTegic.value.IntegerValue
5

@<SCITEGIC>MOL_PROPERTY
Delta U+W
SciTegic.value.DoubleValue
6.087

@<SCITEGIC>MOL_PROPERTY
U+W
SciTegic.value.DoubleValue
-2.295

@<SCITEGIC>MOL_PROPERTY
Grad RMS
SciTegic.value.DoubleValue
0.000000

@<SCITEGIC>MOL_PROPERTY
U
SciTegic.value.DoubleValue
52.836

@<SCITEGIC>MOL_PROPERTY
W
SciTegic.value.DoubleValue
-55.131

@<SCITEGIC>MOL_PROPERTY
W(PB)
SciTegic.value.DoubleValue
-57.202

@<SCITEGIC>MOL_PROPERTY
W(SA)
SciTegic.value.DoubleValue
2.071

@<SCITEGIC>MOL_PROPERTY
Valence
SciTegic.value.DoubleValue
5.785

@<SCITEGIC>MOL_PROPERTY
Coulomb
SciTegic.value.DoubleValue
46.744

@<SCITEGIC>MOL_PROPERTY
VdW
SciTegic.value.DoubleValue
0.307

@<SCITEGIC>MOL_PROPERTY
VdW6
SciTegic.value.DoubleValue
-7.672

@<SCITEGIC>MOL_PROPERTY
VdW12
SciTegic.value.DoubleValue
7.980

@<SCITEGIC>MOL_PROPERTY
Bond
SciTegic.value.DoubleValue
0.217

@<SCITEGIC>MOL_PROPERTY
Angle
SciTegic.value.DoubleValue
1.470

@<SCITEGIC>MOL_PROPERTY
Pdih
SciTegic.value.DoubleValue
4.098

@<SCITEGIC>MOL_PROPERTY
Idih
SciTegic.value.DoubleValue
0.000

@<SCITEGIC>MOL_PROPERTY
Tether
SciTegic.value.DoubleValue
0.000

@<TRIPOS>MOLECULE
guest-2_confgen4.mol2 : confsearch ligand conformer 865
          23          22           1
SMALL
USER_CHARGES
 
@<TRIPOS>ATOM
       1    N1      23.452339   18.023894   22.117721 N.4        1 MOL1        -0.5940
       2    H1      23.362338   17.719678   21.142921 H          1 MOL1         0.3649
       3    H2      24.168931   17.430760   22.549904 H          1 MOL1         0.3649
       4    H3      23.825594   18.978531   22.102476 H          1 MOL1         0.3649
       5    C1      22.133399   17.944005   22.859282 C.3        1 MOL1         0.0207
       6    H4      22.308506   18.252472   23.893535 H          1 MOL1         0.0950
       7    H5      21.810601   16.899357   22.862177 H          1 MOL1         0.0950
       8    C2      21.035602   18.823693   22.235129 C.3        1 MOL1        -0.1415
       9    H6      21.370766   19.869409   22.219496 H          1 MOL1         0.0976
      10    H7      20.874700   18.521129   21.191738 H          1 MOL1         0.0976
      11    C3      19.709179   18.714032   23.019196 C.3        1 MOL1        -0.1375
      12    H8      19.875536   19.012472   24.063735 H          1 MOL1         0.0976
      13    H9      19.379988   17.665644   23.037021 H          1 MOL1         0.0976
      14    C4      18.599076   19.593925   22.400761 C.3        1 MOL1        -0.1375
      15    H10     18.928022   20.642254   22.382998 H          1 MOL1         0.0976
      16    H11     18.432602   19.295632   21.356337 H          1 MOL1         0.0976
      17    C5      17.272623   19.483944   23.185098 C.3        1 MOL1        -0.1350
      18    H12     17.433408   19.783693   24.230216 H          1 MOL1         0.0976
      19    H13     16.938030   18.437198   23.203634 H          1 MOL1         0.0976
      20    C6      16.166601   20.363878   22.564663 C.3        1 MOL1        -0.2365
      21    H14     15.233055   20.272574   23.134926 H          1 MOL1         0.0987
      22    H15     15.959086   20.065219   21.528821 H          1 MOL1         0.0987
      23    H16     16.458346   21.422232   22.563398 H          1 MOL1         0.0987
@<TRIPOS>BOND
    1     1     2    1
    2     1     3    1
    3     1     4    1
    4     1     5    1
    5     5     6    1
    6     5     7    1
    7     5     8    1
    8     8     9    1
    9     8    10    1
   10     8    11    1
   11    11    12    1
   12    11    13    1
   13    11    14    1
   14    14    15    1
   15    14    16    1
   16    14    17    1
   17    17    18    1
   18    17    19    1
   19    17    20    1
   20    20    21    1
   21    20    22    1
   22    20    23    1
@<TRIPOS>SUBSTRUCTURE
       1 MOL1            1 RESIDUE      1      MOL     
@<SCITEGIC>MOL_PROPERTY
VConf Rank
SciTegic.value.IntegerValue
865

@<SCITEGIC>MOL_PROPERTY
Conf_Id
SciTegic.value.IntegerValue
40

@<SCITEGIC>MOL_PROPERTY
Delta U+W
SciTegic.value.DoubleValue
0.000

@<SCITEGIC>MOL_PROPERTY
U+W
SciTegic.value.DoubleValue
-8.382

@<SCITEGIC>MOL_PROPERTY
Grad RMS
SciTegic.value.DoubleValue
0.000000

@<SCITEGIC>MOL_PROPERTY
U
SciTegic.value.DoubleValue
46.604

@<SCITEGIC>MOL_PROPERTY
W
SciTegic.value.DoubleValue
-54.986

@<SCITEGIC>MOL_PROPERTY
W(PB)
SciTegic.value.DoubleValue
-57.162

@<SCITEGIC>MOL_PROPERTY
W(SA)
SciTegic.value.DoubleValue
2.176

@<SCITEGIC>MOL_PROPERTY
Valence
SciTegic.value.DoubleValue
1.727

@<SCITEGIC>MOL_PROPERTY
Coulomb
SciTegic.value.DoubleValue
44.434

@<SCITEGIC>MOL_PROPERTY
VdW
SciTegic.value.DoubleValue
0.443

@<SCITEGIC>MOL_PROPERTY
VdW6
SciTegic.value.DoubleValue
-4.623

@<SCITEGIC>MOL_PROPERTY
VdW12
SciTegic.value.DoubleValue
5.066

@<SCITEGIC>MOL_PROPERTY
Bond
SciTegic.value.DoubleValue
0.112

@<SCITEGIC>MOL_PROPERTY
Angle
SciTegic.value.DoubleValue
0.386

@<SCITEGIC>MOL_PROPERTY
Pdih
SciTegic.value.DoubleValue
1.228

@<SCITEGIC>MOL_PROPERTY
Idih
SciTegic.value.DoubleValue
0.000

@<SCITEGIC>MOL_PROPERTY
Tether
SciTegic.value.DoubleValue
0.000

@<TRIPOS>MOLECULE
guest-2_confgen4.mol2 : confsearch ligand conformer 866
          23          22           1
SMALL
USER_CHARGES
 
@<TRIPOS>ATOM
       1    N1      19.544840   16.273414   24.887974 N.4        1 MOL1        -0.5940
       2    H1      20.438789   15.773534   24.930567 H          1 MOL1         0.3649
       3    H2      18.904706   15.699312   24.329881 H          1 MOL1         0.3649
       4    H3      19.170186   16.295458   25.842530 H          1 MOL1         0.3649
       5    C1      19.702727   17.666257   24.312784 C.3        1 MOL1         0.0207
       6    H4      20.371602   18.228835   24.969687 H          1 MOL1         0.0950
       7    H5      18.721486   18.147389   24.326851 H          1 MOL1         0.0950
       8    C2      20.264505   17.666508   22.878372 C.3        1 MOL1        -0.1415
       9    H6      21.227344   17.138453   22.871644 H          1 MOL1         0.0976
      10    H7      19.592431   17.102585   22.217849 H          1 MOL1         0.0976
      11    C3      20.471594   19.092426   22.314905 C.3        1 MOL1        -0.1375
      12    H8      20.976693   19.007785   21.343992 H          1 MOL1         0.0976
      13    H9      21.151975   19.650946   22.972559 H          1 MOL1         0.0976
      14    C4      19.146016   19.877546   22.144601 C.3        1 MOL1        -0.1375
      15    H10     18.474252   19.328626   21.470331 H          1 MOL1         0.0976
      16    H11     18.629420   19.940411   23.111391 H          1 MOL1         0.0976
      17    C5      19.346988   21.317345   21.612515 C.3        1 MOL1        -0.1350
      18    H12     20.010036   21.874655   22.288955 H          1 MOL1         0.0976
      19    H13     18.379460   21.838239   21.633294 H          1 MOL1         0.0976
      20    C6      19.908147   21.370489   20.173186 C.3        1 MOL1        -0.2365
      21    H14     20.929898   20.974567   20.122930 H          1 MOL1         0.0987
      22    H15     19.938687   22.406351   19.811242 H          1 MOL1         0.0987
      23    H16     19.280213   20.792544   19.482759 H          1 MOL1         0.0987
@<TRIPOS>BOND
    1     1     2    1
    2     1     3    1
    3     1     4    1
    4     1     5    1
    5     5     6    1
    6     5     7    1
    7     5     8    1
    8     8     9    1
    9     8    10    1
   10     8    11    1
   11    11    12    1
   12    11    13    1
   13    11    14    1
   14    14    15    1
   15    14    16    1
   16    14    17    1
   17    17    18    1
   18    17    19    1
   19    17    20    1
   20    20    21    1
   21    20    22    1
   22    20    23    1
@<TRIPOS>SUBSTRUCTURE
       1 MOL1            1 RESIDUE      1      MOL     
@<SCITEGIC>MOL_PROPERTY
VConf Rank
SciTegic.value.IntegerValue
866

@<SCITEGIC>MOL_PROPERTY
Conf_Id
SciTegic.value.IntegerValue
65

@<SCITEGIC>MOL_PROPERTY
Delta U+W
SciTegic.value.DoubleValue
1.004

@<SCITEGIC>MOL_PROPERTY
U+W
SciTegic.value.DoubleValue
-7.378

@<SCITEGIC>MOL_PROPERTY
Grad RMS
SciTegic.value.DoubleValue
0.000000

@<SCITEGIC>MOL_PROPERTY
U
SciTegic.value.DoubleValue
48.047

@<SCITEGIC>MOL_PROPERTY
W
SciTegic.value.DoubleValue
-55.425

@<SCITEGIC>MOL_PROPERTY
W(PB)
SciTegic.value.DoubleValue
-57.542

@<SCITEGIC>MOL_PROPERTY
W(SA)
SciTegic.value.DoubleValue
2.116

@<SCITEGIC>MOL_PROPERTY
Valence
SciTegic.value.DoubleValue
2.583

@<SCITEGIC>MOL_PROPERTY
Coulomb
SciTegic.value.DoubleValue
44.791

@<SCITEGIC>MOL_PROPERTY
VdW
SciTegic.value.DoubleValue
0.673

@<SCITEGIC>MOL_PROPERTY
VdW6
SciTegic.value.DoubleValue
-5.788

@<SCITEGIC>MOL_PROPERTY
VdW12
SciTegic.value.DoubleValue
6.462

@<SCITEGIC>MOL_PROPERTY
Bond
SciTegic.value.DoubleValue
0.177

@<SCITEGIC>MOL_PROPERTY
Angle
SciTegic.value.DoubleValue
0.787

@<SCITEGIC>MOL_PROPERTY
Pdih
SciTegic.value.DoubleValue
1.619

@<SCITEGIC>MOL_PROPERTY
Idih
SciTegic.value.DoubleValue
0.000

@<SCITEGIC>MOL_PROPERTY
Tether
SciTegic.value.DoubleValue
0.000

@<TRIPOS>MOLECULE
guest-2_confgen4.mol2 : confsearch ligand conformer 867
          23          22           1
SMALL
USER_CHARGES
 
@<TRIPOS>ATOM
       1    N1      22.757570   20.725881   23.574270 N.4        1 MOL1        -0.5940
       2    H1      22.549352   21.698642   23.821698 H          1 MOL1         0.3649
       3    H2      23.650790   20.731467   23.070131 H          1 MOL1         0.3649
       4    H3      22.913623   20.218532   24.451241 H          1 MOL1         0.3649
       5    C1      21.649612   20.102585   22.749828 C.3        1 MOL1         0.0207
       6    H4      21.952604   19.083042   22.498340 H          1 MOL1         0.0950
       7    H5      21.557538   20.673326   21.821827 H          1 MOL1         0.0950
       8    C2      20.293671   20.079708   23.480606 C.3        1 MOL1        -0.1415
       9    H6      20.385261   19.505549   24.412238 H          1 MOL1         0.0976
      10    H7      20.025665   21.104969   23.768632 H          1 MOL1         0.0976
      11    C3      19.155218   19.488934   22.615432 C.3        1 MOL1        -0.1375
      12    H8      19.059474   20.071395   21.688640 H          1 MOL1         0.0976
      13    H9      18.210364   19.613079   23.160227 H          1 MOL1         0.0976
      14    C4      19.365389   17.991746   22.273629 C.3        1 MOL1        -0.1375
      15    H10     20.322366   17.865133   21.750496 H          1 MOL1         0.0976
      16    H11     19.440251   17.406972   23.200805 H          1 MOL1         0.0976
      17    C5      18.247485   17.401142   21.380322 C.3        1 MOL1        -0.1350
      18    H12     18.531511   16.379713   21.090695 H          1 MOL1         0.0976
      19    H13     18.175083   17.975913   20.446408 H          1 MOL1         0.0976
      20    C6      16.865518   17.354678   22.071263 C.3        1 MOL1        -0.2365
      21    H14     16.478188   18.361849   22.268338 H          1 MOL1         0.0987
      22    H15     16.918503   16.813127   23.024638 H          1 MOL1         0.0987
      23    H16     16.134854   16.840273   21.433719 H          1 MOL1         0.0987
@<TRIPOS>BOND
    1     1     2    1
    2     1     3    1
    3     1     4    1
    4     1     5    1
    5     5     6    1
    6     5     7    1
    7     5     8    1
    8     8     9    1
    9     8    10    1
   10     8    11    1
   11    11    12    1
   12    11    13    1
   13    11    14    1
   14    14    15    1
   15    14    16    1
   16    14    17    1
   17    17    18    1
   18    17    19    1
   19    17    20    1
   20    20    21    1
   21    20    22    1
   22    20    23    1
@<TRIPOS>SUBSTRUCTURE
       1 MOL1            1 RESIDUE      1      MOL     
@<SCITEGIC>MOL_PROPERTY
VConf Rank
SciTegic.value.IntegerValue
867

@<SCITEGIC>MOL_PROPERTY
Conf_Id
SciTegic.value.IntegerValue
92

@<SCITEGIC>MOL_PROPERTY
Delta U+W
SciTegic.value.DoubleValue
0.973

@<SCITEGIC>MOL_PROPERTY
U+W
SciTegic.value.DoubleValue
-7.409

@<SCITEGIC>MOL_PROPERTY
Grad RMS
SciTegic.value.DoubleValue
0.000000

@<SCITEGIC>MOL_PROPERTY
U
SciTegic.value.DoubleValue
48.047

@<SCITEGIC>MOL_PROPERTY
W
SciTegic.value.DoubleValue
-55.456

@<SCITEGIC>MOL_PROPERTY
W(PB)
SciTegic.value.DoubleValue
-57.595

@<SCITEGIC>MOL_PROPERTY
W(SA)
SciTegic.value.DoubleValue
2.138

@<SCITEGIC>MOL_PROPERTY
Valence
SciTegic.value.DoubleValue
2.583

@<SCITEGIC>MOL_PROPERTY
Coulomb
SciTegic.value.DoubleValue
44.791

@<SCITEGIC>MOL_PROPERTY
VdW
SciTegic.value.DoubleValue
0.674

@<SCITEGIC>MOL_PROPERTY
VdW6
SciTegic.value.DoubleValue
-5.789

@<SCITEGIC>MOL_PROPERTY
VdW12
SciTegic.value.DoubleValue
6.462

@<SCITEGIC>MOL_PROPERTY
Bond
SciTegic.value.DoubleValue
0.177

@<SCITEGIC>MOL_PROPERTY
Angle
SciTegic.value.DoubleValue
0.787

@<SCITEGIC>MOL_PROPERTY
Pdih
SciTegic.value.DoubleValue
1.619

@<SCITEGIC>MOL_PROPERTY
Idih
SciTegic.value.DoubleValue
0.000

@<SCITEGIC>MOL_PROPERTY
Tether
SciTegic.value.DoubleValue
0.000

@<TRIPOS>MOLECULE
guest-2_confgen4.mol2 : confsearch ligand conformer 868
          23          22           1
SMALL
USER_CHARGES
 
@<TRIPOS>ATOM
       1    N1      18.063911   21.189419   20.424478 N.4        1 MOL1        -0.5940
       2    H1      18.560693   21.668005   19.665402 H          1 MOL1         0.3649
       3    H2      17.454178   21.885094   20.866198 H          1 MOL1         0.3649
       4    H3      17.455599   20.489474   19.987589 H          1 MOL1         0.3649
       5    C1      19.021863   20.564767   21.418416 C.3        1 MOL1         0.0207
       6    H4      19.655445   21.359327   21.821737 H          1 MOL1         0.0950
       7    H5      19.656917   19.860656   20.874700 H          1 MOL1         0.0950
       8    C2      18.305304   19.837710   22.572014 C.3        1 MOL1        -0.1415
       9    H6      17.637434   20.544878   23.081729 H          1 MOL1         0.0976
      10    H7      17.668307   19.040206   22.166774 H          1 MOL1         0.0976
      11    C3      19.289283   19.242102   23.606455 C.3        1 MOL1        -0.1375
      12    H8      18.711168   18.823677   24.442011 H          1 MOL1         0.0976
      13    H9      19.907813   20.046211   24.028923 H          1 MOL1         0.0976
      14    C4      20.199479   18.138920   23.014852 C.3        1 MOL1        -0.1375
      15    H10     19.578106   17.352726   22.564061 H          1 MOL1         0.0976
      16    H11     20.819580   18.555290   22.209763 H          1 MOL1         0.0976
      17    C5      21.117450   17.515121   24.089550 C.3        1 MOL1        -0.1350
      18    H12     20.506751   17.087384   24.897045 H          1 MOL1         0.0976
      19    H13     21.741007   18.297590   24.544408 H          1 MOL1         0.0976
      20    C6      22.025687   16.416043   23.498198 C.3        1 MOL1        -0.2365
      21    H14     21.429690   15.602132   23.065111 H          1 MOL1         0.0987
      22    H15     22.669338   15.985060   24.276024 H          1 MOL1         0.0987
      23    H16     22.674394   16.821237   22.710659 H          1 MOL1         0.0987
@<TRIPOS>BOND
    1     1     2    1
    2     1     3    1
    3     1     4    1
    4     1     5    1
    5     5     6    1
    6     5     7    1
    7     5     8    1
    8     8     9    1
    9     8    10    1
   10     8    11    1
   11    11    12    1
   12    11    13    1
   13    11    14    1
   14    14    15    1
   15    14    16    1
   16    14    17    1
   17    17    18    1
   18    17    19    1
   19    17    20    1
   20    20    21    1
   21    20    22    1
   22    20    23    1
@<TRIPOS>SUBSTRUCTURE
       1 MOL1            1 RESIDUE      1      MOL     
@<SCITEGIC>MOL_PROPERTY
VConf Rank
SciTegic.value.IntegerValue
868

@<SCITEGIC>MOL_PROPERTY
Conf_Id
SciTegic.value.IntegerValue
42

@<SCITEGIC>MOL_PROPERTY
Delta U+W
SciTegic.value.DoubleValue
0.365

@<SCITEGIC>MOL_PROPERTY
U+W
SciTegic.value.DoubleValue
-8.017

@<SCITEGIC>MOL_PROPERTY
Grad RMS
SciTegic.value.DoubleValue
0.000000

@<SCITEGIC>MOL_PROPERTY
U
SciTegic.value.DoubleValue
47.375

@<SCITEGIC>MOL_PROPERTY
W
SciTegic.value.DoubleValue
-55.392

@<SCITEGIC>MOL_PROPERTY
W(PB)
SciTegic.value.DoubleValue
-57.543

@<SCITEGIC>MOL_PROPERTY
W(SA)
SciTegic.value.DoubleValue
2.152

@<SCITEGIC>MOL_PROPERTY
Valence
SciTegic.value.DoubleValue
2.032

@<SCITEGIC>MOL_PROPERTY
Coulomb
SciTegic.value.DoubleValue
44.843

@<SCITEGIC>MOL_PROPERTY
VdW
SciTegic.value.DoubleValue
0.499

@<SCITEGIC>MOL_PROPERTY
VdW6
SciTegic.value.DoubleValue
-5.218

@<SCITEGIC>MOL_PROPERTY
VdW12
SciTegic.value.DoubleValue
5.717

@<SCITEGIC>MOL_PROPERTY
Bond
SciTegic.value.DoubleValue
0.135

@<SCITEGIC>MOL_PROPERTY
Angle
SciTegic.value.DoubleValue
0.514

@<SCITEGIC>MOL_PROPERTY
Pdih
SciTegic.value.DoubleValue
1.383

@<SCITEGIC>MOL_PROPERTY
Idih
SciTegic.value.DoubleValue
0.000

@<SCITEGIC>MOL_PROPERTY
Tether
SciTegic.value.DoubleValue
0.000

@<TRIPOS>MOLECULE
guest-2_confgen4.mol2 : confsearch ligand conformer 869
          23          22           1
SMALL
USER_CHARGES
 
@<TRIPOS>ATOM
       1    N1      17.978485   19.708254   20.087930 N.4        1 MOL1        -0.5940
       2    H1      17.097755   19.535752   20.583096 H          1 MOL1         0.3649
       3    H2      17.761212   19.715653   19.085589 H          1 MOL1         0.3649
       4    H3      18.284260   20.654356   20.334496 H          1 MOL1         0.3649
       5    C1      19.029414   18.669298   20.428081 C.3        1 MOL1         0.0207
       6    H4      19.930722   18.895755   19.852077 H          1 MOL1         0.0950
       7    H5      18.650964   17.697457   20.099642 H          1 MOL1         0.0950
       8    C2      19.375741   18.600431   21.928263 C.3        1 MOL1        -0.1415
       9    H6      18.464294   18.400301   22.506936 H          1 MOL1         0.0976
      10    H7      20.045074   17.744561   22.078591 H          1 MOL1         0.0976
      11    C3      20.063450   19.888199   22.443546 C.3        1 MOL1        -0.1375
      12    H8      19.439786   20.758116   22.199375 H          1 MOL1         0.0976
      13    H9      21.012304   20.032841   21.908605 H          1 MOL1         0.0976
      14    C4      20.326677   19.904795   23.971778 C.3        1 MOL1        -0.1375
      15    H10     20.772482   20.878210   24.219179 H          1 MOL1         0.0976
      16    H11     19.374749   19.868842   24.519287 H          1 MOL1         0.0976
      17    C5      21.281193   18.794354   24.481936 C.3        1 MOL1        -0.1350
      18    H12     21.892902   19.205866   25.297068 H          1 MOL1         0.0976
      19    H13     21.987685   18.504467   23.691725 H          1 MOL1         0.0976
      20    C6      20.540296   17.549901   25.024771 C.3        1 MOL1        -0.2365
      21    H14     19.887966   17.818676   25.865772 H          1 MOL1         0.0987
      22    H15     21.258640   16.803040   25.386842 H          1 MOL1         0.0987
      23    H16     19.921205   17.070695   24.258476 H          1 MOL1         0.0987
@<TRIPOS>BOND
    1     1     2    1
    2     1     3    1
    3     1     4    1
    4     1     5    1
    5     5     6    1
    6     5     7    1
    7     5     8    1
    8     8     9    1
    9     8    10    1
   10     8    11    1
   11    11    12    1
   12    11    13    1
   13    11    14    1
   14    14    15    1
   15    14    16    1
   16    14    17    1
   17    17    18    1
   18    17    19    1
   19    17    20    1
   20    20    21    1
   21    20    22    1
   22    20    23    1
@<TRIPOS>SUBSTRUCTURE
       1 MOL1            1 RESIDUE      1      MOL     
@<SCITEGIC>MOL_PROPERTY
VConf Rank
SciTegic.value.IntegerValue
869

@<SCITEGIC>MOL_PROPERTY
Conf_Id
SciTegic.value.IntegerValue
3

@<SCITEGIC>MOL_PROPERTY
Delta U+W
SciTegic.value.DoubleValue
3.283

@<SCITEGIC>MOL_PROPERTY
U+W
SciTegic.value.DoubleValue
-5.099

@<SCITEGIC>MOL_PROPERTY
Grad RMS
SciTegic.value.DoubleValue
0.000000

@<SCITEGIC>MOL_PROPERTY
U
SciTegic.value.DoubleValue
50.701

@<SCITEGIC>MOL_PROPERTY
W
SciTegic.value.DoubleValue
-55.800

@<SCITEGIC>MOL_PROPERTY
W(PB)
SciTegic.value.DoubleValue
-57.867

@<SCITEGIC>MOL_PROPERTY
W(SA)
SciTegic.value.DoubleValue
2.067

@<SCITEGIC>MOL_PROPERTY
Valence
SciTegic.value.DoubleValue
4.880

@<SCITEGIC>MOL_PROPERTY
Coulomb
SciTegic.value.DoubleValue
45.095

@<SCITEGIC>MOL_PROPERTY
VdW
SciTegic.value.DoubleValue
0.726

@<SCITEGIC>MOL_PROPERTY
VdW6
SciTegic.value.DoubleValue
-6.620

@<SCITEGIC>MOL_PROPERTY
VdW12
SciTegic.value.DoubleValue
7.346

@<SCITEGIC>MOL_PROPERTY
Bond
SciTegic.value.DoubleValue
0.222

@<SCITEGIC>MOL_PROPERTY
Angle
SciTegic.value.DoubleValue
1.260

@<SCITEGIC>MOL_PROPERTY
Pdih
SciTegic.value.DoubleValue
3.398

@<SCITEGIC>MOL_PROPERTY
Idih
SciTegic.value.DoubleValue
0.000

@<SCITEGIC>MOL_PROPERTY
Tether
SciTegic.value.DoubleValue
0.000

@<TRIPOS>MOLECULE
guest-2_confgen4.mol2 : confsearch ligand conformer 870
          23          22           1
SMALL
USER_CHARGES
 
@<TRIPOS>ATOM
       1    N1      19.294877   21.916661   22.832318 N.4        1 MOL1        -0.5940
       2    H1      18.317283   22.176172   22.666432 H          1 MOL1         0.3649
       3    H2      19.794220   22.776433   23.083878 H          1 MOL1         0.3649
       4    H3      19.311425   21.307226   23.655674 H          1 MOL1         0.3649
       5    C1      19.910870   21.240488   21.623336 C.3        1 MOL1         0.0207
       6    H4      20.955936   21.019138   21.854274 H          1 MOL1         0.0950
       7    H5      19.891531   21.955640   20.796468 H          1 MOL1         0.0950
       8    C2      19.183984   19.948150   21.198163 C.3        1 MOL1        -0.1415
       9    H6      18.150571   20.194020   20.919936 H          1 MOL1         0.0976
      10    H7      19.660620   19.558792   20.288724 H          1 MOL1         0.0976
      11    C3      19.171503   18.840572   22.282027 C.3        1 MOL1        -0.1375
      12    H8      18.597851   17.989931   21.891887 H          1 MOL1         0.0976
      13    H9      18.630208   19.192478   23.170233 H          1 MOL1         0.0976
      14    C4      20.590788   18.366517   22.686168 C.3        1 MOL1        -0.1375
      15    H10     21.121055   17.989025   21.801021 H          1 MOL1         0.0976
      16    H11     21.173395   19.221335   23.053876 H          1 MOL1         0.0976
      17    C5      20.586571   17.278957   23.787822 C.3        1 MOL1        -0.1350
      18    H12     20.066740   17.655009   24.680059 H          1 MOL1         0.0976
      19    H13     21.623877   17.086222   24.095576 H          1 MOL1         0.0976
      20    C6      19.947368   15.945917   23.336414 C.3        1 MOL1        -0.2365
      21    H14     20.428174   15.565685   22.425779 H          1 MOL1         0.0987
      22    H15     18.874496   16.058987   23.137899 H          1 MOL1         0.0987
      23    H16     20.058618   15.183013   24.117782 H          1 MOL1         0.0987
@<TRIPOS>BOND
    1     1     2    1
    2     1     3    1
    3     1     4    1
    4     1     5    1
    5     5     6    1
    6     5     7    1
    7     5     8    1
    8     8     9    1
    9     8    10    1
   10     8    11    1
   11    11    12    1
   12    11    13    1
   13    11    14    1
   14    14    15    1
   15    14    16    1
   16    14    17    1
   17    17    18    1
   18    17    19    1
   19    17    20    1
   20    20    21    1
   21    20    22    1
   22    20    23    1
@<TRIPOS>SUBSTRUCTURE
       1 MOL1            1 RESIDUE      1      MOL     
@<SCITEGIC>MOL_PROPERTY
VConf Rank
SciTegic.value.IntegerValue
870

@<SCITEGIC>MOL_PROPERTY
Conf_Id
SciTegic.value.IntegerValue
83

@<SCITEGIC>MOL_PROPERTY
Delta U+W
SciTegic.value.DoubleValue
1.229

@<SCITEGIC>MOL_PROPERTY
U+W
SciTegic.value.DoubleValue
-7.154

@<SCITEGIC>MOL_PROPERTY
Grad RMS
SciTegic.value.DoubleValue
0.000000

@<SCITEGIC>MOL_PROPERTY
U
SciTegic.value.DoubleValue
48.727

@<SCITEGIC>MOL_PROPERTY
W
SciTegic.value.DoubleValue
-55.880

@<SCITEGIC>MOL_PROPERTY
W(PB)
SciTegic.value.DoubleValue
-57.960

@<SCITEGIC>MOL_PROPERTY
W(SA)
SciTegic.value.DoubleValue
2.080

@<SCITEGIC>MOL_PROPERTY
Valence
SciTegic.value.DoubleValue
2.671

@<SCITEGIC>MOL_PROPERTY
Coulomb
SciTegic.value.DoubleValue
45.371

@<SCITEGIC>MOL_PROPERTY
VdW
SciTegic.value.DoubleValue
0.684

@<SCITEGIC>MOL_PROPERTY
VdW6
SciTegic.value.DoubleValue
-6.511

@<SCITEGIC>MOL_PROPERTY
VdW12
SciTegic.value.DoubleValue
7.195

@<SCITEGIC>MOL_PROPERTY
Bond
SciTegic.value.DoubleValue
0.203

@<SCITEGIC>MOL_PROPERTY
Angle
SciTegic.value.DoubleValue
0.915

@<SCITEGIC>MOL_PROPERTY
Pdih
SciTegic.value.DoubleValue
1.554

@<SCITEGIC>MOL_PROPERTY
Idih
SciTegic.value.DoubleValue
0.000

@<SCITEGIC>MOL_PROPERTY
Tether
SciTegic.value.DoubleValue
0.000

@<TRIPOS>MOLECULE
guest-2_confgen4.mol2 : confsearch ligand conformer 871
          23          22           1
SMALL
USER_CHARGES
 
@<TRIPOS>ATOM
       1    N1      19.439760   21.056651   20.512255 N.4        1 MOL1        -0.5940
       2    H1      18.765936   21.792203   20.747790 H          1 MOL1         0.3649
       3    H2      18.920865   20.174710   20.461958 H          1 MOL1         0.3649
       4    H3      19.784265   21.257745   19.567421 H          1 MOL1         0.3649
       5    C1      20.569622   20.984254   21.520453 C.3        1 MOL1         0.0207
       6    H4      21.098521   21.940925   21.496523 H          1 MOL1         0.0950
       7    H5      21.264576   20.205727   21.195762 H          1 MOL1         0.0950
       8    C2      20.098094   20.697072   22.960754 C.3        1 MOL1        -0.1415
       9    H6      20.970392   20.716693   23.627515 H          1 MOL1         0.0976
      10    H7      19.442306   21.513233   23.291853 H          1 MOL1         0.0976
      11    C3      19.357361   19.346281   23.129070 C.3        1 MOL1        -0.1375
      12    H8      18.441051   19.344225   22.523993 H          1 MOL1         0.0976
      13    H9      19.033132   19.264612   24.174575 H          1 MOL1         0.0976
      14    C4      20.232056   18.120850   22.760754 C.3        1 MOL1        -0.1375
      15    H10     20.576922   18.213688   21.722581 H          1 MOL1         0.0976
      16    H11     21.135130   18.109118   23.386446 H          1 MOL1         0.0976
      17    C5      19.489679   16.769680   22.900971 C.3        1 MOL1        -0.1350
      18    H12     20.136695   15.970996   22.511951 H          1 MOL1         0.0976
      19    H13     18.590802   16.771533   22.268718 H          1 MOL1         0.0976
      20    C6      19.100697   16.427625   24.357348 C.3        1 MOL1        -0.2365
      21    H14     19.978074   16.451777   25.016617 H          1 MOL1         0.0987
      22    H15     18.667645   15.420467   24.412417 H          1 MOL1         0.0987
      23    H16     18.354356   17.128251   24.751481 H          1 MOL1         0.0987
@<TRIPOS>BOND
    1     1     2    1
    2     1     3    1
    3     1     4    1
    4     1     5    1
    5     5     6    1
    6     5     7    1
    7     5     8    1
    8     8     9    1
    9     8    10    1
   10     8    11    1
   11    11    12    1
   12    11    13    1
   13    11    14    1
   14    14    15    1
   15    14    16    1
   16    14    17    1
   17    17    18    1
   18    17    19    1
   19    17    20    1
   20    20    21    1
   21    20    22    1
   22    20    23    1
@<TRIPOS>SUBSTRUCTURE
       1 MOL1            1 RESIDUE      1      MOL     
@<SCITEGIC>MOL_PROPERTY
VConf Rank
SciTegic.value.IntegerValue
871

@<SCITEGIC>MOL_PROPERTY
Conf_Id
SciTegic.value.IntegerValue
50

@<SCITEGIC>MOL_PROPERTY
Delta U+W
SciTegic.value.DoubleValue
1.252

@<SCITEGIC>MOL_PROPERTY
U+W
SciTegic.value.DoubleValue
-7.130

@<SCITEGIC>MOL_PROPERTY
Grad RMS
SciTegic.value.DoubleValue
0.000000

@<SCITEGIC>MOL_PROPERTY
U
SciTegic.value.DoubleValue
48.727

@<SCITEGIC>MOL_PROPERTY
W
SciTegic.value.DoubleValue
-55.857

@<SCITEGIC>MOL_PROPERTY
W(PB)
SciTegic.value.DoubleValue
-57.937

@<SCITEGIC>MOL_PROPERTY
W(SA)
SciTegic.value.DoubleValue
2.080

@<SCITEGIC>MOL_PROPERTY
Valence
SciTegic.value.DoubleValue
2.671

@<SCITEGIC>MOL_PROPERTY
Coulomb
SciTegic.value.DoubleValue
45.371

@<SCITEGIC>MOL_PROPERTY
VdW
SciTegic.value.DoubleValue
0.684

@<SCITEGIC>MOL_PROPERTY
VdW6
SciTegic.value.DoubleValue
-6.511

@<SCITEGIC>MOL_PROPERTY
VdW12
SciTegic.value.DoubleValue
7.196

@<SCITEGIC>MOL_PROPERTY
Bond
SciTegic.value.DoubleValue
0.203

@<SCITEGIC>MOL_PROPERTY
Angle
SciTegic.value.DoubleValue
0.915

@<SCITEGIC>MOL_PROPERTY
Pdih
SciTegic.value.DoubleValue
1.554

@<SCITEGIC>MOL_PROPERTY
Idih
SciTegic.value.DoubleValue
0.000

@<SCITEGIC>MOL_PROPERTY
Tether
SciTegic.value.DoubleValue
0.000

@<TRIPOS>MOLECULE
guest-2_confgen4.mol2 : confsearch ligand conformer 872
          23          22           1
SMALL
USER_CHARGES
 
@<TRIPOS>ATOM
       1    N1      17.583369   17.912758   24.617020 N.4        1 MOL1        -0.5940
       2    H1      18.418433   17.946077   25.209549 H          1 MOL1         0.3649
       3    H2      17.036543   17.098049   24.915618 H          1 MOL1         0.3649
       4    H3      17.024070   18.743797   24.834240 H          1 MOL1         0.3649
       5    C1      17.940173   17.842186   23.144964 C.3        1 MOL1         0.0207
       6    H4      17.006373   17.767968   22.580976 H          1 MOL1         0.0950
       7    H5      18.512415   16.925625   22.978025 H          1 MOL1         0.0950
       8    C2      18.745919   19.055227   22.640917 C.3        1 MOL1        -0.1415
       9    H6      18.857581   18.964933   21.554620 H          1 MOL1         0.0976
      10    H7      18.169467   19.973384   22.815439 H          1 MOL1         0.0976
      11    C3      20.136620   19.170467   23.315711 C.3        1 MOL1        -0.1375
      12    H8      20.684119   18.221822   23.228108 H          1 MOL1         0.0976
      13    H9      19.989620   19.339170   24.390847 H          1 MOL1         0.0976
      14    C4      20.996956   20.334047   22.757133 C.3        1 MOL1        -0.1375
      15    H10     20.351784   21.148289   22.399421 H          1 MOL1         0.0976
      16    H11     21.577138   20.759981   23.587471 H          1 MOL1         0.0976
      17    C5      22.001425   19.923905   21.649870 C.3        1 MOL1        -0.1350
      18    H12     22.707338   19.182350   22.049316 H          1 MOL1         0.0976
      19    H13     22.603810   20.803421   21.382667 H          1 MOL1         0.0976
      20    C6      21.344164   19.366563   20.368305 C.3        1 MOL1        -0.2365
      21    H14     20.589491   20.060400   19.976011 H          1 MOL1         0.0987
      22    H15     20.865754   18.397220   20.554779 H          1 MOL1         0.0987
      23    H16     22.098673   19.214007   19.585789 H          1 MOL1         0.0987
@<TRIPOS>BOND
    1     1     2    1
    2     1     3    1
    3     1     4    1
    4     1     5    1
    5     5     6    1
    6     5     7    1
    7     5     8    1
    8     8     9    1
    9     8    10    1
   10     8    11    1
   11    11    12    1
   12    11    13    1
   13    11    14    1
   14    14    15    1
   15    14    16    1
   16    14    17    1
   17    17    18    1
   18    17    19    1
   19    17    20    1
   20    20    21    1
   21    20    22    1
   22    20    23    1
@<TRIPOS>SUBSTRUCTURE
       1 MOL1            1 RESIDUE      1      MOL     
@<SCITEGIC>MOL_PROPERTY
VConf Rank
SciTegic.value.IntegerValue
872

@<SCITEGIC>MOL_PROPERTY
Conf_Id
SciTegic.value.IntegerValue
55

@<SCITEGIC>MOL_PROPERTY
Delta U+W
SciTegic.value.DoubleValue
3.232

@<SCITEGIC>MOL_PROPERTY
U+W
SciTegic.value.DoubleValue
-5.150

@<SCITEGIC>MOL_PROPERTY
Grad RMS
SciTegic.value.DoubleValue
0.000000

@<SCITEGIC>MOL_PROPERTY
U
SciTegic.value.DoubleValue
50.625

@<SCITEGIC>MOL_PROPERTY
W
SciTegic.value.DoubleValue
-55.776

@<SCITEGIC>MOL_PROPERTY
W(PB)
SciTegic.value.DoubleValue
-57.839

@<SCITEGIC>MOL_PROPERTY
W(SA)
SciTegic.value.DoubleValue
2.064

@<SCITEGIC>MOL_PROPERTY
Valence
SciTegic.value.DoubleValue
4.837

@<SCITEGIC>MOL_PROPERTY
Coulomb
SciTegic.value.DoubleValue
45.097

@<SCITEGIC>MOL_PROPERTY
VdW
SciTegic.value.DoubleValue
0.692

@<SCITEGIC>MOL_PROPERTY
VdW6
SciTegic.value.DoubleValue
-6.655

@<SCITEGIC>MOL_PROPERTY
VdW12
SciTegic.value.DoubleValue
7.347

@<SCITEGIC>MOL_PROPERTY
Bond
SciTegic.value.DoubleValue
0.223

@<SCITEGIC>MOL_PROPERTY
Angle
SciTegic.value.DoubleValue
1.167

@<SCITEGIC>MOL_PROPERTY
Pdih
SciTegic.value.DoubleValue
3.447

@<SCITEGIC>MOL_PROPERTY
Idih
SciTegic.value.DoubleValue
0.000

@<SCITEGIC>MOL_PROPERTY
Tether
SciTegic.value.DoubleValue
0.000

@<TRIPOS>MOLECULE
guest-2_confgen4.mol2 : confsearch ligand conformer 873
          23          22           1
SMALL
USER_CHARGES
 
@<TRIPOS>ATOM
       1    N1      21.536098   16.419316   22.153449 N.4        1 MOL1        -0.5940
       2    H1      21.884156   16.147127   21.228465 H          1 MOL1         0.3649
       3    H2      21.304341   15.552877   22.651015 H          1 MOL1         0.3649
       4    H3      22.319057   16.850831   22.654973 H          1 MOL1         0.3649
       5    C1      20.344143   17.349723   22.057345 C.3        1 MOL1         0.0207
       6    H4      20.007508   17.566152   23.072813 H          1 MOL1         0.0950
       7    H5      19.542581   16.816403   21.539205 H          1 MOL1         0.0950
       8    C2      20.660663   18.658769   21.307679 C.3        1 MOL1        -0.1415
       9    H6      21.496018   19.183269   21.790321 H          1 MOL1         0.0976
      10    H7      21.001063   18.398108   20.296638 H          1 MOL1         0.0976
      11    C3      19.437069   19.602102   21.187656 C.3        1 MOL1        -0.1375
      12    H8      18.523262   19.014242   21.023402 H          1 MOL1         0.0976
      13    H9      19.563950   20.212418   20.282717 H          1 MOL1         0.0976
      14    C4      19.239354   20.572504   22.381265 C.3        1 MOL1        -0.1375
      15    H10     20.117578   21.226785   22.470318 H          1 MOL1         0.0976
      16    H11     18.391457   21.231596   22.148652 H          1 MOL1         0.0976
      17    C5      18.976787   19.879469   23.738197 C.3        1 MOL1        -0.1350
      18    H12     19.876172   19.340435   24.062947 H          1 MOL1         0.0976
      19    H13     18.172908   19.138006   23.630075 H          1 MOL1         0.0976
      20    C6      18.590213   20.897714   24.832006 C.3        1 MOL1        -0.2365
      21    H14     17.670136   21.434110   24.565640 H          1 MOL1         0.0987
      22    H15     19.386874   21.638261   24.980906 H          1 MOL1         0.0987
      23    H16     18.418248   20.390571   25.790267 H          1 MOL1         0.0987
@<TRIPOS>BOND
    1     1     2    1
    2     1     3    1
    3     1     4    1
    4     1     5    1
    5     5     6    1
    6     5     7    1
    7     5     8    1
    8     8     9    1
    9     8    10    1
   10     8    11    1
   11    11    12    1
   12    11    13    1
   13    11    14    1
   14    14    15    1
   15    14    16    1
   16    14    17    1
   17    17    18    1
   18    17    19    1
   19    17    20    1
   20    20    21    1
   21    20    22    1
   22    20    23    1
@<TRIPOS>SUBSTRUCTURE
       1 MOL1            1 RESIDUE      1      MOL     
@<SCITEGIC>MOL_PROPERTY
VConf Rank
SciTegic.value.IntegerValue
873

@<SCITEGIC>MOL_PROPERTY
Conf_Id
SciTegic.value.IntegerValue
93

@<SCITEGIC>MOL_PROPERTY
Delta U+W
SciTegic.value.DoubleValue
2.589

@<SCITEGIC>MOL_PROPERTY
U+W
SciTegic.value.DoubleValue
-5.793

@<SCITEGIC>MOL_PROPERTY
Grad RMS
SciTegic.value.DoubleValue
0.000000

@<SCITEGIC>MOL_PROPERTY
U
SciTegic.value.DoubleValue
50.122

@<SCITEGIC>MOL_PROPERTY
W
SciTegic.value.DoubleValue
-55.915

@<SCITEGIC>MOL_PROPERTY
W(PB)
SciTegic.value.DoubleValue
-58.031

@<SCITEGIC>MOL_PROPERTY
W(SA)
SciTegic.value.DoubleValue
2.115

@<SCITEGIC>MOL_PROPERTY
Valence
SciTegic.value.DoubleValue
4.132

@<SCITEGIC>MOL_PROPERTY
Coulomb
SciTegic.value.DoubleValue
45.536

@<SCITEGIC>MOL_PROPERTY
VdW
SciTegic.value.DoubleValue
0.454

@<SCITEGIC>MOL_PROPERTY
VdW6
SciTegic.value.DoubleValue
-6.262

@<SCITEGIC>MOL_PROPERTY
VdW12
SciTegic.value.DoubleValue
6.715

@<SCITEGIC>MOL_PROPERTY
Bond
SciTegic.value.DoubleValue
0.182

@<SCITEGIC>MOL_PROPERTY
Angle
SciTegic.value.DoubleValue
1.157

@<SCITEGIC>MOL_PROPERTY
Pdih
SciTegic.value.DoubleValue
2.794

@<SCITEGIC>MOL_PROPERTY
Idih
SciTegic.value.DoubleValue
0.000

@<SCITEGIC>MOL_PROPERTY
Tether
SciTegic.value.DoubleValue
0.000

@<TRIPOS>MOLECULE
guest-2_confgen4.mol2 : confsearch ligand conformer 874
          23          22           1
SMALL
USER_CHARGES
 
@<TRIPOS>ATOM
       1    N1      20.387729   20.987946   20.297262 N.4        1 MOL1        -0.5940
       2    H1      21.027035   21.479753   20.929853 H          1 MOL1         0.3649
       3    H2      19.693582   21.674055   19.981961 H          1 MOL1         0.3649
       4    H3      20.931372   20.714255   19.472414 H          1 MOL1         0.3649
       5    C1      19.736584   19.794597   20.966271 C.3        1 MOL1         0.0207
       6    H4      19.050875   19.338902   20.246865 H          1 MOL1         0.0950
       7    H5      19.149230   20.164181   21.808746 H          1 MOL1         0.0950
       8    C2      20.755745   18.741933   21.444804 C.3        1 MOL1        -0.1415
       9    H6      21.328794   18.401718   20.571942 H          1 MOL1         0.0976
      10    H7      21.480403   19.196757   22.133186 H          1 MOL1         0.0976
      11    C3      20.091018   17.509481   22.108630 C.3        1 MOL1        -0.1375
      12    H8      20.754521   16.645296   21.965640 H          1 MOL1         0.0976
      13    H9      19.158297   17.257307   21.585138 H          1 MOL1         0.0976
      14    C4      19.827239   17.648721   23.630637 C.3        1 MOL1        -0.1375
      15    H10     19.423939   16.694109   23.996022 H          1 MOL1         0.0976
      16    H11     20.781235   17.796534   24.155361 H          1 MOL1         0.0976
      17    C5      18.850204   18.784090   24.013838 C.3        1 MOL1        -0.1350
      18    H12     17.935679   18.710542   23.408932 H          1 MOL1         0.0976
      19    H13     19.306541   19.758805   23.797960 H          1 MOL1         0.0976
      20    C6      18.478819   18.734220   25.511258 C.3        1 MOL1        -0.2365
      21    H14     17.794022   19.552797   25.768192 H          1 MOL1         0.0987
      22    H15     19.371704   18.831159   26.142612 H          1 MOL1         0.0987
      23    H16     17.982130   17.788442   25.764276 H          1 MOL1         0.0987
@<TRIPOS>BOND
    1     1     2    1
    2     1     3    1
    3     1     4    1
    4     1     5    1
    5     5     6    1
    6     5     7    1
    7     5     8    1
    8     8     9    1
    9     8    10    1
   10     8    11    1
   11    11    12    1
   12    11    13    1
   13    11    14    1
   14    14    15    1
   15    14    16    1
   16    14    17    1
   17    17    18    1
   18    17    19    1
   19    17    20    1
   20    20    21    1
   21    20    22    1
   22    20    23    1
@<TRIPOS>SUBSTRUCTURE
       1 MOL1            1 RESIDUE      1      MOL     
@<SCITEGIC>MOL_PROPERTY
VConf Rank
SciTegic.value.IntegerValue
874

@<SCITEGIC>MOL_PROPERTY
Conf_Id
SciTegic.value.IntegerValue
70

@<SCITEGIC>MOL_PROPERTY
Delta U+W
SciTegic.value.DoubleValue
2.599

@<SCITEGIC>MOL_PROPERTY
U+W
SciTegic.value.DoubleValue
-5.783

@<SCITEGIC>MOL_PROPERTY
Grad RMS
SciTegic.value.DoubleValue
0.000000

@<SCITEGIC>MOL_PROPERTY
U
SciTegic.value.DoubleValue
50.122

@<SCITEGIC>MOL_PROPERTY
W
SciTegic.value.DoubleValue
-55.906

@<SCITEGIC>MOL_PROPERTY
W(PB)
SciTegic.value.DoubleValue
-58.010

@<SCITEGIC>MOL_PROPERTY
W(SA)
SciTegic.value.DoubleValue
2.105

@<SCITEGIC>MOL_PROPERTY
Valence
SciTegic.value.DoubleValue
4.132

@<SCITEGIC>MOL_PROPERTY
Coulomb
SciTegic.value.DoubleValue
45.536

@<SCITEGIC>MOL_PROPERTY
VdW
SciTegic.value.DoubleValue
0.454

@<SCITEGIC>MOL_PROPERTY
VdW6
SciTegic.value.DoubleValue
-6.262

@<SCITEGIC>MOL_PROPERTY
VdW12
SciTegic.value.DoubleValue
6.715

@<SCITEGIC>MOL_PROPERTY
Bond
SciTegic.value.DoubleValue
0.182

@<SCITEGIC>MOL_PROPERTY
Angle
SciTegic.value.DoubleValue
1.157

@<SCITEGIC>MOL_PROPERTY
Pdih
SciTegic.value.DoubleValue
2.794

@<SCITEGIC>MOL_PROPERTY
Idih
SciTegic.value.DoubleValue
0.000

@<SCITEGIC>MOL_PROPERTY
Tether
SciTegic.value.DoubleValue
0.000

@<TRIPOS>MOLECULE
guest-2_confgen4.mol2 : confsearch ligand conformer 875
          23          22           1
SMALL
USER_CHARGES
 
@<TRIPOS>ATOM
       1    N1      16.982538   18.739659   22.695970 N.4        1 MOL1        -0.5940
       2    H1      16.336290   19.522316   22.838518 H          1 MOL1         0.3649
       3    H2      16.438896   17.877767   22.811555 H          1 MOL1         0.3649
       4    H3      17.288933   18.773995   21.719032 H          1 MOL1         0.3649
       5    C1      18.156896   18.798154   23.652890 C.3        1 MOL1         0.0207
       6    H4      18.786106   17.922674   23.472405 H          1 MOL1         0.0950
       7    H5      17.761627   18.728428   24.669943 H          1 MOL1         0.0950
       8    C2      19.000563   20.081822   23.517959 C.3        1 MOL1        -0.1415
       9    H6      18.367165   20.952091   23.735108 H          1 MOL1         0.0976
      10    H7      19.778065   20.077703   24.292484 H          1 MOL1         0.0976
      11    C3      19.654254   20.262714   22.122620 C.3        1 MOL1        -0.1375
      12    H8      20.264009   21.176655   22.133276 H          1 MOL1         0.0976
      13    H9      18.869123   20.439124   21.375170 H          1 MOL1         0.0976
      14    C4      20.532990   19.073968   21.654104 C.3        1 MOL1        -0.1375
      15    H10     19.918497   18.170232   21.546632 H          1 MOL1         0.0976
      16    H11     20.915079   19.300962   20.649206 H          1 MOL1         0.0976
      17    C5      21.728474   18.782150   22.591415 C.3        1 MOL1        -0.1350
      18    H12     21.367183   18.483316   23.584444 H          1 MOL1         0.0976
      19    H13     22.322884   19.696026   22.730049 H          1 MOL1         0.0976
      20    C6      22.632146   17.663842   22.030035 C.3        1 MOL1        -0.2365
      21    H14     23.473005   17.468013   22.707989 H          1 MOL1         0.0987
      22    H15     23.046132   17.943629   21.052524 H          1 MOL1         0.0987
      23    H16     22.071960   16.727516   21.908836 H          1 MOL1         0.0987
@<TRIPOS>BOND
    1     1     2    1
    2     1     3    1
    3     1     4    1
    4     1     5    1
    5     5     6    1
    6     5     7    1
    7     5     8    1
    8     8     9    1
    9     8    10    1
   10     8    11    1
   11    11    12    1
   12    11    13    1
   13    11    14    1
   14    14    15    1
   15    14    16    1
   16    14    17    1
   17    17    18    1
   18    17    19    1
   19    17    20    1
   20    20    21    1
   21    20    22    1
   22    20    23    1
@<TRIPOS>SUBSTRUCTURE
       1 MOL1            1 RESIDUE      1      MOL     
@<SCITEGIC>MOL_PROPERTY
VConf Rank
SciTegic.value.IntegerValue
875

@<SCITEGIC>MOL_PROPERTY
Conf_Id
SciTegic.value.IntegerValue
72

@<SCITEGIC>MOL_PROPERTY
Delta U+W
SciTegic.value.DoubleValue
1.051

@<SCITEGIC>MOL_PROPERTY
U+W
SciTegic.value.DoubleValue
-7.331

@<SCITEGIC>MOL_PROPERTY
Grad RMS
SciTegic.value.DoubleValue
0.000000

@<SCITEGIC>MOL_PROPERTY
U
SciTegic.value.DoubleValue
48.590

@<SCITEGIC>MOL_PROPERTY
W
SciTegic.value.DoubleValue
-55.922

@<SCITEGIC>MOL_PROPERTY
W(PB)
SciTegic.value.DoubleValue
-58.012

@<SCITEGIC>MOL_PROPERTY
W(SA)
SciTegic.value.DoubleValue
2.090

@<SCITEGIC>MOL_PROPERTY
Valence
SciTegic.value.DoubleValue
2.601

@<SCITEGIC>MOL_PROPERTY
Coulomb
SciTegic.value.DoubleValue
45.520

@<SCITEGIC>MOL_PROPERTY
VdW
SciTegic.value.DoubleValue
0.469

@<SCITEGIC>MOL_PROPERTY
VdW6
SciTegic.value.DoubleValue
-6.867

@<SCITEGIC>MOL_PROPERTY
VdW12
SciTegic.value.DoubleValue
7.336

@<SCITEGIC>MOL_PROPERTY
Bond
SciTegic.value.DoubleValue
0.205

@<SCITEGIC>MOL_PROPERTY
Angle
SciTegic.value.DoubleValue
0.962

@<SCITEGIC>MOL_PROPERTY
Pdih
SciTegic.value.DoubleValue
1.434

@<SCITEGIC>MOL_PROPERTY
Idih
SciTegic.value.DoubleValue
0.000

@<SCITEGIC>MOL_PROPERTY
Tether
SciTegic.value.DoubleValue
0.000

@<TRIPOS>MOLECULE
guest-2_confgen4.mol2 : confsearch ligand conformer 876
          23          22           1
SMALL
USER_CHARGES
 
@<TRIPOS>ATOM
       1    N1      18.352493   16.227305   23.218692 N.4        1 MOL1        -0.5940
       2    H1      17.395787   16.030962   23.531934 H          1 MOL1         0.3649
       3    H2      18.956360   15.515711   23.642675 H          1 MOL1         0.3649
       4    H3      18.371721   16.074327   22.205336 H          1 MOL1         0.3649
       5    C1      18.788532   17.630725   23.587368 C.3        1 MOL1         0.0207
       6    H4      18.716675   17.732686   24.673549 H          1 MOL1         0.0950
       7    H5      18.086628   18.332003   23.128594 H          1 MOL1         0.0950
       8    C2      20.222452   17.957476   23.130285 C.3        1 MOL1        -0.1415
       9    H6      20.914325   17.224927   23.566650 H          1 MOL1         0.0976
      10    H7      20.299127   17.842869   22.041517 H          1 MOL1         0.0976
      11    C3      20.672804   19.379879   23.546235 C.3        1 MOL1        -0.1375
      12    H8      21.706265   19.541391   23.211838 H          1 MOL1         0.0976
      13    H9      20.704918   19.435123   24.643153 H          1 MOL1         0.0976
      14    C4      19.771298   20.528907   23.019183 C.3        1 MOL1        -0.1375
      15    H10     18.780102   20.458903   23.487084 H          1 MOL1         0.0976
      16    H11     20.190074   21.486464   23.358124 H          1 MOL1         0.0976
      17    C5      19.596701   20.576900   21.479888 C.3        1 MOL1        -0.1350
      18    H12     18.933801   21.416655   21.228760 H          1 MOL1         0.0976
      19    H13     19.082572   19.672675   21.127518 H          1 MOL1         0.0976
      20    C6      20.929545   20.750232   20.716999 C.3        1 MOL1        -0.2365
      21    H14     21.468119   21.642410   21.061811 H          1 MOL1         0.0987
      22    H15     20.744890   20.864305   19.641019 H          1 MOL1         0.0987
      23    H16     21.584977   19.880508   20.849460 H          1 MOL1         0.0987
@<TRIPOS>BOND
    1     1     2    1
    2     1     3    1
    3     1     4    1
    4     1     5    1
    5     5     6    1
    6     5     7    1
    7     5     8    1
    8     8     9    1
    9     8    10    1
   10     8    11    1
   11    11    12    1
   12    11    13    1
   13    11    14    1
   14    14    15    1
   15    14    16    1
   16    14    17    1
   17    17    18    1
   18    17    19    1
   19    17    20    1
   20    20    21    1
   21    20    22    1
   22    20    23    1
@<TRIPOS>SUBSTRUCTURE
       1 MOL1            1 RESIDUE      1      MOL     
@<SCITEGIC>MOL_PROPERTY
VConf Rank
SciTegic.value.IntegerValue
876

@<SCITEGIC>MOL_PROPERTY
Conf_Id
SciTegic.value.IntegerValue
26

@<SCITEGIC>MOL_PROPERTY
Delta U+W
SciTegic.value.DoubleValue
1.076

@<SCITEGIC>MOL_PROPERTY
U+W
SciTegic.value.DoubleValue
-7.306

@<SCITEGIC>MOL_PROPERTY
Grad RMS
SciTegic.value.DoubleValue
0.000000

@<SCITEGIC>MOL_PROPERTY
U
SciTegic.value.DoubleValue
48.641

@<SCITEGIC>MOL_PROPERTY
W
SciTegic.value.DoubleValue
-55.947

@<SCITEGIC>MOL_PROPERTY
W(PB)
SciTegic.value.DoubleValue
-58.031

@<SCITEGIC>MOL_PROPERTY
W(SA)
SciTegic.value.DoubleValue
2.084

@<SCITEGIC>MOL_PROPERTY
Valence
SciTegic.value.DoubleValue
2.922

@<SCITEGIC>MOL_PROPERTY
Coulomb
SciTegic.value.DoubleValue
45.269

@<SCITEGIC>MOL_PROPERTY
VdW
SciTegic.value.DoubleValue
0.449

@<SCITEGIC>MOL_PROPERTY
VdW6
SciTegic.value.DoubleValue
-7.045

@<SCITEGIC>MOL_PROPERTY
VdW12
SciTegic.value.DoubleValue
7.494

@<SCITEGIC>MOL_PROPERTY
Bond
SciTegic.value.DoubleValue
0.220

@<SCITEGIC>MOL_PROPERTY
Angle
SciTegic.value.DoubleValue
1.205

@<SCITEGIC>MOL_PROPERTY
Pdih
SciTegic.value.DoubleValue
1.497

@<SCITEGIC>MOL_PROPERTY
Idih
SciTegic.value.DoubleValue
0.000

@<SCITEGIC>MOL_PROPERTY
Tether
SciTegic.value.DoubleValue
0.000

@<TRIPOS>MOLECULE
guest-2_confgen4.mol2 : confsearch ligand conformer 877
          23          22           1
SMALL
USER_CHARGES
 
@<TRIPOS>ATOM
       1    N1      19.711203   16.259918   24.146740 N.4        1 MOL1        -0.5940
       2    H1      18.804125   16.031125   24.565843 H          1 MOL1         0.3649
       3    H2      20.427471   15.795334   24.715141 H          1 MOL1         0.3649
       4    H3      19.734763   15.821333   23.220592 H          1 MOL1         0.3649
       5    C1      19.936709   17.756213   24.070042 C.3        1 MOL1         0.0207
       6    H4      20.929092   17.924966   23.643860 H          1 MOL1         0.0950
       7    H5      19.927772   18.152119   25.089124 H          1 MOL1         0.0950
       8    C2      18.876880   18.484202   23.222331 C.3        1 MOL1        -0.1415
       9    H6      18.875968   18.078593   22.202570 H          1 MOL1         0.0976
      10    H7      17.881312   18.277626   23.636938 H          1 MOL1         0.0976
      11    C3      19.093476   20.017354   23.182407 C.3        1 MOL1        -0.1375
      12    H8      18.970267   20.419484   24.197505 H          1 MOL1         0.0976
      13    H9      18.295982   20.477126   22.583605 H          1 MOL1         0.0976
      14    C4      20.476221   20.466003   22.636982 C.3        1 MOL1        -0.1375
      15    H10     20.513914   21.564068   22.638206 H          1 MOL1         0.0976
      16    H11     21.264227   20.143547   23.330791 H          1 MOL1         0.0976
      17    C5      20.821132   19.955866   21.214654 C.3        1 MOL1        -0.1350
      18    H12     20.893522   18.860025   21.211297 H          1 MOL1         0.0976
      19    H13     21.820505   20.323875   20.943518 H          1 MOL1         0.0976
      20    C6      19.812821   20.415591   20.137397 C.3        1 MOL1        -0.2365
      21    H14     18.819207   19.981816   20.305113 H          1 MOL1         0.0987
      22    H15     20.146296   20.102259   19.139671 H          1 MOL1         0.0987
      23    H16     19.714113   21.508821   20.130610 H          1 MOL1         0.0987
@<TRIPOS>BOND
    1     1     2    1
    2     1     3    1
    3     1     4    1
    4     1     5    1
    5     5     6    1
    6     5     7    1
    7     5     8    1
    8     8     9    1
    9     8    10    1
   10     8    11    1
   11    11    12    1
   12    11    13    1
   13    11    14    1
   14    14    15    1
   15    14    16    1
   16    14    17    1
   17    17    18    1
   18    17    19    1
   19    17    20    1
   20    20    21    1
   21    20    22    1
   22    20    23    1
@<TRIPOS>SUBSTRUCTURE
       1 MOL1            1 RESIDUE      1      MOL     
@<SCITEGIC>MOL_PROPERTY
VConf Rank
SciTegic.value.IntegerValue
877

@<SCITEGIC>MOL_PROPERTY
Conf_Id
SciTegic.value.IntegerValue
90

@<SCITEGIC>MOL_PROPERTY
Delta U+W
SciTegic.value.DoubleValue
1.131

@<SCITEGIC>MOL_PROPERTY
U+W
SciTegic.value.DoubleValue
-7.251

@<SCITEGIC>MOL_PROPERTY
Grad RMS
SciTegic.value.DoubleValue
0.000000

@<SCITEGIC>MOL_PROPERTY
U
SciTegic.value.DoubleValue
48.641

@<SCITEGIC>MOL_PROPERTY
W
SciTegic.value.DoubleValue
-55.892

@<SCITEGIC>MOL_PROPERTY
W(PB)
SciTegic.value.DoubleValue
-57.962

@<SCITEGIC>MOL_PROPERTY
W(SA)
SciTegic.value.DoubleValue
2.070

@<SCITEGIC>MOL_PROPERTY
Valence
SciTegic.value.DoubleValue
2.922

@<SCITEGIC>MOL_PROPERTY
Coulomb
SciTegic.value.DoubleValue
45.269

@<SCITEGIC>MOL_PROPERTY
VdW
SciTegic.value.DoubleValue
0.450

@<SCITEGIC>MOL_PROPERTY
VdW6
SciTegic.value.DoubleValue
-7.045

@<SCITEGIC>MOL_PROPERTY
VdW12
SciTegic.value.DoubleValue
7.495

@<SCITEGIC>MOL_PROPERTY
Bond
SciTegic.value.DoubleValue
0.220

@<SCITEGIC>MOL_PROPERTY
Angle
SciTegic.value.DoubleValue
1.205

@<SCITEGIC>MOL_PROPERTY
Pdih
SciTegic.value.DoubleValue
1.497

@<SCITEGIC>MOL_PROPERTY
Idih
SciTegic.value.DoubleValue
0.000

@<SCITEGIC>MOL_PROPERTY
Tether
SciTegic.value.DoubleValue
0.000

@<TRIPOS>MOLECULE
guest-2_confgen4.mol2 : confsearch ligand conformer 878
          23          22           1
SMALL
USER_CHARGES
 
@<TRIPOS>ATOM
       1    N1      21.624233   20.269827   21.198047 N.4        1 MOL1        -0.5940
       2    H1      22.455740   20.832414   21.407672 H          1 MOL1         0.3649
       3    H2      20.845878   20.673510   21.727977 H          1 MOL1         0.3649
       4    H3      21.415961   20.403018   20.203333 H          1 MOL1         0.3649
       5    C1      21.833113   18.807335   21.538462 C.3        1 MOL1         0.0207
       6    H4      22.080648   18.738666   22.600878 H          1 MOL1         0.0950
       7    H5      22.694396   18.451961   20.966255 H          1 MOL1         0.0950
       8    C2      20.611230   17.918402   21.229127 C.3        1 MOL1        -0.1415
       9    H6      20.400999   17.958052   20.152084 H          1 MOL1         0.0976
      10    H7      20.869808   16.874667   21.451831 H          1 MOL1         0.0976
      11    C3      19.334132   18.307529   22.015373 C.3        1 MOL1        -0.1375
      12    H8      18.520514   17.631797   21.717845 H          1 MOL1         0.0976
      13    H9      19.016746   19.316119   21.721916 H          1 MOL1         0.0976
      14    C4      19.520975   18.231848   23.551875 C.3        1 MOL1        -0.1375
      15    H10     19.919861   17.242697   23.815955 H          1 MOL1         0.0976
      16    H11     20.270002   18.965145   23.879237 H          1 MOL1         0.0976
      17    C5      18.209410   18.459733   24.341341 C.3        1 MOL1        -0.1350
      18    H12     18.405093   18.284611   25.408523 H          1 MOL1         0.0976
      19    H13     17.459629   17.714713   24.040420 H          1 MOL1         0.0976
      20    C6      17.628476   19.881590   24.168210 C.3        1 MOL1        -0.2365
      21    H14     18.368467   20.646260   24.437707 H          1 MOL1         0.0987
      22    H15     16.752775   20.019820   24.815494 H          1 MOL1         0.0987
      23    H16     17.306161   20.062690   23.135385 H          1 MOL1         0.0987
@<TRIPOS>BOND
    1     1     2    1
    2     1     3    1
    3     1     4    1
    4     1     5    1
    5     5     6    1
    6     5     7    1
    7     5     8    1
    8     8     9    1
    9     8    10    1
   10     8    11    1
   11    11    12    1
   12    11    13    1
   13    11    14    1
   14    14    15    1
   15    14    16    1
   16    14    17    1
   17    17    18    1
   18    17    19    1
   19    17    20    1
   20    20    21    1
   21    20    22    1
   22    20    23    1
@<TRIPOS>SUBSTRUCTURE
       1 MOL1            1 RESIDUE      1      MOL     
@<SCITEGIC>MOL_PROPERTY
VConf Rank
SciTegic.value.IntegerValue
878

@<SCITEGIC>MOL_PROPERTY
Conf_Id
SciTegic.value.IntegerValue
85

@<SCITEGIC>MOL_PROPERTY
Delta U+W
SciTegic.value.DoubleValue
1.193

@<SCITEGIC>MOL_PROPERTY
U+W
SciTegic.value.DoubleValue
-7.189

@<SCITEGIC>MOL_PROPERTY
Grad RMS
SciTegic.value.DoubleValue
0.000000

@<SCITEGIC>MOL_PROPERTY
U
SciTegic.value.DoubleValue
48.775

@<SCITEGIC>MOL_PROPERTY
W
SciTegic.value.DoubleValue
-55.965

@<SCITEGIC>MOL_PROPERTY
W(PB)
SciTegic.value.DoubleValue
-58.038

@<SCITEGIC>MOL_PROPERTY
W(SA)
SciTegic.value.DoubleValue
2.073

@<SCITEGIC>MOL_PROPERTY
Valence
SciTegic.value.DoubleValue
2.602

@<SCITEGIC>MOL_PROPERTY
Coulomb
SciTegic.value.DoubleValue
45.581

@<SCITEGIC>MOL_PROPERTY
VdW
SciTegic.value.DoubleValue
0.592

@<SCITEGIC>MOL_PROPERTY
VdW6
SciTegic.value.DoubleValue
-6.616

@<SCITEGIC>MOL_PROPERTY
VdW12
SciTegic.value.DoubleValue
7.208

@<SCITEGIC>MOL_PROPERTY
Bond
SciTegic.value.DoubleValue
0.196

@<SCITEGIC>MOL_PROPERTY
Angle
SciTegic.value.DoubleValue
0.832

@<SCITEGIC>MOL_PROPERTY
Pdih
SciTegic.value.DoubleValue
1.574

@<SCITEGIC>MOL_PROPERTY
Idih
SciTegic.value.DoubleValue
0.000

@<SCITEGIC>MOL_PROPERTY
Tether
SciTegic.value.DoubleValue
0.000

@<TRIPOS>MOLECULE
guest-2_confgen4.mol2 : confsearch ligand conformer 879
          23          22           1
SMALL
USER_CHARGES
 
@<TRIPOS>ATOM
       1    N1      21.289629   20.285436   22.629130 N.4        1 MOL1        -0.5940
       2    H1      20.298282   20.322829   22.371247 H          1 MOL1         0.3649
       3    H2      21.816474   20.773854   21.896883 H          1 MOL1         0.3649
       4    H3      21.402334   20.828943   23.491053 H          1 MOL1         0.3649
       5    C1      21.761140   18.854623   22.802666 C.3        1 MOL1         0.0207
       6    H4      22.818813   18.897975   23.076451 H          1 MOL1         0.0950
       7    H5      21.680481   18.340142   21.841452 H          1 MOL1         0.0950
       8    C2      20.993103   18.067935   23.884313 C.3        1 MOL1        -0.1415
       9    H6      21.632019   17.235748   24.208488 H          1 MOL1         0.0976
      10    H7      20.851793   18.698845   24.771926 H          1 MOL1         0.0976
      11    C3      19.633456   17.472081   23.429970 C.3        1 MOL1        -0.1375
      12    H8      19.228310   16.897359   24.274397 H          1 MOL1         0.0976
      13    H9      19.794648   16.739406   22.627054 H          1 MOL1         0.0976
      14    C4      18.565306   18.509870   22.999493 C.3        1 MOL1        -0.1375
      15    H10     17.578293   18.147908   23.319691 H          1 MOL1         0.0976
      16    H11     18.719840   19.456836   23.533441 H          1 MOL1         0.0976
      17    C5      18.515227   18.733659   21.468314 C.3        1 MOL1        -0.1350
      18    H12     18.193358   17.804614   20.976977 H          1 MOL1         0.0976
      19    H13     19.511537   18.956845   21.068525 H          1 MOL1         0.0976
      20    C6      17.542783   19.870537   21.089253 C.3        1 MOL1        -0.2365
      21    H14     16.523783   19.647441   21.431651 H          1 MOL1         0.0987
      22    H15     17.509124   20.004561   20.000178 H          1 MOL1         0.0987
      23    H16     17.851073   20.824390   21.536340 H          1 MOL1         0.0987
@<TRIPOS>BOND
    1     1     2    1
    2     1     3    1
    3     1     4    1
    4     1     5    1
    5     5     6    1
    6     5     7    1
    7     5     8    1
    8     8     9    1
    9     8    10    1
   10     8    11    1
   11    11    12    1
   12    11    13    1
   13    11    14    1
   14    14    15    1
   15    14    16    1
   16    14    17    1
   17    17    18    1
   18    17    19    1
   19    17    20    1
   20    20    21    1
   21    20    22    1
   22    20    23    1
@<TRIPOS>SUBSTRUCTURE
       1 MOL1            1 RESIDUE      1      MOL     
@<SCITEGIC>MOL_PROPERTY
VConf Rank
SciTegic.value.IntegerValue
879

@<SCITEGIC>MOL_PROPERTY
Conf_Id
SciTegic.value.IntegerValue
82

@<SCITEGIC>MOL_PROPERTY
Delta U+W
SciTegic.value.DoubleValue
5.994

@<SCITEGIC>MOL_PROPERTY
U+W
SciTegic.value.DoubleValue
-2.388

@<SCITEGIC>MOL_PROPERTY
Grad RMS
SciTegic.value.DoubleValue
0.000000

@<SCITEGIC>MOL_PROPERTY
U
SciTegic.value.DoubleValue
52.836

@<SCITEGIC>MOL_PROPERTY
W
SciTegic.value.DoubleValue
-55.224

@<SCITEGIC>MOL_PROPERTY
W(PB)
SciTegic.value.DoubleValue
-57.261

@<SCITEGIC>MOL_PROPERTY
W(SA)
SciTegic.value.DoubleValue
2.037

@<SCITEGIC>MOL_PROPERTY
Valence
SciTegic.value.DoubleValue
5.785

@<SCITEGIC>MOL_PROPERTY
Coulomb
SciTegic.value.DoubleValue
46.744

@<SCITEGIC>MOL_PROPERTY
VdW
SciTegic.value.DoubleValue
0.307

@<SCITEGIC>MOL_PROPERTY
VdW6
SciTegic.value.DoubleValue
-7.672

@<SCITEGIC>MOL_PROPERTY
VdW12
SciTegic.value.DoubleValue
7.979

@<SCITEGIC>MOL_PROPERTY
Bond
SciTegic.value.DoubleValue
0.217

@<SCITEGIC>MOL_PROPERTY
Angle
SciTegic.value.DoubleValue
1.470

@<SCITEGIC>MOL_PROPERTY
Pdih
SciTegic.value.DoubleValue
4.098

@<SCITEGIC>MOL_PROPERTY
Idih
SciTegic.value.DoubleValue
0.000

@<SCITEGIC>MOL_PROPERTY
Tether
SciTegic.value.DoubleValue
0.000

@<TRIPOS>MOLECULE
guest-2_confgen4.mol2 : confsearch ligand conformer 880
          23          22           1
SMALL
USER_CHARGES
 
@<TRIPOS>ATOM
       1    N1      20.891279   17.249189   22.097265 N.4        1 MOL1        -0.5940
       2    H1      20.925365   16.515517   22.812512 H          1 MOL1         0.3649
       3    H2      21.134035   16.807119   21.203987 H          1 MOL1         0.3649
       4    H3      19.918591   17.565318   22.029329 H          1 MOL1         0.3649
       5    C1      21.823327   18.398730   22.428167 C.3        1 MOL1         0.0207
       6    H4      21.797441   19.118609   21.605834 H          1 MOL1         0.0950
       7    H5      22.833645   17.984511   22.484642 H          1 MOL1         0.0950
       8    C2      21.495648   19.109233   23.757276 C.3        1 MOL1        -0.1415
       9    H6      21.266456   18.363441   24.530022 H          1 MOL1         0.0976
      10    H7      22.406905   19.619662   24.096261 H          1 MOL1         0.0976
      11    C3      20.361129   20.166205   23.681160 C.3        1 MOL1        -0.1375
      12    H8      20.652797   20.981356   23.004456 H          1 MOL1         0.0976
      13    H9      20.274483   20.626949   24.674996 H          1 MOL1         0.0976
      14    C4      18.967317   19.615599   23.284445 C.3        1 MOL1        -0.1375
      15    H10     18.867877   18.569690   23.603681 H          1 MOL1         0.0976
      16    H11     18.201064   20.169506   23.844607 H          1 MOL1         0.0976
      17    C5      18.657530   19.770948   21.775471 C.3        1 MOL1        -0.1350
      18    H12     19.468180   19.361363   21.161167 H          1 MOL1         0.0976
      19    H13     18.599470   20.839833   21.525973 H          1 MOL1         0.0976
      20    C6      17.327368   19.088288   21.392757 C.3        1 MOL1        -0.2365
      21    H14     17.359151   18.010422   21.597599 H          1 MOL1         0.0987
      22    H15     17.117029   19.221653   20.323574 H          1 MOL1         0.0987
      23    H16     16.488353   19.517447   21.956002 H          1 MOL1         0.0987
@<TRIPOS>BOND
    1     1     2    1
    2     1     3    1
    3     1     4    1
    4     1     5    1
    5     5     6    1
    6     5     7    1
    7     5     8    1
    8     8     9    1
    9     8    10    1
   10     8    11    1
   11    11    12    1
   12    11    13    1
   13    11    14    1
   14    14    15    1
   15    14    16    1
   16    14    17    1
   17    17    18    1
   18    17    19    1
   19    17    20    1
   20    20    21    1
   21    20    22    1
   22    20    23    1
@<TRIPOS>SUBSTRUCTURE
       1 MOL1            1 RESIDUE      1      MOL     
@<SCITEGIC>MOL_PROPERTY
VConf Rank
SciTegic.value.IntegerValue
880

@<SCITEGIC>MOL_PROPERTY
Conf_Id
SciTegic.value.IntegerValue
5

@<SCITEGIC>MOL_PROPERTY
Delta U+W
SciTegic.value.DoubleValue
6.087

@<SCITEGIC>MOL_PROPERTY
U+W
SciTegic.value.DoubleValue
-2.295

@<SCITEGIC>MOL_PROPERTY
Grad RMS
SciTegic.value.DoubleValue
0.000000

@<SCITEGIC>MOL_PROPERTY
U
SciTegic.value.DoubleValue
52.836

@<SCITEGIC>MOL_PROPERTY
W
SciTegic.value.DoubleValue
-55.131

@<SCITEGIC>MOL_PROPERTY
W(PB)
SciTegic.value.DoubleValue
-57.202

@<SCITEGIC>MOL_PROPERTY
W(SA)
SciTegic.value.DoubleValue
2.071

@<SCITEGIC>MOL_PROPERTY
Valence
SciTegic.value.DoubleValue
5.785

@<SCITEGIC>MOL_PROPERTY
Coulomb
SciTegic.value.DoubleValue
46.744

@<SCITEGIC>MOL_PROPERTY
VdW
SciTegic.value.DoubleValue
0.307

@<SCITEGIC>MOL_PROPERTY
VdW6
SciTegic.value.DoubleValue
-7.672

@<SCITEGIC>MOL_PROPERTY
VdW12
SciTegic.value.DoubleValue
7.980

@<SCITEGIC>MOL_PROPERTY
Bond
SciTegic.value.DoubleValue
0.217

@<SCITEGIC>MOL_PROPERTY
Angle
SciTegic.value.DoubleValue
1.470

@<SCITEGIC>MOL_PROPERTY
Pdih
SciTegic.value.DoubleValue
4.098

@<SCITEGIC>MOL_PROPERTY
Idih
SciTegic.value.DoubleValue
0.000

@<SCITEGIC>MOL_PROPERTY
Tether
SciTegic.value.DoubleValue
0.000

@<TRIPOS>MOLECULE
guest-2_confgen4.mol2 : confsearch ligand conformer 881
          23          22           1
SMALL
USER_CHARGES
 
@<TRIPOS>ATOM
       1    N1      21.426003   22.108452   21.047798 N.4        1 MOL1        -0.5940
       2    H1      21.691496   22.552589   21.932750 H          1 MOL1         0.3649
       3    H2      21.212311   22.863914   20.387717 H          1 MOL1         0.3649
       4    H3      22.257661   21.627279   20.690444 H          1 MOL1         0.3649
       5    C1      20.254832   21.162386   21.218718 C.3        1 MOL1         0.0207
       6    H4      20.007973   20.750036   20.236616 H          1 MOL1         0.0950
       7    H5      19.399410   21.744643   21.571884 H          1 MOL1         0.0950
       8    C2      20.543550   20.016053   22.204182 C.3        1 MOL1        -0.1415
       9    H6      21.413196   19.444041   21.854013 H          1 MOL1         0.0976
      10    H7      20.806887   20.435154   23.184543 H          1 MOL1         0.0976
      11    C3      19.326670   19.075787   22.350078 C.3        1 MOL1        -0.1375
      12    H8      19.063084   18.662743   21.366351 H          1 MOL1         0.0976
      13    H9      18.457451   19.652796   22.695507 H          1 MOL1         0.0976
      14    C4      19.605705   17.920254   23.337948 C.3        1 MOL1        -0.1375
      15    H10     20.474717   17.343123   22.992619 H          1 MOL1         0.0976
      16    H11     19.869261   18.333086   24.321625 H          1 MOL1         0.0976
      17    C5      18.388459   16.980132   23.483696 C.3        1 MOL1        -0.1350
      18    H12     18.122331   16.562577   22.502474 H          1 MOL1         0.0976
      19    H13     17.516939   17.552448   23.831373 H          1 MOL1         0.0976
      20    C6      18.670831   15.827599   24.470833 C.3        1 MOL1        -0.2365
      21    H14     17.795573   15.171217   24.561010 H          1 MOL1         0.0987
      22    H15     18.906925   16.213455   25.471135 H          1 MOL1         0.0987
      23    H16     19.517066   15.215865   24.131868 H          1 MOL1         0.0987
@<TRIPOS>BOND
    1     1     2    1
    2     1     3    1
    3     1     4    1
    4     1     5    1
    5     5     6    1
    6     5     7    1
    7     5     8    1
    8     8     9    1
    9     8    10    1
   10     8    11    1
   11    11    12    1
   12    11    13    1
   13    11    14    1
   14    14    15    1
   15    14    16    1
   16    14    17    1
   17    17    18    1
   18    17    19    1
   19    17    20    1
   20    20    21    1
   21    20    22    1
   22    20    23    1
@<TRIPOS>SUBSTRUCTURE
       1 MOL1            1 RESIDUE      1      MOL     
@<SCITEGIC>MOL_PROPERTY
VConf Rank
SciTegic.value.IntegerValue
881

@<SCITEGIC>MOL_PROPERTY
Conf_Id
SciTegic.value.IntegerValue
40

@<SCITEGIC>MOL_PROPERTY
Delta U+W
SciTegic.value.DoubleValue
0.000

@<SCITEGIC>MOL_PROPERTY
U+W
SciTegic.value.DoubleValue
-8.382

@<SCITEGIC>MOL_PROPERTY
Grad RMS
SciTegic.value.DoubleValue
0.000000

@<SCITEGIC>MOL_PROPERTY
U
SciTegic.value.DoubleValue
46.604

@<SCITEGIC>MOL_PROPERTY
W
SciTegic.value.DoubleValue
-54.986

@<SCITEGIC>MOL_PROPERTY
W(PB)
SciTegic.value.DoubleValue
-57.162

@<SCITEGIC>MOL_PROPERTY
W(SA)
SciTegic.value.DoubleValue
2.176

@<SCITEGIC>MOL_PROPERTY
Valence
SciTegic.value.DoubleValue
1.727

@<SCITEGIC>MOL_PROPERTY
Coulomb
SciTegic.value.DoubleValue
44.434

@<SCITEGIC>MOL_PROPERTY
VdW
SciTegic.value.DoubleValue
0.443

@<SCITEGIC>MOL_PROPERTY
VdW6
SciTegic.value.DoubleValue
-4.623

@<SCITEGIC>MOL_PROPERTY
VdW12
SciTegic.value.DoubleValue
5.066

@<SCITEGIC>MOL_PROPERTY
Bond
SciTegic.value.DoubleValue
0.112

@<SCITEGIC>MOL_PROPERTY
Angle
SciTegic.value.DoubleValue
0.386

@<SCITEGIC>MOL_PROPERTY
Pdih
SciTegic.value.DoubleValue
1.228

@<SCITEGIC>MOL_PROPERTY
Idih
SciTegic.value.DoubleValue
0.000

@<SCITEGIC>MOL_PROPERTY
Tether
SciTegic.value.DoubleValue
0.000

@<TRIPOS>MOLECULE
guest-2_confgen4.mol2 : confsearch ligand conformer 882
          23          22           1
SMALL
USER_CHARGES
 
@<TRIPOS>ATOM
       1    N1      17.006202   18.735039   24.866728 N.4        1 MOL1        -0.5940
       2    H1      16.618815   19.661053   25.074743 H          1 MOL1         0.3649
       3    H2      17.545941   18.442680   25.687728 H          1 MOL1         0.3649
       4    H3      16.211943   18.090928   24.787339 H          1 MOL1         0.3649
       5    C1      17.850905   18.745046   23.608889 C.3        1 MOL1         0.0207
       6    H4      17.208648   19.036291   22.773370 H          1 MOL1         0.0950
       7    H5      18.202424   17.725119   23.433666 H          1 MOL1         0.0950
       8    C2      19.053030   19.704343   23.697080 C.3        1 MOL1        -0.1415
       9    H6      18.687590   20.715521   23.920510 H          1 MOL1         0.0976
      10    H7      19.699141   19.411550   24.535410 H          1 MOL1         0.0976
      11    C3      19.882678   19.748855   22.391965 C.3        1 MOL1        -0.1375
      12    H8      20.644103   20.532688   22.495878 H          1 MOL1         0.0976
      13    H9      19.235834   20.051424   21.556850 H          1 MOL1         0.0976
      14    C4      20.568280   18.398732   22.060767 C.3        1 MOL1        -0.1375
      15    H10     21.230906   18.107075   22.887256 H          1 MOL1         0.0976
      16    H11     19.808180   17.610411   21.981380 H          1 MOL1         0.0976
      17    C5      21.373535   18.424854   20.738871 C.3        1 MOL1        -0.1350
      18    H12     20.713141   18.705901   19.906591 H          1 MOL1         0.0976
      19    H13     21.725219   17.406638   20.521091 H          1 MOL1         0.0976
      20    C6      22.593550   19.373224   20.778249 C.3        1 MOL1        -0.2365
      21    H14     22.286933   20.422610   20.867871 H          1 MOL1         0.0987
      22    H15     23.181864   19.280118   19.856205 H          1 MOL1         0.0987
      23    H16     23.253134   19.133574   21.622362 H          1 MOL1         0.0987
@<TRIPOS>BOND
    1     1     2    1
    2     1     3    1
    3     1     4    1
    4     1     5    1
    5     5     6    1
    6     5     7    1
    7     5     8    1
    8     8     9    1
    9     8    10    1
   10     8    11    1
   11    11    12    1
   12    11    13    1
   13    11    14    1
   14    14    15    1
   15    14    16    1
   16    14    17    1
   17    17    18    1
   18    17    19    1
   19    17    20    1
   20    20    21    1
   21    20    22    1
   22    20    23    1
@<TRIPOS>SUBSTRUCTURE
       1 MOL1            1 RESIDUE      1      MOL     
@<SCITEGIC>MOL_PROPERTY
VConf Rank
SciTegic.value.IntegerValue
882

@<SCITEGIC>MOL_PROPERTY
Conf_Id
SciTegic.value.IntegerValue
65

@<SCITEGIC>MOL_PROPERTY
Delta U+W
SciTegic.value.DoubleValue
1.004

@<SCITEGIC>MOL_PROPERTY
U+W
SciTegic.value.DoubleValue
-7.378

@<SCITEGIC>MOL_PROPERTY
Grad RMS
SciTegic.value.DoubleValue
0.000000

@<SCITEGIC>MOL_PROPERTY
U
SciTegic.value.DoubleValue
48.047

@<SCITEGIC>MOL_PROPERTY
W
SciTegic.value.DoubleValue
-55.425

@<SCITEGIC>MOL_PROPERTY
W(PB)
SciTegic.value.DoubleValue
-57.542

@<SCITEGIC>MOL_PROPERTY
W(SA)
SciTegic.value.DoubleValue
2.116

@<SCITEGIC>MOL_PROPERTY
Valence
SciTegic.value.DoubleValue
2.583

@<SCITEGIC>MOL_PROPERTY
Coulomb
SciTegic.value.DoubleValue
44.791

@<SCITEGIC>MOL_PROPERTY
VdW
SciTegic.value.DoubleValue
0.673

@<SCITEGIC>MOL_PROPERTY
VdW6
SciTegic.value.DoubleValue
-5.788

@<SCITEGIC>MOL_PROPERTY
VdW12
SciTegic.value.DoubleValue
6.462

@<SCITEGIC>MOL_PROPERTY
Bond
SciTegic.value.DoubleValue
0.177

@<SCITEGIC>MOL_PROPERTY
Angle
SciTegic.value.DoubleValue
0.787

@<SCITEGIC>MOL_PROPERTY
Pdih
SciTegic.value.DoubleValue
1.619

@<SCITEGIC>MOL_PROPERTY
Idih
SciTegic.value.DoubleValue
0.000

@<SCITEGIC>MOL_PROPERTY
Tether
SciTegic.value.DoubleValue
0.000

@<TRIPOS>MOLECULE
guest-2_confgen4.mol2 : confsearch ligand conformer 883
          23          22           1
SMALL
USER_CHARGES
 
@<TRIPOS>ATOM
       1    N1      20.489423   15.972349   20.890520 N.4        1 MOL1        -0.5940
       2    H1      21.273625   16.105283   20.243842 H          1 MOL1         0.3649
       3    H2      19.815994   15.358418   20.419764 H          1 MOL1         0.3649
       4    H3      20.849652   15.455061   21.698902 H          1 MOL1         0.3649
       5    C1      19.861693   17.290268   21.296501 C.3        1 MOL1         0.0207
       6    H4      19.018993   17.070270   21.956786 H          1 MOL1         0.0950
       7    H5      19.475609   17.772302   20.394286 H          1 MOL1         0.0950
       8    C2      20.849294   18.235501   22.006652 C.3        1 MOL1        -0.1415
       9    H6      21.236517   17.752302   22.913605 H          1 MOL1         0.0976
      10    H7      21.712465   18.409055   21.350329 H          1 MOL1         0.0976
      11    C3      20.217046   19.599093   22.373387 C.3        1 MOL1        -0.1375
      12    H8      19.839397   20.084503   21.462822 H          1 MOL1         0.0976
      13    H9      21.008601   20.249500   22.767562 H          1 MOL1         0.0976
      14    C4      19.075485   19.479680   23.415094 C.3        1 MOL1        -0.1375
      15    H10     18.295638   18.809368   23.030353 H          1 MOL1         0.0976
      16    H11     19.458811   19.013112   24.333024 H          1 MOL1         0.0976
      17    C5      18.414876   20.835799   23.763025 C.3        1 MOL1        -0.1350
      18    H12     17.547442   20.648403   24.411341 H          1 MOL1         0.0976
      19    H13     18.020115   21.302393   22.849651 H          1 MOL1         0.0976
      20    C6      19.366941   21.819835   24.480404 C.3        1 MOL1        -0.2365
      21    H14     20.187301   22.138312   23.825546 H          1 MOL1         0.0987
      22    H15     19.800972   21.364607   25.380068 H          1 MOL1         0.0987
      23    H16     18.823999   22.722239   24.789962 H          1 MOL1         0.0987
@<TRIPOS>BOND
    1     1     2    1
    2     1     3    1
    3     1     4    1
    4     1     5    1
    5     5     6    1
    6     5     7    1
    7     5     8    1
    8     8     9    1
    9     8    10    1
   10     8    11    1
   11    11    12    1
   12    11    13    1
   13    11    14    1
   14    14    15    1
   15    14    16    1
   16    14    17    1
   17    17    18    1
   18    17    19    1
   19    17    20    1
   20    20    21    1
   21    20    22    1
   22    20    23    1
@<TRIPOS>SUBSTRUCTURE
       1 MOL1            1 RESIDUE      1      MOL     
@<SCITEGIC>MOL_PROPERTY
VConf Rank
SciTegic.value.IntegerValue
883

@<SCITEGIC>MOL_PROPERTY
Conf_Id
SciTegic.value.IntegerValue
92

@<SCITEGIC>MOL_PROPERTY
Delta U+W
SciTegic.value.DoubleValue
0.973

@<SCITEGIC>MOL_PROPERTY
U+W
SciTegic.value.DoubleValue
-7.409

@<SCITEGIC>MOL_PROPERTY
Grad RMS
SciTegic.value.DoubleValue
0.000000

@<SCITEGIC>MOL_PROPERTY
U
SciTegic.value.DoubleValue
48.047

@<SCITEGIC>MOL_PROPERTY
W
SciTegic.value.DoubleValue
-55.456

@<SCITEGIC>MOL_PROPERTY
W(PB)
SciTegic.value.DoubleValue
-57.595

@<SCITEGIC>MOL_PROPERTY
W(SA)
SciTegic.value.DoubleValue
2.138

@<SCITEGIC>MOL_PROPERTY
Valence
SciTegic.value.DoubleValue
2.583

@<SCITEGIC>MOL_PROPERTY
Coulomb
SciTegic.value.DoubleValue
44.791

@<SCITEGIC>MOL_PROPERTY
VdW
SciTegic.value.DoubleValue
0.674

@<SCITEGIC>MOL_PROPERTY
VdW6
SciTegic.value.DoubleValue
-5.789

@<SCITEGIC>MOL_PROPERTY
VdW12
SciTegic.value.DoubleValue
6.462

@<SCITEGIC>MOL_PROPERTY
Bond
SciTegic.value.DoubleValue
0.177

@<SCITEGIC>MOL_PROPERTY
Angle
SciTegic.value.DoubleValue
0.787

@<SCITEGIC>MOL_PROPERTY
Pdih
SciTegic.value.DoubleValue
1.619

@<SCITEGIC>MOL_PROPERTY
Idih
SciTegic.value.DoubleValue
0.000

@<SCITEGIC>MOL_PROPERTY
Tether
SciTegic.value.DoubleValue
0.000

@<TRIPOS>MOLECULE
guest-2_confgen4.mol2 : confsearch ligand conformer 884
          23          22           1
SMALL
USER_CHARGES
 
@<TRIPOS>ATOM
       1    N1      17.859702   18.952826   25.589827 N.4        1 MOL1        -0.5940
       2    H1      17.095902   19.620631   25.740425 H          1 MOL1         0.3649
       3    H2      18.393184   18.908727   26.464072 H          1 MOL1         0.3649
       4    H3      17.428499   18.032930   25.453096 H          1 MOL1         0.3649
       5    C1      18.730871   19.349288   24.415239 C.3        1 MOL1         0.0207
       6    H4      19.132802   20.346380   24.614429 H          1 MOL1         0.0950
       7    H5      18.093357   19.405789   23.529193 H          1 MOL1         0.0950
       8    C2      19.888581   18.364890   24.163196 C.3        1 MOL1        -0.1415
       9    H6      20.495109   18.283557   25.075037 H          1 MOL1         0.0976
      10    H7      19.484824   17.363251   23.963959 H          1 MOL1         0.0976
      11    C3      20.799835   18.800672   22.991554 C.3        1 MOL1        -0.1375
      12    H8      21.650142   18.107379   22.930122 H          1 MOL1         0.0976
      13    H9      21.222640   19.792193   23.205497 H          1 MOL1         0.0976
      14    C4      20.066685   18.828416   21.628769 C.3        1 MOL1        -0.1375
      15    H10     19.617101   17.844971   21.433504 H          1 MOL1         0.0976
      16    H11     19.243181   19.554311   21.659968 H          1 MOL1         0.0976
      17    C5      21.021448   19.195749   20.471070 C.3        1 MOL1        -0.1350
      18    H12     21.845853   18.470359   20.424961 H          1 MOL1         0.0976
      19    H13     21.474661   20.178729   20.661666 H          1 MOL1         0.0976
      20    C6      20.288972   19.224470   19.112682 C.3        1 MOL1        -0.2365
      21    H14     19.853160   18.244472   18.878378 H          1 MOL1         0.0987
      22    H15     20.982989   19.486535   18.303542 H          1 MOL1         0.0987
      23    H16     19.479901   19.966504   19.115910 H          1 MOL1         0.0987
@<TRIPOS>BOND
    1     1     2    1
    2     1     3    1
    3     1     4    1
    4     1     5    1
    5     5     6    1
    6     5     7    1
    7     5     8    1
    8     8     9    1
    9     8    10    1
   10     8    11    1
   11    11    12    1
   12    11    13    1
   13    11    14    1
   14    14    15    1
   15    14    16    1
   16    14    17    1
   17    17    18    1
   18    17    19    1
   19    17    20    1
   20    20    21    1
   21    20    22    1
   22    20    23    1
@<TRIPOS>SUBSTRUCTURE
       1 MOL1            1 RESIDUE      1      MOL     
@<SCITEGIC>MOL_PROPERTY
VConf Rank
SciTegic.value.IntegerValue
884

@<SCITEGIC>MOL_PROPERTY
Conf_Id
SciTegic.value.IntegerValue
42

@<SCITEGIC>MOL_PROPERTY
Delta U+W
SciTegic.value.DoubleValue
0.365

@<SCITEGIC>MOL_PROPERTY
U+W
SciTegic.value.DoubleValue
-8.017

@<SCITEGIC>MOL_PROPERTY
Grad RMS
SciTegic.value.DoubleValue
0.000000

@<SCITEGIC>MOL_PROPERTY
U
SciTegic.value.DoubleValue
47.375

@<SCITEGIC>MOL_PROPERTY
W
SciTegic.value.DoubleValue
-55.392

@<SCITEGIC>MOL_PROPERTY
W(PB)
SciTegic.value.DoubleValue
-57.543

@<SCITEGIC>MOL_PROPERTY
W(SA)
SciTegic.value.DoubleValue
2.152

@<SCITEGIC>MOL_PROPERTY
Valence
SciTegic.value.DoubleValue
2.032

@<SCITEGIC>MOL_PROPERTY
Coulomb
SciTegic.value.DoubleValue
44.843

@<SCITEGIC>MOL_PROPERTY
VdW
SciTegic.value.DoubleValue
0.499

@<SCITEGIC>MOL_PROPERTY
VdW6
SciTegic.value.DoubleValue
-5.218

@<SCITEGIC>MOL_PROPERTY
VdW12
SciTegic.value.DoubleValue
5.717

@<SCITEGIC>MOL_PROPERTY
Bond
SciTegic.value.DoubleValue
0.135

@<SCITEGIC>MOL_PROPERTY
Angle
SciTegic.value.DoubleValue
0.514

@<SCITEGIC>MOL_PROPERTY
Pdih
SciTegic.value.DoubleValue
1.383

@<SCITEGIC>MOL_PROPERTY
Idih
SciTegic.value.DoubleValue
0.000

@<SCITEGIC>MOL_PROPERTY
Tether
SciTegic.value.DoubleValue
0.000

@<TRIPOS>MOLECULE
guest-2_confgen4.mol2 : confsearch ligand conformer 885
          23          22           1
SMALL
USER_CHARGES
 
@<TRIPOS>ATOM
       1    N1      17.542671   20.441017   24.373826 N.4        1 MOL1        -0.5940
       2    H1      17.724109   21.356642   23.950335 H          1 MOL1         0.3649
       3    H2      17.013637   20.610184   25.236063 H          1 MOL1         0.3649
       4    H3      16.922518   19.930744   23.737875 H          1 MOL1         0.3649
       5    C1      18.826303   19.679358   24.641687 C.3        1 MOL1         0.0207
       6    H4      18.565377   18.727793   25.112709 H          1 MOL1         0.0950
       7    H5      19.413245   20.262997   25.356135 H          1 MOL1         0.0950
       8    C2      19.672112   19.419280   23.379863 C.3        1 MOL1        -0.1415
       9    H6      19.909578   20.374584   22.893393 H          1 MOL1         0.0976
      10    H7      20.623709   18.977346   23.699669 H          1 MOL1         0.0976
      11    C3      18.974364   18.468289   22.377081 C.3        1 MOL1        -0.1375
      12    H8      17.976809   18.858819   22.136868 H          1 MOL1         0.0976
      13    H9      18.813292   17.491505   22.853899 H          1 MOL1         0.0976
      14    C4      19.741812   18.269853   21.044150 C.3        1 MOL1        -0.1375
      15    H10     19.130496   17.617207   20.405533 H          1 MOL1         0.0976
      16    H11     19.815545   19.224478   20.505190 H          1 MOL1         0.0976
      17    C5      21.144818   17.625464   21.188298 C.3        1 MOL1        -0.1350
      18    H12     21.317901   16.966999   20.325490 H          1 MOL1         0.0976
      19    H13     21.178396   16.976328   22.074353 H          1 MOL1         0.0976
      20    C6      22.293511   18.660151   21.235068 C.3        1 MOL1        -0.2365
      21    H14     22.314175   19.263709   20.318362 H          1 MOL1         0.0987
      22    H15     23.263387   18.153368   21.321248 H          1 MOL1         0.0987
      23    H16     22.199489   19.343708   22.085967 H          1 MOL1         0.0987
@<TRIPOS>BOND
    1     1     2    1
    2     1     3    1
    3     1     4    1
    4     1     5    1
    5     5     6    1
    6     5     7    1
    7     5     8    1
    8     8     9    1
    9     8    10    1
   10     8    11    1
   11    11    12    1
   12    11    13    1
   13    11    14    1
   14    14    15    1
   15    14    16    1
   16    14    17    1
   17    17    18    1
   18    17    19    1
   19    17    20    1
   20    20    21    1
   21    20    22    1
   22    20    23    1
@<TRIPOS>SUBSTRUCTURE
       1 MOL1            1 RESIDUE      1      MOL     
@<SCITEGIC>MOL_PROPERTY
VConf Rank
SciTegic.value.IntegerValue
885

@<SCITEGIC>MOL_PROPERTY
Conf_Id
SciTegic.value.IntegerValue
3

@<SCITEGIC>MOL_PROPERTY
Delta U+W
SciTegic.value.DoubleValue
3.283

@<SCITEGIC>MOL_PROPERTY
U+W
SciTegic.value.DoubleValue
-5.099

@<SCITEGIC>MOL_PROPERTY
Grad RMS
SciTegic.value.DoubleValue
0.000000

@<SCITEGIC>MOL_PROPERTY
U
SciTegic.value.DoubleValue
50.701

@<SCITEGIC>MOL_PROPERTY
W
SciTegic.value.DoubleValue
-55.800

@<SCITEGIC>MOL_PROPERTY
W(PB)
SciTegic.value.DoubleValue
-57.867

@<SCITEGIC>MOL_PROPERTY
W(SA)
SciTegic.value.DoubleValue
2.067

@<SCITEGIC>MOL_PROPERTY
Valence
SciTegic.value.DoubleValue
4.880

@<SCITEGIC>MOL_PROPERTY
Coulomb
SciTegic.value.DoubleValue
45.095

@<SCITEGIC>MOL_PROPERTY
VdW
SciTegic.value.DoubleValue
0.726

@<SCITEGIC>MOL_PROPERTY
VdW6
SciTegic.value.DoubleValue
-6.620

@<SCITEGIC>MOL_PROPERTY
VdW12
SciTegic.value.DoubleValue
7.346

@<SCITEGIC>MOL_PROPERTY
Bond
SciTegic.value.DoubleValue
0.222

@<SCITEGIC>MOL_PROPERTY
Angle
SciTegic.value.DoubleValue
1.260

@<SCITEGIC>MOL_PROPERTY
Pdih
SciTegic.value.DoubleValue
3.398

@<SCITEGIC>MOL_PROPERTY
Idih
SciTegic.value.DoubleValue
0.000

@<SCITEGIC>MOL_PROPERTY
Tether
SciTegic.value.DoubleValue
0.000

@<TRIPOS>MOLECULE
guest-2_confgen4.mol2 : confsearch ligand conformer 886
          23          22           1
SMALL
USER_CHARGES
 
@<TRIPOS>ATOM
       1    N1      21.196540   16.704221   21.617852 N.4        1 MOL1        -0.5940
       2    H1      22.154134   16.894985   21.306121 H          1 MOL1         0.3649
       3    H2      21.046959   15.693931   21.524179 H          1 MOL1         0.3649
       4    H3      21.153712   16.923299   22.617737 H          1 MOL1         0.3649
       5    C1      20.177652   17.500453   20.826542 C.3        1 MOL1         0.0207
       6    H4      19.181794   17.228931   21.185753 H          1 MOL1         0.0950
       7    H5      20.255087   17.192850   19.780162 H          1 MOL1         0.0950
       8    C2      20.371245   19.027525   20.925795 C.3        1 MOL1        -0.1415
       9    H6      21.354592   19.290911   20.514138 H          1 MOL1         0.0976
      10    H7      19.629350   19.519221   20.282611 H          1 MOL1         0.0976
      11    C3      20.252324   19.590572   22.364712 C.3        1 MOL1        -0.1375
      12    H8      20.446776   20.670120   22.324224 H          1 MOL1         0.0976
      13    H9      21.038656   19.162125   23.000213 H          1 MOL1         0.0976
      14    C4      18.863929   19.338000   23.005800 C.3        1 MOL1        -0.1375
      15    H10     18.080544   19.791303   22.382909 H          1 MOL1         0.0976
      16    H11     18.658047   18.259754   23.024644 H          1 MOL1         0.0976
      17    C5      18.746988   19.874415   24.453222 C.3        1 MOL1        -0.1350
      18    H12     19.521602   19.416004   25.083745 H          1 MOL1         0.0976
      19    H13     17.782228   19.553277   24.870321 H          1 MOL1         0.0976
      20    C6      18.841260   21.414245   24.550081 C.3        1 MOL1        -0.2365
      21    H14     18.098072   21.897028   23.902316 H          1 MOL1         0.0987
      22    H15     19.835848   21.777081   24.263044 H          1 MOL1         0.0987
      23    H16     18.654620   21.746117   25.579625 H          1 MOL1         0.0987
@<TRIPOS>BOND
    1     1     2    1
    2     1     3    1
    3     1     4    1
    4     1     5    1
    5     5     6    1
    6     5     7    1
    7     5     8    1
    8     8     9    1
    9     8    10    1
   10     8    11    1
   11    11    12    1
   12    11    13    1
   13    11    14    1
   14    14    15    1
   15    14    16    1
   16    14    17    1
   17    17    18    1
   18    17    19    1
   19    17    20    1
   20    20    21    1
   21    20    22    1
   22    20    23    1
@<TRIPOS>SUBSTRUCTURE
       1 MOL1            1 RESIDUE      1      MOL     
@<SCITEGIC>MOL_PROPERTY
VConf Rank
SciTegic.value.IntegerValue
886

@<SCITEGIC>MOL_PROPERTY
Conf_Id
SciTegic.value.IntegerValue
83

@<SCITEGIC>MOL_PROPERTY
Delta U+W
SciTegic.value.DoubleValue
1.229

@<SCITEGIC>MOL_PROPERTY
U+W
SciTegic.value.DoubleValue
-7.154

@<SCITEGIC>MOL_PROPERTY
Grad RMS
SciTegic.value.DoubleValue
0.000000

@<SCITEGIC>MOL_PROPERTY
U
SciTegic.value.DoubleValue
48.727

@<SCITEGIC>MOL_PROPERTY
W
SciTegic.value.DoubleValue
-55.880

@<SCITEGIC>MOL_PROPERTY
W(PB)
SciTegic.value.DoubleValue
-57.960

@<SCITEGIC>MOL_PROPERTY
W(SA)
SciTegic.value.DoubleValue
2.080

@<SCITEGIC>MOL_PROPERTY
Valence
SciTegic.value.DoubleValue
2.671

@<SCITEGIC>MOL_PROPERTY
Coulomb
SciTegic.value.DoubleValue
45.371

@<SCITEGIC>MOL_PROPERTY
VdW
SciTegic.value.DoubleValue
0.684

@<SCITEGIC>MOL_PROPERTY
VdW6
SciTegic.value.DoubleValue
-6.511

@<SCITEGIC>MOL_PROPERTY
VdW12
SciTegic.value.DoubleValue
7.195

@<SCITEGIC>MOL_PROPERTY
Bond
SciTegic.value.DoubleValue
0.203

@<SCITEGIC>MOL_PROPERTY
Angle
SciTegic.value.DoubleValue
0.915

@<SCITEGIC>MOL_PROPERTY
Pdih
SciTegic.value.DoubleValue
1.554

@<SCITEGIC>MOL_PROPERTY
Idih
SciTegic.value.DoubleValue
0.000

@<SCITEGIC>MOL_PROPERTY
Tether
SciTegic.value.DoubleValue
0.000

@<TRIPOS>MOLECULE
guest-2_confgen4.mol2 : confsearch ligand conformer 887
          23          22           1
SMALL
USER_CHARGES
 
@<TRIPOS>ATOM
       1    N1      21.056946   16.822498   23.913195 N.4        1 MOL1        -0.5940
       2    H1      21.094262   15.966096   23.351291 H          1 MOL1         0.3649
       3    H2      20.068636   17.026656   24.089731 H          1 MOL1         0.3649
       4    H3      21.486073   16.605100   24.818967 H          1 MOL1         0.3649
       5    C1      21.752603   17.979370   23.223266 C.3        1 MOL1         0.0207
       6    H4      22.804457   17.708203   23.098366 H          1 MOL1         0.0950
       7    H5      21.703816   18.847831   23.884995 H          1 MOL1         0.0950
       8    C2      21.149889   18.334612   21.848560 C.3        1 MOL1        -0.1415
       9    H6      21.745783   19.140761   21.400346 H          1 MOL1         0.0976
      10    H7      21.252617   17.470452   21.178875 H          1 MOL1         0.0976
      11    C3      19.662664   18.767258   21.899800 C.3        1 MOL1        -0.1375
      12    H8      19.045409   17.940713   22.276055 H          1 MOL1         0.0976
      13    H9      19.327831   18.954900   20.871426 H          1 MOL1         0.0976
      14    C4      19.425105   20.033776   22.761153 C.3        1 MOL1        -0.1375
      15    H10     19.782028   19.855376   23.783960 H          1 MOL1         0.0976
      16    H11     20.022304   20.867294   22.366474 H          1 MOL1         0.0976
      17    C5      17.937770   20.456016   22.838549 C.3        1 MOL1        -0.1350
      18    H12     17.843991   21.283191   23.556080 H          1 MOL1         0.0976
      19    H13     17.336818   19.629550   23.242946 H          1 MOL1         0.0976
      20    C6      17.353387   20.908495   21.480940 C.3        1 MOL1        -0.2365
      21    H14     17.956416   21.712604   21.039609 H          1 MOL1         0.0987
      22    H15     16.331622   21.288194   21.610398 H          1 MOL1         0.0987
      23    H16     17.307514   20.079367   20.764222 H          1 MOL1         0.0987
@<TRIPOS>BOND
    1     1     2    1
    2     1     3    1
    3     1     4    1
    4     1     5    1
    5     5     6    1
    6     5     7    1
    7     5     8    1
    8     8     9    1
    9     8    10    1
   10     8    11    1
   11    11    12    1
   12    11    13    1
   13    11    14    1
   14    14    15    1
   15    14    16    1
   16    14    17    1
   17    17    18    1
   18    17    19    1
   19    17    20    1
   20    20    21    1
   21    20    22    1
   22    20    23    1
@<TRIPOS>SUBSTRUCTURE
       1 MOL1            1 RESIDUE      1      MOL     
@<SCITEGIC>MOL_PROPERTY
VConf Rank
SciTegic.value.IntegerValue
887

@<SCITEGIC>MOL_PROPERTY
Conf_Id
SciTegic.value.IntegerValue
50

@<SCITEGIC>MOL_PROPERTY
Delta U+W
SciTegic.value.DoubleValue
1.252

@<SCITEGIC>MOL_PROPERTY
U+W
SciTegic.value.DoubleValue
-7.130

@<SCITEGIC>MOL_PROPERTY
Grad RMS
SciTegic.value.DoubleValue
0.000000

@<SCITEGIC>MOL_PROPERTY
U
SciTegic.value.DoubleValue
48.727

@<SCITEGIC>MOL_PROPERTY
W
SciTegic.value.DoubleValue
-55.857

@<SCITEGIC>MOL_PROPERTY
W(PB)
SciTegic.value.DoubleValue
-57.937

@<SCITEGIC>MOL_PROPERTY
W(SA)
SciTegic.value.DoubleValue
2.080

@<SCITEGIC>MOL_PROPERTY
Valence
SciTegic.value.DoubleValue
2.671

@<SCITEGIC>MOL_PROPERTY
Coulomb
SciTegic.value.DoubleValue
45.371

@<SCITEGIC>MOL_PROPERTY
VdW
SciTegic.value.DoubleValue
0.684

@<SCITEGIC>MOL_PROPERTY
VdW6
SciTegic.value.DoubleValue
-6.511

@<SCITEGIC>MOL_PROPERTY
VdW12
SciTegic.value.DoubleValue
7.196

@<SCITEGIC>MOL_PROPERTY
Bond
SciTegic.value.DoubleValue
0.203

@<SCITEGIC>MOL_PROPERTY
Angle
SciTegic.value.DoubleValue
0.915

@<SCITEGIC>MOL_PROPERTY
Pdih
SciTegic.value.DoubleValue
1.554

@<SCITEGIC>MOL_PROPERTY
Idih
SciTegic.value.DoubleValue
0.000

@<SCITEGIC>MOL_PROPERTY
Tether
SciTegic.value.DoubleValue
0.000

@<TRIPOS>MOLECULE
guest-2_confgen4.mol2 : confsearch ligand conformer 888
          23          22           1
SMALL
USER_CHARGES
 
@<TRIPOS>ATOM
       1    N1      16.853189   17.881714   22.302751 N.4        1 MOL1        -0.5940
       2    H1      17.417365   17.219793   21.761365 H          1 MOL1         0.3649
       3    H2      15.947098   17.960698   21.828737 H          1 MOL1         0.3649
       4    H3      16.675853   17.452514   23.216515 H          1 MOL1         0.3649
       5    C1      17.538074   19.228021   22.435523 C.3        1 MOL1         0.0207
       6    H4      16.863618   19.889961   22.985539 H          1 MOL1         0.0950
       7    H5      17.675231   19.639461   21.431871 H          1 MOL1         0.0950
       8    C2      18.896524   19.166544   23.160502 C.3        1 MOL1        -0.1415
       9    H6      19.255490   20.191956   23.303109 H          1 MOL1         0.0976
      10    H7      18.754345   18.748016   24.165682 H          1 MOL1         0.0976
      11    C3      19.949058   18.332112   22.386827 C.3        1 MOL1        -0.1375
      12    H8      20.028955   18.684419   21.349112 H          1 MOL1         0.0976
      13    H9      19.597102   17.293438   22.329639 H          1 MOL1         0.0976
      14    C4      21.347888   18.332164   23.057183 C.3        1 MOL1        -0.1375
      15    H10     21.249946   18.452171   24.144933 H          1 MOL1         0.0976
      16    H11     21.798618   17.341050   22.908767 H          1 MOL1         0.0976
      17    C5      22.337606   19.382840   22.491721 C.3        1 MOL1        -0.1350
      18    H12     22.507567   19.190970   21.423042 H          1 MOL1         0.0976
      19    H13     23.310729   19.245003   22.983498 H          1 MOL1         0.0976
      20    C6      21.889410   20.848194   22.683784 C.3        1 MOL1        -0.2365
      21    H14     21.654936   21.056292   23.735712 H          1 MOL1         0.0987
      22    H15     21.005778   21.077807   22.075715 H          1 MOL1         0.0987
      23    H16     22.686859   21.536511   22.375268 H          1 MOL1         0.0987
@<TRIPOS>BOND
    1     1     2    1
    2     1     3    1
    3     1     4    1
    4     1     5    1
    5     5     6    1
    6     5     7    1
    7     5     8    1
    8     8     9    1
    9     8    10    1
   10     8    11    1
   11    11    12    1
   12    11    13    1
   13    11    14    1
   14    14    15    1
   15    14    16    1
   16    14    17    1
   17    17    18    1
   18    17    19    1
   19    17    20    1
   20    20    21    1
   21    20    22    1
   22    20    23    1
@<TRIPOS>SUBSTRUCTURE
       1 MOL1            1 RESIDUE      1      MOL     
@<SCITEGIC>MOL_PROPERTY
VConf Rank
SciTegic.value.IntegerValue
888

@<SCITEGIC>MOL_PROPERTY
Conf_Id
SciTegic.value.IntegerValue
55

@<SCITEGIC>MOL_PROPERTY
Delta U+W
SciTegic.value.DoubleValue
3.232

@<SCITEGIC>MOL_PROPERTY
U+W
SciTegic.value.DoubleValue
-5.150

@<SCITEGIC>MOL_PROPERTY
Grad RMS
SciTegic.value.DoubleValue
0.000000

@<SCITEGIC>MOL_PROPERTY
U
SciTegic.value.DoubleValue
50.625

@<SCITEGIC>MOL_PROPERTY
W
SciTegic.value.DoubleValue
-55.776

@<SCITEGIC>MOL_PROPERTY
W(PB)
SciTegic.value.DoubleValue
-57.839

@<SCITEGIC>MOL_PROPERTY
W(SA)
SciTegic.value.DoubleValue
2.064

@<SCITEGIC>MOL_PROPERTY
Valence
SciTegic.value.DoubleValue
4.837

@<SCITEGIC>MOL_PROPERTY
Coulomb
SciTegic.value.DoubleValue
45.097

@<SCITEGIC>MOL_PROPERTY
VdW
SciTegic.value.DoubleValue
0.692

@<SCITEGIC>MOL_PROPERTY
VdW6
SciTegic.value.DoubleValue
-6.655

@<SCITEGIC>MOL_PROPERTY
VdW12
SciTegic.value.DoubleValue
7.347

@<SCITEGIC>MOL_PROPERTY
Bond
SciTegic.value.DoubleValue
0.223

@<SCITEGIC>MOL_PROPERTY
Angle
SciTegic.value.DoubleValue
1.167

@<SCITEGIC>MOL_PROPERTY
Pdih
SciTegic.value.DoubleValue
3.447

@<SCITEGIC>MOL_PROPERTY
Idih
SciTegic.value.DoubleValue
0.000

@<SCITEGIC>MOL_PROPERTY
Tether
SciTegic.value.DoubleValue
0.000

@<TRIPOS>MOLECULE
guest-2_confgen4.mol2 : confsearch ligand conformer 889
          23          22           1
SMALL
USER_CHARGES
 
@<TRIPOS>ATOM
       1    N1      22.525326   20.652439   22.594838 N.4        1 MOL1        -0.5940
       2    H1      22.675349   21.453352   21.972858 H          1 MOL1         0.3649
       3    H2      23.428322   20.175129   22.688499 H          1 MOL1         0.3649
       4    H3      22.289641   21.028539   23.518829 H          1 MOL1         0.3649
       5    C1      21.449032   19.723755   22.070639 C.3        1 MOL1         0.0207
       6    H4      21.370563   18.881523   22.760441 H          1 MOL1         0.0950
       7    H5      21.778931   19.340477   21.101276 H          1 MOL1         0.0950
       8    C2      20.080857   20.415788   21.912616 C.3        1 MOL1        -0.1415
       9    H6      19.757715   20.846806   22.869520 H          1 MOL1         0.0976
      10    H7      20.203773   21.258276   21.218984 H          1 MOL1         0.0976
      11    C3      18.983796   19.474220   21.354609 C.3        1 MOL1        -0.1375
      12    H8      19.413936   18.800427   20.600563 H          1 MOL1         0.0976
      13    H9      18.247276   20.088390   20.818110 H          1 MOL1         0.0976
      14    C4      18.217245   18.655497   22.425854 C.3        1 MOL1        -0.1375
      15    H10     17.704722   19.342132   23.113708 H          1 MOL1         0.0976
      16    H11     17.425918   18.086147   21.918821 H          1 MOL1         0.0976
      17    C5      19.095524   17.676532   23.238723 C.3        1 MOL1        -0.1350
      18    H12     19.792027   18.238591   23.874245 H          1 MOL1         0.0976
      19    H13     19.699319   17.061480   22.556945 H          1 MOL1         0.0976
      20    C6      18.241082   16.756741   24.136829 C.3        1 MOL1        -0.2365
      21    H14     17.554630   16.145005   23.537015 H          1 MOL1         0.0987
      22    H15     17.644318   17.343119   24.847662 H          1 MOL1         0.0987
      23    H16     18.880336   16.076421   24.714366 H          1 MOL1         0.0987
@<TRIPOS>BOND
    1     1     2    1
    2     1     3    1
    3     1     4    1
    4     1     5    1
    5     5     6    1
    6     5     7    1
    7     5     8    1
    8     8     9    1
    9     8    10    1
   10     8    11    1
   11    11    12    1
   12    11    13    1
   13    11    14    1
   14    14    15    1
   15    14    16    1
   16    14    17    1
   17    17    18    1
   18    17    19    1
   19    17    20    1
   20    20    21    1
   21    20    22    1
   22    20    23    1
@<TRIPOS>SUBSTRUCTURE
       1 MOL1            1 RESIDUE      1      MOL     
@<SCITEGIC>MOL_PROPERTY
VConf Rank
SciTegic.value.IntegerValue
889

@<SCITEGIC>MOL_PROPERTY
Conf_Id
SciTegic.value.IntegerValue
93

@<SCITEGIC>MOL_PROPERTY
Delta U+W
SciTegic.value.DoubleValue
2.589

@<SCITEGIC>MOL_PROPERTY
U+W
SciTegic.value.DoubleValue
-5.793

@<SCITEGIC>MOL_PROPERTY
Grad RMS
SciTegic.value.DoubleValue
0.000000

@<SCITEGIC>MOL_PROPERTY
U
SciTegic.value.DoubleValue
50.122

@<SCITEGIC>MOL_PROPERTY
W
SciTegic.value.DoubleValue
-55.915

@<SCITEGIC>MOL_PROPERTY
W(PB)
SciTegic.value.DoubleValue
-58.031

@<SCITEGIC>MOL_PROPERTY
W(SA)
SciTegic.value.DoubleValue
2.115

@<SCITEGIC>MOL_PROPERTY
Valence
SciTegic.value.DoubleValue
4.132

@<SCITEGIC>MOL_PROPERTY
Coulomb
SciTegic.value.DoubleValue
45.536

@<SCITEGIC>MOL_PROPERTY
VdW
SciTegic.value.DoubleValue
0.454

@<SCITEGIC>MOL_PROPERTY
VdW6
SciTegic.value.DoubleValue
-6.262

@<SCITEGIC>MOL_PROPERTY
VdW12
SciTegic.value.DoubleValue
6.715

@<SCITEGIC>MOL_PROPERTY
Bond
SciTegic.value.DoubleValue
0.182

@<SCITEGIC>MOL_PROPERTY
Angle
SciTegic.value.DoubleValue
1.157

@<SCITEGIC>MOL_PROPERTY
Pdih
SciTegic.value.DoubleValue
2.794

@<SCITEGIC>MOL_PROPERTY
Idih
SciTegic.value.DoubleValue
0.000

@<SCITEGIC>MOL_PROPERTY
Tether
SciTegic.value.DoubleValue
0.000

@<TRIPOS>MOLECULE
guest-2_confgen4.mol2 : confsearch ligand conformer 890
          23          22           1
SMALL
USER_CHARGES
 
@<TRIPOS>ATOM
       1    N1      18.186371   18.788668   19.859602 N.4        1 MOL1        -0.5940
       2    H1      18.555676   17.842034   19.724494 H          1 MOL1         0.3649
       3    H2      18.491425   19.345664   19.054185 H          1 MOL1         0.3649
       4    H3      17.164693   18.723899   19.806627 H          1 MOL1         0.3649
       5    C1      18.646973   19.394002   21.169970 C.3        1 MOL1         0.0207
       6    H4      18.241457   20.407416   21.232805 H          1 MOL1         0.0950
       7    H5      19.735753   19.464708   21.140008 H          1 MOL1         0.0950
       8    C2      18.196738   18.581616   22.400053 C.3        1 MOL1        -0.1415
       9    H6      17.099896   18.528228   22.389695 H          1 MOL1         0.0976
      10    H7      18.558056   17.547144   22.328080 H          1 MOL1         0.0976
      11    C3      18.646699   19.211143   23.742697 C.3        1 MOL1        -0.1375
      12    H8      17.925281   18.915604   24.517108 H          1 MOL1         0.0976
      13    H9      18.586419   20.306807   23.683608 H          1 MOL1         0.0976
      14    C4      20.055304   18.780125   24.228010 C.3        1 MOL1        -0.1375
      15    H10     20.229402   19.231372   25.214674 H          1 MOL1         0.0976
      16    H11     20.071769   17.692588   24.383844 H          1 MOL1         0.0976
      17    C5      21.212318   19.180185   23.283673 C.3        1 MOL1        -0.1350
      18    H12     21.136398   20.246803   23.030217 H          1 MOL1         0.0976
      19    H13     21.140771   18.615950   22.344825 H          1 MOL1         0.0976
      20    C6      22.590005   18.902600   23.922115 C.3        1 MOL1        -0.2365
      21    H14     23.399049   19.181836   23.234725 H          1 MOL1         0.0987
      22    H15     22.705552   17.837924   24.163699 H          1 MOL1         0.0987
      23    H16     22.720690   19.479286   24.847084 H          1 MOL1         0.0987
@<TRIPOS>BOND
    1     1     2    1
    2     1     3    1
    3     1     4    1
    4     1     5    1
    5     5     6    1
    6     5     7    1
    7     5     8    1
    8     8     9    1
    9     8    10    1
   10     8    11    1
   11    11    12    1
   12    11    13    1
   13    11    14    1
   14    14    15    1
   15    14    16    1
   16    14    17    1
   17    17    18    1
   18    17    19    1
   19    17    20    1
   20    20    21    1
   21    20    22    1
   22    20    23    1
@<TRIPOS>SUBSTRUCTURE
       1 MOL1            1 RESIDUE      1      MOL     
@<SCITEGIC>MOL_PROPERTY
VConf Rank
SciTegic.value.IntegerValue
890

@<SCITEGIC>MOL_PROPERTY
Conf_Id
SciTegic.value.IntegerValue
70

@<SCITEGIC>MOL_PROPERTY
Delta U+W
SciTegic.value.DoubleValue
2.599

@<SCITEGIC>MOL_PROPERTY
U+W
SciTegic.value.DoubleValue
-5.783

@<SCITEGIC>MOL_PROPERTY
Grad RMS
SciTegic.value.DoubleValue
0.000000

@<SCITEGIC>MOL_PROPERTY
U
SciTegic.value.DoubleValue
50.122

@<SCITEGIC>MOL_PROPERTY
W
SciTegic.value.DoubleValue
-55.906

@<SCITEGIC>MOL_PROPERTY
W(PB)
SciTegic.value.DoubleValue
-58.010

@<SCITEGIC>MOL_PROPERTY
W(SA)
SciTegic.value.DoubleValue
2.105

@<SCITEGIC>MOL_PROPERTY
Valence
SciTegic.value.DoubleValue
4.132

@<SCITEGIC>MOL_PROPERTY
Coulomb
SciTegic.value.DoubleValue
45.536

@<SCITEGIC>MOL_PROPERTY
VdW
SciTegic.value.DoubleValue
0.454

@<SCITEGIC>MOL_PROPERTY
VdW6
SciTegic.value.DoubleValue
-6.262

@<SCITEGIC>MOL_PROPERTY
VdW12
SciTegic.value.DoubleValue
6.715

@<SCITEGIC>MOL_PROPERTY
Bond
SciTegic.value.DoubleValue
0.182

@<SCITEGIC>MOL_PROPERTY
Angle
SciTegic.value.DoubleValue
1.157

@<SCITEGIC>MOL_PROPERTY
Pdih
SciTegic.value.DoubleValue
2.794

@<SCITEGIC>MOL_PROPERTY
Idih
SciTegic.value.DoubleValue
0.000

@<SCITEGIC>MOL_PROPERTY
Tether
SciTegic.value.DoubleValue
0.000

@<TRIPOS>MOLECULE
guest-2_confgen4.mol2 : confsearch ligand conformer 891
          23          22           1
SMALL
USER_CHARGES
 
@<TRIPOS>ATOM
       1    N1      21.459793   21.224001   23.184848 N.4        1 MOL1        -0.5940
       2    H1      22.458482   21.286591   22.963015 H          1 MOL1         0.3649
       3    H2      21.245338   21.999314   23.820979 H          1 MOL1         0.3649
       4    H3      20.945197   21.395970   22.315892 H          1 MOL1         0.3649
       5    C1      21.101081   19.881585   23.791050 C.3        1 MOL1         0.0207
       6    H4      20.035373   19.892495   24.034141 H          1 MOL1         0.0950
       7    H5      21.661213   19.777149   24.724238 H          1 MOL1         0.0950
       8    C2      21.412298   18.684692   22.869978 C.3        1 MOL1        -0.1415
       9    H6      22.490007   18.663582   22.660664 H          1 MOL1         0.0976
      10    H7      21.195037   17.755178   23.411474 H          1 MOL1         0.0976
      11    C3      20.632858   18.702163   21.528645 C.3        1 MOL1        -0.1375
      12    H8      20.886509   17.796816   20.960128 H          1 MOL1         0.0976
      13    H9      20.983838   19.544114   20.916954 H          1 MOL1         0.0976
      14    C4      19.091395   18.795067   21.670277 C.3        1 MOL1        -0.1375
      15    H10     18.813518   19.741140   22.153621 H          1 MOL1         0.0976
      16    H11     18.652782   18.829780   20.663424 H          1 MOL1         0.0976
      17    C5      18.469816   17.611037   22.447841 C.3        1 MOL1        -0.1350
      18    H12     18.841397   17.599582   23.481154 H          1 MOL1         0.0976
      19    H13     18.778369   16.662055   21.987470 H          1 MOL1         0.0976
      20    C6      16.928599   17.691650   22.470915 C.3        1 MOL1        -0.2365
      21    H14     16.504547   16.846287   23.028189 H          1 MOL1         0.0987
      22    H15     16.516205   17.665020   21.453852 H          1 MOL1         0.0987
      23    H16     16.589161   18.617489   22.953416 H          1 MOL1         0.0987
@<TRIPOS>BOND
    1     1     2    1
    2     1     3    1
    3     1     4    1
    4     1     5    1
    5     5     6    1
    6     5     7    1
    7     5     8    1
    8     8     9    1
    9     8    10    1
   10     8    11    1
   11    11    12    1
   12    11    13    1
   13    11    14    1
   14    14    15    1
   15    14    16    1
   16    14    17    1
   17    17    18    1
   18    17    19    1
   19    17    20    1
   20    20    21    1
   21    20    22    1
   22    20    23    1
@<TRIPOS>SUBSTRUCTURE
       1 MOL1            1 RESIDUE      1      MOL     
@<SCITEGIC>MOL_PROPERTY
VConf Rank
SciTegic.value.IntegerValue
891

@<SCITEGIC>MOL_PROPERTY
Conf_Id
SciTegic.value.IntegerValue
72

@<SCITEGIC>MOL_PROPERTY
Delta U+W
SciTegic.value.DoubleValue
1.051

@<SCITEGIC>MOL_PROPERTY
U+W
SciTegic.value.DoubleValue
-7.331

@<SCITEGIC>MOL_PROPERTY
Grad RMS
SciTegic.value.DoubleValue
0.000000

@<SCITEGIC>MOL_PROPERTY
U
SciTegic.value.DoubleValue
48.590

@<SCITEGIC>MOL_PROPERTY
W
SciTegic.value.DoubleValue
-55.922

@<SCITEGIC>MOL_PROPERTY
W(PB)
SciTegic.value.DoubleValue
-58.012

@<SCITEGIC>MOL_PROPERTY
W(SA)
SciTegic.value.DoubleValue
2.090

@<SCITEGIC>MOL_PROPERTY
Valence
SciTegic.value.DoubleValue
2.601

@<SCITEGIC>MOL_PROPERTY
Coulomb
SciTegic.value.DoubleValue
45.520

@<SCITEGIC>MOL_PROPERTY
VdW
SciTegic.value.DoubleValue
0.469

@<SCITEGIC>MOL_PROPERTY
VdW6
SciTegic.value.DoubleValue
-6.867

@<SCITEGIC>MOL_PROPERTY
VdW12
SciTegic.value.DoubleValue
7.336

@<SCITEGIC>MOL_PROPERTY
Bond
SciTegic.value.DoubleValue
0.205

@<SCITEGIC>MOL_PROPERTY
Angle
SciTegic.value.DoubleValue
0.962

@<SCITEGIC>MOL_PROPERTY
Pdih
SciTegic.value.DoubleValue
1.434

@<SCITEGIC>MOL_PROPERTY
Idih
SciTegic.value.DoubleValue
0.000

@<SCITEGIC>MOL_PROPERTY
Tether
SciTegic.value.DoubleValue
0.000

@<TRIPOS>MOLECULE
guest-2_confgen4.mol2 : confsearch ligand conformer 892
          23          22           1
SMALL
USER_CHARGES
 
@<TRIPOS>ATOM
       1    N1      18.932779   20.894554   20.283070 N.4        1 MOL1        -0.5940
       2    H1      19.054261   20.792770   19.269739 H          1 MOL1         0.3649
       3    H2      19.022543   21.893529   20.494671 H          1 MOL1         0.3649
       4    H3      17.966506   20.626808   20.495886 H          1 MOL1         0.3649
       5    C1      19.934208   20.061112   21.056474 C.3        1 MOL1         0.0207
       6    H4      20.937904   20.378423   20.761080 H          1 MOL1         0.0950
       7    H5      19.802172   19.017123   20.760524 H          1 MOL1         0.0950
       8    C2      19.778042   20.191834   22.583020 C.3        1 MOL1        -0.1415
       9    H6      19.875175   21.248640   22.864895 H          1 MOL1         0.0976
      10    H7      18.766573   19.885868   22.879240 H          1 MOL1         0.0976
      11    C3      20.831036   19.367284   23.364290 C.3        1 MOL1        -0.1375
      12    H8      20.680079   19.520485   24.441179 H          1 MOL1         0.0976
      13    H9      21.829898   19.769469   23.145582 H          1 MOL1         0.0976
      14    C4      20.830655   17.846469   23.051432 C.3        1 MOL1        -0.1375
      15    H10     21.144784   17.687909   22.011007 H          1 MOL1         0.0976
      16    H11     21.599633   17.361580   23.668461 H          1 MOL1         0.0976
      17    C5      19.477767   17.126186   23.281880 C.3        1 MOL1        -0.1350
      18    H12     19.595917   16.066201   23.016997 H          1 MOL1         0.0976
      19    H13     18.714870   17.523177   22.598868 H          1 MOL1         0.0976
      20    C6      18.973373   17.221162   24.739646 C.3        1 MOL1        -0.2365
      21    H14     19.725717   16.841007   25.442782 H          1 MOL1         0.0987
      22    H15     18.060411   16.625966   24.870357 H          1 MOL1         0.0987
      23    H16     18.735862   18.255786   25.016592 H          1 MOL1         0.0987
@<TRIPOS>BOND
    1     1     2    1
    2     1     3    1
    3     1     4    1
    4     1     5    1
    5     5     6    1
    6     5     7    1
    7     5     8    1
    8     8     9    1
    9     8    10    1
   10     8    11    1
   11    11    12    1
   12    11    13    1
   13    11    14    1
   14    14    15    1
   15    14    16    1
   16    14    17    1
   17    17    18    1
   18    17    19    1
   19    17    20    1
   20    20    21    1
   21    20    22    1
   22    20    23    1
@<TRIPOS>SUBSTRUCTURE
       1 MOL1            1 RESIDUE      1      MOL     
@<SCITEGIC>MOL_PROPERTY
VConf Rank
SciTegic.value.IntegerValue
892

@<SCITEGIC>MOL_PROPERTY
Conf_Id
SciTegic.value.IntegerValue
26

@<SCITEGIC>MOL_PROPERTY
Delta U+W
SciTegic.value.DoubleValue
1.076

@<SCITEGIC>MOL_PROPERTY
U+W
SciTegic.value.DoubleValue
-7.306

@<SCITEGIC>MOL_PROPERTY
Grad RMS
SciTegic.value.DoubleValue
0.000000

@<SCITEGIC>MOL_PROPERTY
U
SciTegic.value.DoubleValue
48.641

@<SCITEGIC>MOL_PROPERTY
W
SciTegic.value.DoubleValue
-55.947

@<SCITEGIC>MOL_PROPERTY
W(PB)
SciTegic.value.DoubleValue
-58.031

@<SCITEGIC>MOL_PROPERTY
W(SA)
SciTegic.value.DoubleValue
2.084

@<SCITEGIC>MOL_PROPERTY
Valence
SciTegic.value.DoubleValue
2.922

@<SCITEGIC>MOL_PROPERTY
Coulomb
SciTegic.value.DoubleValue
45.269

@<SCITEGIC>MOL_PROPERTY
VdW
SciTegic.value.DoubleValue
0.449

@<SCITEGIC>MOL_PROPERTY
VdW6
SciTegic.value.DoubleValue
-7.045

@<SCITEGIC>MOL_PROPERTY
VdW12
SciTegic.value.DoubleValue
7.494

@<SCITEGIC>MOL_PROPERTY
Bond
SciTegic.value.DoubleValue
0.220

@<SCITEGIC>MOL_PROPERTY
Angle
SciTegic.value.DoubleValue
1.205

@<SCITEGIC>MOL_PROPERTY
Pdih
SciTegic.value.DoubleValue
1.497

@<SCITEGIC>MOL_PROPERTY
Idih
SciTegic.value.DoubleValue
0.000

@<SCITEGIC>MOL_PROPERTY
Tether
SciTegic.value.DoubleValue
0.000

@<TRIPOS>MOLECULE
guest-2_confgen4.mol2 : confsearch ligand conformer 893
          23          22           1
SMALL
USER_CHARGES
 
@<TRIPOS>ATOM
       1    N1      17.537257   18.947372   20.464487 N.4        1 MOL1        -0.5940
       2    H1      17.827856   19.215246   19.518665 H          1 MOL1         0.3649
       3    H2      16.544412   19.189798   20.550781 H          1 MOL1         0.3649
       4    H3      17.600803   17.925921   20.521605 H          1 MOL1         0.3649
       5    C1      18.376886   19.626753   21.527078 C.3        1 MOL1         0.0207
       6    H4      17.994108   19.320729   22.504197 H          1 MOL1         0.0950
       7    H5      18.240161   20.706827   21.426599 H          1 MOL1         0.0950
       8    C2      19.874548   19.282629   21.425079 C.3        1 MOL1        -0.1415
       9    H6      20.011837   18.197319   21.512756 H          1 MOL1         0.0976
      10    H7      20.239695   19.559737   20.427278 H          1 MOL1         0.0976
      11    C3      20.729392   20.012501   22.490721 C.3        1 MOL1        -0.1375
      12    H8      20.673825   21.094804   22.309489 H          1 MOL1         0.0976
      13    H9      21.784729   19.743185   22.350421 H          1 MOL1         0.0976
      14    C4      20.314069   19.735079   23.960857 C.3        1 MOL1        -0.1375
      15    H10     20.992435   20.286231   24.626605 H          1 MOL1         0.0976
      16    H11     19.316067   20.155658   24.143633 H          1 MOL1         0.0976
      17    C5      20.312100   18.241489   24.374869 C.3        1 MOL1        -0.1350
      18    H12     19.563141   17.687151   23.793586 H          1 MOL1         0.0976
      19    H13     19.992097   18.169355   25.423719 H          1 MOL1         0.0976
      20    C6      21.693016   17.563121   24.228566 C.3        1 MOL1        -0.2365
      21    H14     22.007282   17.512698   23.178683 H          1 MOL1         0.0987
      22    H15     21.659597   16.535697   24.613435 H          1 MOL1         0.0987
      23    H16     22.461663   18.107965   24.791832 H          1 MOL1         0.0987
@<TRIPOS>BOND
    1     1     2    1
    2     1     3    1
    3     1     4    1
    4     1     5    1
    5     5     6    1
    6     5     7    1
    7     5     8    1
    8     8     9    1
    9     8    10    1
   10     8    11    1
   11    11    12    1
   12    11    13    1
   13    11    14    1
   14    14    15    1
   15    14    16    1
   16    14    17    1
   17    17    18    1
   18    17    19    1
   19    17    20    1
   20    20    21    1
   21    20    22    1
   22    20    23    1
@<TRIPOS>SUBSTRUCTURE
       1 MOL1            1 RESIDUE      1      MOL     
@<SCITEGIC>MOL_PROPERTY
VConf Rank
SciTegic.value.IntegerValue
893

@<SCITEGIC>MOL_PROPERTY
Conf_Id
SciTegic.value.IntegerValue
90

@<SCITEGIC>MOL_PROPERTY
Delta U+W
SciTegic.value.DoubleValue
1.131

@<SCITEGIC>MOL_PROPERTY
U+W
SciTegic.value.DoubleValue
-7.251

@<SCITEGIC>MOL_PROPERTY
Grad RMS
SciTegic.value.DoubleValue
0.000000

@<SCITEGIC>MOL_PROPERTY
U
SciTegic.value.DoubleValue
48.641

@<SCITEGIC>MOL_PROPERTY
W
SciTegic.value.DoubleValue
-55.892

@<SCITEGIC>MOL_PROPERTY
W(PB)
SciTegic.value.DoubleValue
-57.962

@<SCITEGIC>MOL_PROPERTY
W(SA)
SciTegic.value.DoubleValue
2.070

@<SCITEGIC>MOL_PROPERTY
Valence
SciTegic.value.DoubleValue
2.922

@<SCITEGIC>MOL_PROPERTY
Coulomb
SciTegic.value.DoubleValue
45.269

@<SCITEGIC>MOL_PROPERTY
VdW
SciTegic.value.DoubleValue
0.450

@<SCITEGIC>MOL_PROPERTY
VdW6
SciTegic.value.DoubleValue
-7.045

@<SCITEGIC>MOL_PROPERTY
VdW12
SciTegic.value.DoubleValue
7.495

@<SCITEGIC>MOL_PROPERTY
Bond
SciTegic.value.DoubleValue
0.220

@<SCITEGIC>MOL_PROPERTY
Angle
SciTegic.value.DoubleValue
1.205

@<SCITEGIC>MOL_PROPERTY
Pdih
SciTegic.value.DoubleValue
1.497

@<SCITEGIC>MOL_PROPERTY
Idih
SciTegic.value.DoubleValue
0.000

@<SCITEGIC>MOL_PROPERTY
Tether
SciTegic.value.DoubleValue
0.000

@<TRIPOS>MOLECULE
guest-2_confgen4.mol2 : confsearch ligand conformer 894
          23          22           1
SMALL
USER_CHARGES
 
@<TRIPOS>ATOM
       1    N1      20.840325   19.032954   20.154975 N.4        1 MOL1        -0.5940
       2    H1      20.822179   19.684345   19.363008 H          1 MOL1         0.3649
       3    H2      19.866619   18.826594   20.397740 H          1 MOL1         0.3649
       4    H3      21.260140   18.161523   19.815952 H          1 MOL1         0.3649
       5    C1      21.601973   19.602611   21.335559 C.3        1 MOL1         0.0207
       6    H4      21.123646   20.541416   21.626361 H          1 MOL1         0.0950
       7    H5      22.617097   19.829706   20.998704 H          1 MOL1         0.0950
       8    C2      21.665985   18.652243   22.548651 C.3        1 MOL1        -0.1415
       9    H6      22.190073   17.732242   22.257586 H          1 MOL1         0.0976
      10    H7      22.279952   19.119593   23.329978 H          1 MOL1         0.0976
      11    C3      20.279791   18.288202   23.137313 C.3        1 MOL1        -0.1375
      12    H8      20.427652   17.600343   23.981172 H          1 MOL1         0.0976
      13    H9      19.698588   17.734192   22.389396 H          1 MOL1         0.0976
      14    C4      19.483451   19.525323   23.623984 C.3        1 MOL1        -0.1375
      15    H10     20.114386   20.111919   24.305961 H          1 MOL1         0.0976
      16    H11     19.249299   20.182936   22.776252 H          1 MOL1         0.0976
      17    C5      18.171751   19.160013   24.359773 C.3        1 MOL1        -0.1350
      18    H12     17.725575   20.079865   24.763050 H          1 MOL1         0.0976
      19    H13     18.396218   18.522260   25.226182 H          1 MOL1         0.0976
      20    C6      17.134521   18.459327   23.452950 C.3        1 MOL1        -0.2365
      21    H14     16.912544   19.065417   22.565076 H          1 MOL1         0.0987
      22    H15     16.193405   18.303131   23.995940 H          1 MOL1         0.0987
      23    H16     17.489075   17.476252   23.119385 H          1 MOL1         0.0987
@<TRIPOS>BOND
    1     1     2    1
    2     1     3    1
    3     1     4    1
    4     1     5    1
    5     5     6    1
    6     5     7    1
    7     5     8    1
    8     8     9    1
    9     8    10    1
   10     8    11    1
   11    11    12    1
   12    11    13    1
   13    11    14    1
   14    14    15    1
   15    14    16    1
   16    14    17    1
   17    17    18    1
   18    17    19    1
   19    17    20    1
   20    20    21    1
   21    20    22    1
   22    20    23    1
@<TRIPOS>SUBSTRUCTURE
       1 MOL1            1 RESIDUE      1      MOL     
@<SCITEGIC>MOL_PROPERTY
VConf Rank
SciTegic.value.IntegerValue
894

@<SCITEGIC>MOL_PROPERTY
Conf_Id
SciTegic.value.IntegerValue
85

@<SCITEGIC>MOL_PROPERTY
Delta U+W
SciTegic.value.DoubleValue
1.193

@<SCITEGIC>MOL_PROPERTY
U+W
SciTegic.value.DoubleValue
-7.189

@<SCITEGIC>MOL_PROPERTY
Grad RMS
SciTegic.value.DoubleValue
0.000000

@<SCITEGIC>MOL_PROPERTY
U
SciTegic.value.DoubleValue
48.775

@<SCITEGIC>MOL_PROPERTY
W
SciTegic.value.DoubleValue
-55.965

@<SCITEGIC>MOL_PROPERTY
W(PB)
SciTegic.value.DoubleValue
-58.038

@<SCITEGIC>MOL_PROPERTY
W(SA)
SciTegic.value.DoubleValue
2.073

@<SCITEGIC>MOL_PROPERTY
Valence
SciTegic.value.DoubleValue
2.602

@<SCITEGIC>MOL_PROPERTY
Coulomb
SciTegic.value.DoubleValue
45.581

@<SCITEGIC>MOL_PROPERTY
VdW
SciTegic.value.DoubleValue
0.592

@<SCITEGIC>MOL_PROPERTY
VdW6
SciTegic.value.DoubleValue
-6.616

@<SCITEGIC>MOL_PROPERTY
VdW12
SciTegic.value.DoubleValue
7.208

@<SCITEGIC>MOL_PROPERTY
Bond
SciTegic.value.DoubleValue
0.196

@<SCITEGIC>MOL_PROPERTY
Angle
SciTegic.value.DoubleValue
0.832

@<SCITEGIC>MOL_PROPERTY
Pdih
SciTegic.value.DoubleValue
1.574

@<SCITEGIC>MOL_PROPERTY
Idih
SciTegic.value.DoubleValue
0.000

@<SCITEGIC>MOL_PROPERTY
Tether
SciTegic.value.DoubleValue
0.000

@<TRIPOS>MOLECULE
guest-2_confgen4.mol2 : confsearch ligand conformer 895
          23          22           1
SMALL
USER_CHARGES
 
@<TRIPOS>ATOM
       1    N1      18.203502   19.928974   23.537834 N.4        1 MOL1        -0.5940
       2    H1      19.106267   20.189131   23.127951 H          1 MOL1         0.3649
       3    H2      18.149619   20.364934   24.464839 H          1 MOL1         0.3649
       4    H3      17.471280   20.358332   22.962927 H          1 MOL1         0.3649
       5    C1      18.045586   18.422683   23.614079 C.3        1 MOL1         0.0207
       6    H4      17.065415   18.226424   24.057089 H          1 MOL1         0.0950
       7    H5      18.808359   18.024125   24.288212 H          1 MOL1         0.0950
       8    C2      18.131415   17.713042   22.247419 C.3        1 MOL1        -0.1415
       9    H6      17.625551   16.743069   22.342768 H          1 MOL1         0.0976
      10    H7      17.557380   18.276658   21.499961 H          1 MOL1         0.0976
      11    C3      19.570154   17.447868   21.727972 C.3        1 MOL1        -0.1375
      12    H8      19.481183   16.893011   20.783662 H          1 MOL1         0.0976
      13    H9      20.098804   16.773342   22.415731 H          1 MOL1         0.0976
      14    C4      20.423019   18.714711   21.461527 C.3        1 MOL1        -0.1375
      15    H10     21.052427   18.532317   20.579305 H          1 MOL1         0.0976
      16    H11     19.774386   19.558691   21.191903 H          1 MOL1         0.0976
      17    C5      21.355052   19.081415   22.642181 C.3        1 MOL1        -0.1350
      18    H12     22.100586   18.284886   22.775803 H          1 MOL1         0.0976
      19    H13     20.797290   19.133790   23.584749 H          1 MOL1         0.0976
      20    C6      22.082443   20.420896   22.400268 C.3        1 MOL1        -0.2365
      21    H14     22.692707   20.378381   21.488600 H          1 MOL1         0.0987
      22    H15     22.749266   20.656798   23.239836 H          1 MOL1         0.0987
      23    H16     21.369116   21.248360   22.294276 H          1 MOL1         0.0987
@<TRIPOS>BOND
    1     1     2    1
    2     1     3    1
    3     1     4    1
    4     1     5    1
    5     5     6    1
    6     5     7    1
    7     5     8    1
    8     8     9    1
    9     8    10    1
   10     8    11    1
   11    11    12    1
   12    11    13    1
   13    11    14    1
   14    14    15    1
   15    14    16    1
   16    14    17    1
   17    17    18    1
   18    17    19    1
   19    17    20    1
   20    20    21    1
   21    20    22    1
   22    20    23    1
@<TRIPOS>SUBSTRUCTURE
       1 MOL1            1 RESIDUE      1      MOL     
@<SCITEGIC>MOL_PROPERTY
VConf Rank
SciTegic.value.IntegerValue
895

@<SCITEGIC>MOL_PROPERTY
Conf_Id
SciTegic.value.IntegerValue
82

@<SCITEGIC>MOL_PROPERTY
Delta U+W
SciTegic.value.DoubleValue
5.994

@<SCITEGIC>MOL_PROPERTY
U+W
SciTegic.value.DoubleValue
-2.388

@<SCITEGIC>MOL_PROPERTY
Grad RMS
SciTegic.value.DoubleValue
0.000000

@<SCITEGIC>MOL_PROPERTY
U
SciTegic.value.DoubleValue
52.836

@<SCITEGIC>MOL_PROPERTY
W
SciTegic.value.DoubleValue
-55.224

@<SCITEGIC>MOL_PROPERTY
W(PB)
SciTegic.value.DoubleValue
-57.261

@<SCITEGIC>MOL_PROPERTY
W(SA)
SciTegic.value.DoubleValue
2.037

@<SCITEGIC>MOL_PROPERTY
Valence
SciTegic.value.DoubleValue
5.785

@<SCITEGIC>MOL_PROPERTY
Coulomb
SciTegic.value.DoubleValue
46.744

@<SCITEGIC>MOL_PROPERTY
VdW
SciTegic.value.DoubleValue
0.307

@<SCITEGIC>MOL_PROPERTY
VdW6
SciTegic.value.DoubleValue
-7.672

@<SCITEGIC>MOL_PROPERTY
VdW12
SciTegic.value.DoubleValue
7.979

@<SCITEGIC>MOL_PROPERTY
Bond
SciTegic.value.DoubleValue
0.217

@<SCITEGIC>MOL_PROPERTY
Angle
SciTegic.value.DoubleValue
1.470

@<SCITEGIC>MOL_PROPERTY
Pdih
SciTegic.value.DoubleValue
4.098

@<SCITEGIC>MOL_PROPERTY
Idih
SciTegic.value.DoubleValue
0.000

@<SCITEGIC>MOL_PROPERTY
Tether
SciTegic.value.DoubleValue
0.000

@<TRIPOS>MOLECULE
guest-2_confgen4.mol2 : confsearch ligand conformer 896
          23          22           1
SMALL
USER_CHARGES
 
@<TRIPOS>ATOM
       1    N1      21.672101   19.240965   23.533020 N.4        1 MOL1        -0.5940
       2    H1      21.695266   19.892519   24.324194 H          1 MOL1         0.3649
       3    H2      22.504355   18.646367   23.611166 H          1 MOL1         0.3649
       4    H3      20.851701   18.638958   23.656335 H          1 MOL1         0.3649
       5    C1      21.625375   19.972330   22.205399 C.3        1 MOL1         0.0207
       6    H4      21.667990   19.236266   21.398231 H          1 MOL1         0.0950
       7    H5      22.525939   20.589852   22.149181 H          1 MOL1         0.0950
       8    C2      20.385792   20.872841   22.028674 C.3        1 MOL1        -0.1415
       9    H6      20.196323   21.429535   22.956072 H          1 MOL1         0.0976
      10    H7      20.628407   21.629539   21.270793 H          1 MOL1         0.0976
      11    C3      19.095287   20.141086   21.571240 C.3        1 MOL1        -0.1375
      12    H8      19.248636   19.695596   20.578520 H          1 MOL1         0.0976
      13    H9      18.316664   20.904093   21.433150 H          1 MOL1         0.0976
      14    C4      18.552659   19.074838   22.557107 C.3        1 MOL1        -0.1375
      15    H10     18.826927   19.336748   23.587595 H          1 MOL1         0.0976
      16    H11     17.454352   19.099961   22.528318 H          1 MOL1         0.0976
      17    C5      19.004039   17.635696   22.207496 C.3        1 MOL1        -0.1350
      18    H12     20.091643   17.582712   22.078677 H          1 MOL1         0.0976
      19    H13     18.570424   17.345204   21.240167 H          1 MOL1         0.0976
      20    C6      18.564080   16.622050   23.284894 C.3        1 MOL1        -0.2365
      21    H14     19.005263   16.861260   24.261061 H          1 MOL1         0.0987
      22    H15     18.879275   15.606251   23.012893 H          1 MOL1         0.0987
      23    H16     17.471943   16.615918   23.396999 H          1 MOL1         0.0987
@<TRIPOS>BOND
    1     1     2    1
    2     1     3    1
    3     1     4    1
    4     1     5    1
    5     5     6    1
    6     5     7    1
    7     5     8    1
    8     8     9    1
    9     8    10    1
   10     8    11    1
   11    11    12    1
   12    11    13    1
   13    11    14    1
   14    14    15    1
   15    14    16    1
   16    14    17    1
   17    17    18    1
   18    17    19    1
   19    17    20    1
   20    20    21    1
   21    20    22    1
   22    20    23    1
@<TRIPOS>SUBSTRUCTURE
       1 MOL1            1 RESIDUE      1      MOL     
@<SCITEGIC>MOL_PROPERTY
VConf Rank
SciTegic.value.IntegerValue
896

@<SCITEGIC>MOL_PROPERTY
Conf_Id
SciTegic.value.IntegerValue
5

@<SCITEGIC>MOL_PROPERTY
Delta U+W
SciTegic.value.DoubleValue
6.087

@<SCITEGIC>MOL_PROPERTY
U+W
SciTegic.value.DoubleValue
-2.295

@<SCITEGIC>MOL_PROPERTY
Grad RMS
SciTegic.value.DoubleValue
0.000000

@<SCITEGIC>MOL_PROPERTY
U
SciTegic.value.DoubleValue
52.836

@<SCITEGIC>MOL_PROPERTY
W
SciTegic.value.DoubleValue
-55.131

@<SCITEGIC>MOL_PROPERTY
W(PB)
SciTegic.value.DoubleValue
-57.202

@<SCITEGIC>MOL_PROPERTY
W(SA)
SciTegic.value.DoubleValue
2.071

@<SCITEGIC>MOL_PROPERTY
Valence
SciTegic.value.DoubleValue
5.785

@<SCITEGIC>MOL_PROPERTY
Coulomb
SciTegic.value.DoubleValue
46.744

@<SCITEGIC>MOL_PROPERTY
VdW
SciTegic.value.DoubleValue
0.307

@<SCITEGIC>MOL_PROPERTY
VdW6
SciTegic.value.DoubleValue
-7.672

@<SCITEGIC>MOL_PROPERTY
VdW12
SciTegic.value.DoubleValue
7.980

@<SCITEGIC>MOL_PROPERTY
Bond
SciTegic.value.DoubleValue
0.217

@<SCITEGIC>MOL_PROPERTY
Angle
SciTegic.value.DoubleValue
1.470

@<SCITEGIC>MOL_PROPERTY
Pdih
SciTegic.value.DoubleValue
4.098

@<SCITEGIC>MOL_PROPERTY
Idih
SciTegic.value.DoubleValue
0.000

@<SCITEGIC>MOL_PROPERTY
Tether
SciTegic.value.DoubleValue
0.000

@<TRIPOS>MOLECULE
guest-2_confgen4.mol2 : confsearch ligand conformer 897
          23          22           1
SMALL
USER_CHARGES
 
@<TRIPOS>ATOM
       1    N1      18.735676   17.455594   19.244330 N.4        1 MOL1        -0.5940
       2    H1      19.667289   17.474886   18.817004 H          1 MOL1         0.3649
       3    H2      18.058080   17.601477   18.488238 H          1 MOL1         0.3649
       4    H3      18.586134   16.505422   19.598864 H          1 MOL1         0.3649
       5    C1      18.592740   18.495940   20.336643 C.3        1 MOL1         0.0207
       6    H4      17.572257   18.439387   20.725116 H          1 MOL1         0.0950
       7    H5      18.734309   19.481435   19.884698 H          1 MOL1         0.0950
       8    C2      19.596486   18.304801   21.487528 C.3        1 MOL1        -0.1415
       9    H6      19.461542   17.307737   21.927703 H          1 MOL1         0.0976
      10    H7      20.619495   18.346001   21.090220 H          1 MOL1         0.0976
      11    C3      19.418103   19.383758   22.578498 C.3        1 MOL1        -0.1375
      12    H8      18.391889   19.342788   22.969660 H          1 MOL1         0.0976
      13    H9      19.548658   20.379927   22.133073 H          1 MOL1         0.0976
      14    C4      20.421601   19.201276   23.739830 C.3        1 MOL1        -0.1375
      15    H10     20.291089   18.205314   24.185407 H          1 MOL1         0.0976
      16    H11     21.447756   19.242235   23.348879 H          1 MOL1         0.0976
      17    C5      20.242987   20.280568   24.830695 C.3        1 MOL1        -0.1350
      18    H12     19.218482   20.242047   25.226775 H          1 MOL1         0.0976
      19    H13     20.375059   21.278868   24.390323 H          1 MOL1         0.0976
      20    C6      21.246661   20.095104   25.988602 C.3        1 MOL1        -0.2365
      21    H14     21.104446   20.870234   26.752797 H          1 MOL1         0.0987
      22    H15     22.281592   20.162882   25.628665 H          1 MOL1         0.0987
      23    H16     21.115998   19.117947   26.471635 H          1 MOL1         0.0987
@<TRIPOS>BOND
    1     1     2    1
    2     1     3    1
    3     1     4    1
    4     1     5    1
    5     5     6    1
    6     5     7    1
    7     5     8    1
    8     8     9    1
    9     8    10    1
   10     8    11    1
   11    11    12    1
   12    11    13    1
   13    11    14    1
   14    14    15    1
   15    14    16    1
   16    14    17    1
   17    17    18    1
   18    17    19    1
   19    17    20    1
   20    20    21    1
   21    20    22    1
   22    20    23    1
@<TRIPOS>SUBSTRUCTURE
       1 MOL1            1 RESIDUE      1      MOL     
@<SCITEGIC>MOL_PROPERTY
VConf Rank
SciTegic.value.IntegerValue
897

@<SCITEGIC>MOL_PROPERTY
Conf_Id
SciTegic.value.IntegerValue
40

@<SCITEGIC>MOL_PROPERTY
Delta U+W
SciTegic.value.DoubleValue
0.000

@<SCITEGIC>MOL_PROPERTY
U+W
SciTegic.value.DoubleValue
-8.382

@<SCITEGIC>MOL_PROPERTY
Grad RMS
SciTegic.value.DoubleValue
0.000000

@<SCITEGIC>MOL_PROPERTY
U
SciTegic.value.DoubleValue
46.604

@<SCITEGIC>MOL_PROPERTY
W
SciTegic.value.DoubleValue
-54.986

@<SCITEGIC>MOL_PROPERTY
W(PB)
SciTegic.value.DoubleValue
-57.162

@<SCITEGIC>MOL_PROPERTY
W(SA)
SciTegic.value.DoubleValue
2.176

@<SCITEGIC>MOL_PROPERTY
Valence
SciTegic.value.DoubleValue
1.727

@<SCITEGIC>MOL_PROPERTY
Coulomb
SciTegic.value.DoubleValue
44.434

@<SCITEGIC>MOL_PROPERTY
VdW
SciTegic.value.DoubleValue
0.443

@<SCITEGIC>MOL_PROPERTY
VdW6
SciTegic.value.DoubleValue
-4.623

@<SCITEGIC>MOL_PROPERTY
VdW12
SciTegic.value.DoubleValue
5.066

@<SCITEGIC>MOL_PROPERTY
Bond
SciTegic.value.DoubleValue
0.112

@<SCITEGIC>MOL_PROPERTY
Angle
SciTegic.value.DoubleValue
0.386

@<SCITEGIC>MOL_PROPERTY
Pdih
SciTegic.value.DoubleValue
1.228

@<SCITEGIC>MOL_PROPERTY
Idih
SciTegic.value.DoubleValue
0.000

@<SCITEGIC>MOL_PROPERTY
Tether
SciTegic.value.DoubleValue
0.000

@<TRIPOS>MOLECULE
guest-2_confgen4.mol2 : confsearch ligand conformer 898
          23          22           1
SMALL
USER_CHARGES
 
@<TRIPOS>ATOM
       1    N1      20.204473   21.576120   20.150963 N.4        1 MOL1        -0.5940
       2    H1      21.199329   21.694150   19.933774 H          1 MOL1         0.3649
       3    H2      19.929022   22.367108   20.741977 H          1 MOL1         0.3649
       4    H3      19.693222   21.672274   19.266992 H          1 MOL1         0.3649
       5    C1      19.925897   20.245836   20.820680 C.3        1 MOL1         0.0207
       6    H4      20.215176   19.451691   20.127094 H          1 MOL1         0.0950
       7    H5      18.848834   20.176944   20.993045 H          1 MOL1         0.0950
       8    C2      20.680591   20.070992   22.152220 C.3        1 MOL1        -0.1415
       9    H6      21.757137   20.190049   21.971056 H          1 MOL1         0.0976
      10    H7      20.389506   20.867705   22.849716 H          1 MOL1         0.0976
      11    C3      20.432577   18.690995   22.806223 C.3        1 MOL1        -0.1375
      12    H8      21.088949   18.603149   23.681676 H          1 MOL1         0.0976
      13    H9      20.733740   17.896171   22.109856 H          1 MOL1         0.0976
      14    C4      18.959095   18.478486   23.237809 C.3        1 MOL1        -0.1375
      15    H10     18.665017   19.261616   23.950162 H          1 MOL1         0.0976
      16    H11     18.301057   18.590958   22.366120 H          1 MOL1         0.0976
      17    C5      18.695020   17.087129   23.863040 C.3        1 MOL1        -0.1350
      18    H12     18.977649   16.299528   23.150576 H          1 MOL1         0.0976
      19    H13     17.614495   16.976083   24.030395 H          1 MOL1         0.0976
      20    C6      19.430241   16.863823   25.204299 C.3        1 MOL1        -0.2365
      21    H14     20.518575   16.839545   25.069404 H          1 MOL1         0.0987
      22    H15     19.132686   15.905896   25.650151 H          1 MOL1         0.0987
      23    H16     19.189708   17.657425   25.923569 H          1 MOL1         0.0987
@<TRIPOS>BOND
    1     1     2    1
    2     1     3    1
    3     1     4    1
    4     1     5    1
    5     5     6    1
    6     5     7    1
    7     5     8    1
    8     8     9    1
    9     8    10    1
   10     8    11    1
   11    11    12    1
   12    11    13    1
   13    11    14    1
   14    14    15    1
   15    14    16    1
   16    14    17    1
   17    17    18    1
   18    17    19    1
   19    17    20    1
   20    20    21    1
   21    20    22    1
   22    20    23    1
@<TRIPOS>SUBSTRUCTURE
       1 MOL1            1 RESIDUE      1      MOL     
@<SCITEGIC>MOL_PROPERTY
VConf Rank
SciTegic.value.IntegerValue
898

@<SCITEGIC>MOL_PROPERTY
Conf_Id
SciTegic.value.IntegerValue
65

@<SCITEGIC>MOL_PROPERTY
Delta U+W
SciTegic.value.DoubleValue
1.004

@<SCITEGIC>MOL_PROPERTY
U+W
SciTegic.value.DoubleValue
-7.378

@<SCITEGIC>MOL_PROPERTY
Grad RMS
SciTegic.value.DoubleValue
0.000000

@<SCITEGIC>MOL_PROPERTY
U
SciTegic.value.DoubleValue
48.047

@<SCITEGIC>MOL_PROPERTY
W
SciTegic.value.DoubleValue
-55.425

@<SCITEGIC>MOL_PROPERTY
W(PB)
SciTegic.value.DoubleValue
-57.542

@<SCITEGIC>MOL_PROPERTY
W(SA)
SciTegic.value.DoubleValue
2.116

@<SCITEGIC>MOL_PROPERTY
Valence
SciTegic.value.DoubleValue
2.583

@<SCITEGIC>MOL_PROPERTY
Coulomb
SciTegic.value.DoubleValue
44.791

@<SCITEGIC>MOL_PROPERTY
VdW
SciTegic.value.DoubleValue
0.673

@<SCITEGIC>MOL_PROPERTY
VdW6
SciTegic.value.DoubleValue
-5.788

@<SCITEGIC>MOL_PROPERTY
VdW12
SciTegic.value.DoubleValue
6.462

@<SCITEGIC>MOL_PROPERTY
Bond
SciTegic.value.DoubleValue
0.177

@<SCITEGIC>MOL_PROPERTY
Angle
SciTegic.value.DoubleValue
0.787

@<SCITEGIC>MOL_PROPERTY
Pdih
SciTegic.value.DoubleValue
1.619

@<SCITEGIC>MOL_PROPERTY
Idih
SciTegic.value.DoubleValue
0.000

@<SCITEGIC>MOL_PROPERTY
Tether
SciTegic.value.DoubleValue
0.000

@<TRIPOS>MOLECULE
guest-2_confgen4.mol2 : confsearch ligand conformer 899
          23          22           1
SMALL
USER_CHARGES
 
@<TRIPOS>ATOM
       1    N1      21.066909   22.167341   23.701662 N.4        1 MOL1        -0.5940
       2    H1      20.555537   22.937242   23.258277 H          1 MOL1         0.3649
       3    H2      22.053527   22.445662   23.735580 H          1 MOL1         0.3649
       4    H3      20.740643   22.107843   24.671633 H          1 MOL1         0.3649
       5    C1      20.875822   20.860218   22.959578 C.3        1 MOL1         0.0207
       6    H4      21.470724   20.096925   23.467511 H          1 MOL1         0.0950
       7    H5      21.269135   20.986241   21.947238 H          1 MOL1         0.0950
       8    C2      19.402634   20.415040   22.891268 C.3        1 MOL1        -0.1415
       9    H6      19.007390   20.287148   23.907836 H          1 MOL1         0.0976
      10    H7      18.810072   21.211562   22.421832 H          1 MOL1         0.0976
      11    C3      19.207352   19.106692   22.088954 C.3        1 MOL1        -0.1375
      12    H8      19.594736   19.240865   21.069493 H          1 MOL1         0.0976
      13    H9      18.129776   18.921890   21.990772 H          1 MOL1         0.0976
      14    C4      19.886958   17.880552   22.750234 C.3        1 MOL1        -0.1375
      15    H10     20.960635   18.076098   22.870590 H          1 MOL1         0.0976
      16    H11     19.484084   17.734480   23.761953 H          1 MOL1         0.0976
      17    C5      19.724700   16.573398   21.936884 C.3        1 MOL1        -0.1350
      18    H12     20.329541   15.787267   22.410211 H          1 MOL1         0.0976
      19    H13     20.135695   16.710379   20.926875 H          1 MOL1         0.0976
      20    C6      18.261655   16.083736   21.841389 C.3        1 MOL1        -0.2365
      21    H14     17.639785   16.778750   21.263904 H          1 MOL1         0.0987
      22    H15     17.817047   15.970564   22.838648 H          1 MOL1         0.0987
      23    H16     18.215534   15.107758   21.341103 H          1 MOL1         0.0987
@<TRIPOS>BOND
    1     1     2    1
    2     1     3    1
    3     1     4    1
    4     1     5    1
    5     5     6    1
    6     5     7    1
    7     5     8    1
    8     8     9    1
    9     8    10    1
   10     8    11    1
   11    11    12    1
   12    11    13    1
   13    11    14    1
   14    14    15    1
   15    14    16    1
   16    14    17    1
   17    17    18    1
   18    17    19    1
   19    17    20    1
   20    20    21    1
   21    20    22    1
   22    20    23    1
@<TRIPOS>SUBSTRUCTURE
       1 MOL1            1 RESIDUE      1      MOL     
@<SCITEGIC>MOL_PROPERTY
VConf Rank
SciTegic.value.IntegerValue
899

@<SCITEGIC>MOL_PROPERTY
Conf_Id
SciTegic.value.IntegerValue
92

@<SCITEGIC>MOL_PROPERTY
Delta U+W
SciTegic.value.DoubleValue
0.973

@<SCITEGIC>MOL_PROPERTY
U+W
SciTegic.value.DoubleValue
-7.409

@<SCITEGIC>MOL_PROPERTY
Grad RMS
SciTegic.value.DoubleValue
0.000000

@<SCITEGIC>MOL_PROPERTY
U
SciTegic.value.DoubleValue
48.047

@<SCITEGIC>MOL_PROPERTY
W
SciTegic.value.DoubleValue
-55.456

@<SCITEGIC>MOL_PROPERTY
W(PB)
SciTegic.value.DoubleValue
-57.595

@<SCITEGIC>MOL_PROPERTY
W(SA)
SciTegic.value.DoubleValue
2.138

@<SCITEGIC>MOL_PROPERTY
Valence
SciTegic.value.DoubleValue
2.583

@<SCITEGIC>MOL_PROPERTY
Coulomb
SciTegic.value.DoubleValue
44.791

@<SCITEGIC>MOL_PROPERTY
VdW
SciTegic.value.DoubleValue
0.674

@<SCITEGIC>MOL_PROPERTY
VdW6
SciTegic.value.DoubleValue
-5.789

@<SCITEGIC>MOL_PROPERTY
VdW12
SciTegic.value.DoubleValue
6.462

@<SCITEGIC>MOL_PROPERTY
Bond
SciTegic.value.DoubleValue
0.177

@<SCITEGIC>MOL_PROPERTY
Angle
SciTegic.value.DoubleValue
0.787

@<SCITEGIC>MOL_PROPERTY
Pdih
SciTegic.value.DoubleValue
1.619

@<SCITEGIC>MOL_PROPERTY
Idih
SciTegic.value.DoubleValue
0.000

@<SCITEGIC>MOL_PROPERTY
Tether
SciTegic.value.DoubleValue
0.000

@<TRIPOS>MOLECULE
guest-2_confgen4.mol2 : confsearch ligand conformer 900
          23          22           1
SMALL
USER_CHARGES
 
@<TRIPOS>ATOM
       1    N1      22.831626   19.705333   24.158707 N.4        1 MOL1        -0.5940
       2    H1      23.398864   18.967156   24.589251 H          1 MOL1         0.3649
       3    H2      22.836569   20.500209   24.806009 H          1 MOL1         0.3649
       4    H3      23.324784   20.003810   23.311036 H          1 MOL1         0.3649
       5    C1      21.424722   19.230614   23.856978 C.3        1 MOL1         0.0207
       6    H4      20.970556   18.902413   24.795826 H          1 MOL1         0.0950
       7    H5      21.497992   18.367858   23.189913 H          1 MOL1         0.0950
       8    C2      20.546850   20.318041   23.209136 C.3        1 MOL1        -0.1415
       9    H6      20.517919   21.195613   23.868664 H          1 MOL1         0.0976
      10    H7      21.003515   20.648230   22.266572 H          1 MOL1         0.0976
      11    C3      19.099321   19.839998   22.946138 C.3        1 MOL1        -0.1375
      12    H8      18.510389   20.689256   22.572813 H          1 MOL1         0.0976
      13    H9      18.636383   19.534407   23.894796 H          1 MOL1         0.0976
      14    C4      19.018391   18.677829   21.927180 C.3        1 MOL1        -0.1375
      15    H10     19.511340   18.975042   20.991186 H          1 MOL1         0.0976
      16    H11     19.562536   17.804077   22.309960 H          1 MOL1         0.0976
      17    C5      17.556583   18.274254   21.632195 C.3        1 MOL1        -0.1350
      18    H12     17.004057   19.139721   21.240224 H          1 MOL1         0.0976
      19    H13     17.058352   17.976561   22.565535 H          1 MOL1         0.0976
      20    C6      17.477093   17.114279   20.616961 C.3        1 MOL1        -0.2365
      21    H14     17.938097   17.394258   19.660763 H          1 MOL1         0.0987
      22    H15     16.431924   16.842415   20.420092 H          1 MOL1         0.0987
      23    H16     17.991535   16.221655   20.996160 H          1 MOL1         0.0987
@<TRIPOS>BOND
    1     1     2    1
    2     1     3    1
    3     1     4    1
    4     1     5    1
    5     5     6    1
    6     5     7    1
    7     5     8    1
    8     8     9    1
    9     8    10    1
   10     8    11    1
   11    11    12    1
   12    11    13    1
   13    11    14    1
   14    14    15    1
   15    14    16    1
   16    14    17    1
   17    17    18    1
   18    17    19    1
   19    17    20    1
   20    20    21    1
   21    20    22    1
   22    20    23    1
@<TRIPOS>SUBSTRUCTURE
       1 MOL1            1 RESIDUE      1      MOL     
@<SCITEGIC>MOL_PROPERTY
VConf Rank
SciTegic.value.IntegerValue
900

@<SCITEGIC>MOL_PROPERTY
Conf_Id
SciTegic.value.IntegerValue
42

@<SCITEGIC>MOL_PROPERTY
Delta U+W
SciTegic.value.DoubleValue
0.365

@<SCITEGIC>MOL_PROPERTY
U+W
SciTegic.value.DoubleValue
-8.017

@<SCITEGIC>MOL_PROPERTY
Grad RMS
SciTegic.value.DoubleValue
0.000000

@<SCITEGIC>MOL_PROPERTY
U
SciTegic.value.DoubleValue
47.375

@<SCITEGIC>MOL_PROPERTY
W
SciTegic.value.DoubleValue
-55.392

@<SCITEGIC>MOL_PROPERTY
W(PB)
SciTegic.value.DoubleValue
-57.543

@<SCITEGIC>MOL_PROPERTY
W(SA)
SciTegic.value.DoubleValue
2.152

@<SCITEGIC>MOL_PROPERTY
Valence
SciTegic.value.DoubleValue
2.032

@<SCITEGIC>MOL_PROPERTY
Coulomb
SciTegic.value.DoubleValue
44.843

@<SCITEGIC>MOL_PROPERTY
VdW
SciTegic.value.DoubleValue
0.499

@<SCITEGIC>MOL_PROPERTY
VdW6
SciTegic.value.DoubleValue
-5.218

@<SCITEGIC>MOL_PROPERTY
VdW12
SciTegic.value.DoubleValue
5.717

@<SCITEGIC>MOL_PROPERTY
Bond
SciTegic.value.DoubleValue
0.135

@<SCITEGIC>MOL_PROPERTY
Angle
SciTegic.value.DoubleValue
0.514

@<SCITEGIC>MOL_PROPERTY
Pdih
SciTegic.value.DoubleValue
1.383

@<SCITEGIC>MOL_PROPERTY
Idih
SciTegic.value.DoubleValue
0.000

@<SCITEGIC>MOL_PROPERTY
Tether
SciTegic.value.DoubleValue
0.000

@<TRIPOS>MOLECULE
guest-2_confgen4.mol2 : confsearch ligand conformer 901
          23          22           1
SMALL
USER_CHARGES
 
@<TRIPOS>ATOM
       1    N1      19.327836   16.017940   23.663774 N.4        1 MOL1        -0.5940
       2    H1      19.167438   16.318060   24.630642 H          1 MOL1         0.3649
       3    H2      19.528535   15.012530   23.692416 H          1 MOL1         0.3649
       4    H3      18.442865   16.131877   23.160540 H          1 MOL1         0.3649
       5    C1      20.452504   16.797706   23.010573 C.3        1 MOL1         0.0207
       6    H4      20.587376   16.414575   21.995466 H          1 MOL1         0.0950
       7    H5      21.366417   16.594158   23.575286 H          1 MOL1         0.0950
       8    C2      20.211203   18.319146   22.963389 C.3        1 MOL1        -0.1415
       9    H6      20.048622   18.697103   23.981410 H          1 MOL1         0.0976
      10    H7      21.127110   18.792112   22.588507 H          1 MOL1         0.0976
      11    C3      19.021223   18.708513   22.052814 C.3        1 MOL1        -0.1375
      12    H8      18.126249   18.154127   22.364275 H          1 MOL1         0.0976
      13    H9      19.233169   18.392137   21.022090 H          1 MOL1         0.0976
      14    C4      18.673841   20.219873   22.065976 C.3        1 MOL1        -0.1375
      15    H10     17.794154   20.361775   21.422937 H          1 MOL1         0.0976
      16    H11     18.355746   20.525429   23.072294 H          1 MOL1         0.0976
      17    C5      19.800855   21.153283   21.553115 C.3        1 MOL1        -0.1350
      18    H12     19.341732   21.987820   21.004730 H          1 MOL1         0.0976
      19    H13     20.432831   20.625712   20.825191 H          1 MOL1         0.0976
      20    C6      20.667927   21.748894   22.687000 C.3        1 MOL1        -0.2365
      21    H14     20.054903   22.341700   23.378260 H          1 MOL1         0.0987
      22    H15     21.438103   22.412543   22.273100 H          1 MOL1         0.0987
      23    H16     21.176616   20.972808   23.269277 H          1 MOL1         0.0987
@<TRIPOS>BOND
    1     1     2    1
    2     1     3    1
    3     1     4    1
    4     1     5    1
    5     5     6    1
    6     5     7    1
    7     5     8    1
    8     8     9    1
    9     8    10    1
   10     8    11    1
   11    11    12    1
   12    11    13    1
   13    11    14    1
   14    14    15    1
   15    14    16    1
   16    14    17    1
   17    17    18    1
   18    17    19    1
   19    17    20    1
   20    20    21    1
   21    20    22    1
   22    20    23    1
@<TRIPOS>SUBSTRUCTURE
       1 MOL1            1 RESIDUE      1      MOL     
@<SCITEGIC>MOL_PROPERTY
VConf Rank
SciTegic.value.IntegerValue
901

@<SCITEGIC>MOL_PROPERTY
Conf_Id
SciTegic.value.IntegerValue
3

@<SCITEGIC>MOL_PROPERTY
Delta U+W
SciTegic.value.DoubleValue
3.283

@<SCITEGIC>MOL_PROPERTY
U+W
SciTegic.value.DoubleValue
-5.099

@<SCITEGIC>MOL_PROPERTY
Grad RMS
SciTegic.value.DoubleValue
0.000000

@<SCITEGIC>MOL_PROPERTY
U
SciTegic.value.DoubleValue
50.701

@<SCITEGIC>MOL_PROPERTY
W
SciTegic.value.DoubleValue
-55.800

@<SCITEGIC>MOL_PROPERTY
W(PB)
SciTegic.value.DoubleValue
-57.867

@<SCITEGIC>MOL_PROPERTY
W(SA)
SciTegic.value.DoubleValue
2.067

@<SCITEGIC>MOL_PROPERTY
Valence
SciTegic.value.DoubleValue
4.880

@<SCITEGIC>MOL_PROPERTY
Coulomb
SciTegic.value.DoubleValue
45.095

@<SCITEGIC>MOL_PROPERTY
VdW
SciTegic.value.DoubleValue
0.726

@<SCITEGIC>MOL_PROPERTY
VdW6
SciTegic.value.DoubleValue
-6.620

@<SCITEGIC>MOL_PROPERTY
VdW12
SciTegic.value.DoubleValue
7.346

@<SCITEGIC>MOL_PROPERTY
Bond
SciTegic.value.DoubleValue
0.222

@<SCITEGIC>MOL_PROPERTY
Angle
SciTegic.value.DoubleValue
1.260

@<SCITEGIC>MOL_PROPERTY
Pdih
SciTegic.value.DoubleValue
3.398

@<SCITEGIC>MOL_PROPERTY
Idih
SciTegic.value.DoubleValue
0.000

@<SCITEGIC>MOL_PROPERTY
Tether
SciTegic.value.DoubleValue
0.000

@<TRIPOS>MOLECULE
guest-2_confgen4.mol2 : confsearch ligand conformer 902
          23          22           1
SMALL
USER_CHARGES
 
@<TRIPOS>ATOM
       1    N1      22.574287   19.547595   21.868151 N.4        1 MOL1        -0.5940
       2    H1      23.161720   19.812198   22.665310 H          1 MOL1         0.3649
       3    H2      23.188016   19.496403   21.048059 H          1 MOL1         0.3649
       4    H3      22.230453   18.599107   22.046329 H          1 MOL1         0.3649
       5    C1      21.434956   20.525618   21.659135 C.3        1 MOL1         0.0207
       6    H4      20.869307   20.204733   20.780748 H          1 MOL1         0.0950
       7    H5      21.872125   21.503771   21.440900 H          1 MOL1         0.0950
       8    C2      20.491388   20.647147   22.873296 C.3        1 MOL1        -0.1415
       9    H6      21.062412   21.019402   23.734204 H          1 MOL1         0.0976
      10    H7      19.733914   21.411816   22.655643 H          1 MOL1         0.0976
      11    C3      19.784031   19.324429   23.262797 C.3        1 MOL1        -0.1375
      12    H8      19.175135   19.515060   24.155982 H          1 MOL1         0.0976
      13    H9      20.529805   18.573684   23.555971 H          1 MOL1         0.0976
      14    C4      18.885088   18.758118   22.134248 C.3        1 MOL1        -0.1375
      15    H10     18.122039   19.500022   21.861298 H          1 MOL1         0.0976
      16    H11     19.488575   18.589871   21.232666 H          1 MOL1         0.0976
      17    C5      18.196283   17.422793   22.506944 C.3        1 MOL1        -0.1350
      18    H12     18.955520   16.673245   22.770499 H          1 MOL1         0.0976
      19    H13     17.677584   17.034939   21.619034 H          1 MOL1         0.0976
      20    C6      17.174737   17.556079   23.659344 C.3        1 MOL1        -0.2365
      21    H14     16.423303   18.323995   23.434268 H          1 MOL1         0.0987
      22    H15     17.664287   17.819926   24.604845 H          1 MOL1         0.0987
      23    H16     16.646995   16.606417   23.816074 H          1 MOL1         0.0987
@<TRIPOS>BOND
    1     1     2    1
    2     1     3    1
    3     1     4    1
    4     1     5    1
    5     5     6    1
    6     5     7    1
    7     5     8    1
    8     8     9    1
    9     8    10    1
   10     8    11    1
   11    11    12    1
   12    11    13    1
   13    11    14    1
   14    14    15    1
   15    14    16    1
   16    14    17    1
   17    17    18    1
   18    17    19    1
   19    17    20    1
   20    20    21    1
   21    20    22    1
   22    20    23    1
@<TRIPOS>SUBSTRUCTURE
       1 MOL1            1 RESIDUE      1      MOL     
@<SCITEGIC>MOL_PROPERTY
VConf Rank
SciTegic.value.IntegerValue
902

@<SCITEGIC>MOL_PROPERTY
Conf_Id
SciTegic.value.IntegerValue
83

@<SCITEGIC>MOL_PROPERTY
Delta U+W
SciTegic.value.DoubleValue
1.229

@<SCITEGIC>MOL_PROPERTY
U+W
SciTegic.value.DoubleValue
-7.154

@<SCITEGIC>MOL_PROPERTY
Grad RMS
SciTegic.value.DoubleValue
0.000000

@<SCITEGIC>MOL_PROPERTY
U
SciTegic.value.DoubleValue
48.727

@<SCITEGIC>MOL_PROPERTY
W
SciTegic.value.DoubleValue
-55.880

@<SCITEGIC>MOL_PROPERTY
W(PB)
SciTegic.value.DoubleValue
-57.960

@<SCITEGIC>MOL_PROPERTY
W(SA)
SciTegic.value.DoubleValue
2.080

@<SCITEGIC>MOL_PROPERTY
Valence
SciTegic.value.DoubleValue
2.671

@<SCITEGIC>MOL_PROPERTY
Coulomb
SciTegic.value.DoubleValue
45.371

@<SCITEGIC>MOL_PROPERTY
VdW
SciTegic.value.DoubleValue
0.684

@<SCITEGIC>MOL_PROPERTY
VdW6
SciTegic.value.DoubleValue
-6.511

@<SCITEGIC>MOL_PROPERTY
VdW12
SciTegic.value.DoubleValue
7.195

@<SCITEGIC>MOL_PROPERTY
Bond
SciTegic.value.DoubleValue
0.203

@<SCITEGIC>MOL_PROPERTY
Angle
SciTegic.value.DoubleValue
0.915

@<SCITEGIC>MOL_PROPERTY
Pdih
SciTegic.value.DoubleValue
1.554

@<SCITEGIC>MOL_PROPERTY
Idih
SciTegic.value.DoubleValue
0.000

@<SCITEGIC>MOL_PROPERTY
Tether
SciTegic.value.DoubleValue
0.000

@<TRIPOS>MOLECULE
guest-2_confgen4.mol2 : confsearch ligand conformer 903
          23          22           1
SMALL
USER_CHARGES
 
@<TRIPOS>ATOM
       1    N1      19.749212   20.918282   24.788373 N.4        1 MOL1        -0.5940
       2    H1      19.061635   21.672394   24.692949 H          1 MOL1         0.3649
       3    H2      20.405496   21.005432   24.006518 H          1 MOL1         0.3649
       4    H3      20.278111   21.102449   25.647549 H          1 MOL1         0.3649
       5    C1      19.088610   19.554025   24.814849 C.3        1 MOL1         0.0207
       6    H4      18.432266   19.519222   25.688649 H          1 MOL1         0.0950
       7    H5      19.869758   18.801459   24.948799 H          1 MOL1         0.0950
       8    C2      18.268847   19.237250   23.547205 C.3        1 MOL1        -0.1415
       9    H6      17.784695   18.260054   23.675832 H          1 MOL1         0.0976
      10    H7      17.456719   19.970432   23.453947 H          1 MOL1         0.0976
      11    C3      19.100233   19.226692   22.239408 C.3        1 MOL1        -0.1375
      12    H8      19.528150   20.221934   22.060161 H          1 MOL1         0.0976
      13    H9      18.415793   19.033438   21.403304 H          1 MOL1         0.0976
      14    C4      20.227994   18.163405   22.242037 C.3        1 MOL1        -0.1375
      15    H10     20.899415   18.341320   23.092269 H          1 MOL1         0.0976
      16    H11     19.795153   17.165011   22.393786 H          1 MOL1         0.0976
      17    C5      21.079563   18.165472   20.949261 C.3        1 MOL1        -0.1350
      18    H12     21.920401   17.470132   21.081004 H          1 MOL1         0.0976
      19    H13     21.524034   19.159092   20.797961 H          1 MOL1         0.0976
      20    C6      20.287328   17.752334   19.687904 C.3        1 MOL1        -0.2365
      21    H14     19.805306   16.775870   19.826399 H          1 MOL1         0.0987
      22    H15     20.957465   17.675538   18.821905 H          1 MOL1         0.0987
      23    H16     19.511757   18.487077   19.439138 H          1 MOL1         0.0987
@<TRIPOS>BOND
    1     1     2    1
    2     1     3    1
    3     1     4    1
    4     1     5    1
    5     5     6    1
    6     5     7    1
    7     5     8    1
    8     8     9    1
    9     8    10    1
   10     8    11    1
   11    11    12    1
   12    11    13    1
   13    11    14    1
   14    14    15    1
   15    14    16    1
   16    14    17    1
   17    17    18    1
   18    17    19    1
   19    17    20    1
   20    20    21    1
   21    20    22    1
   22    20    23    1
@<TRIPOS>SUBSTRUCTURE
       1 MOL1            1 RESIDUE      1      MOL     
@<SCITEGIC>MOL_PROPERTY
VConf Rank
SciTegic.value.IntegerValue
903

@<SCITEGIC>MOL_PROPERTY
Conf_Id
SciTegic.value.IntegerValue
50

@<SCITEGIC>MOL_PROPERTY
Delta U+W
SciTegic.value.DoubleValue
1.252

@<SCITEGIC>MOL_PROPERTY
U+W
SciTegic.value.DoubleValue
-7.130

@<SCITEGIC>MOL_PROPERTY
Grad RMS
SciTegic.value.DoubleValue
0.000000

@<SCITEGIC>MOL_PROPERTY
U
SciTegic.value.DoubleValue
48.727

@<SCITEGIC>MOL_PROPERTY
W
SciTegic.value.DoubleValue
-55.857

@<SCITEGIC>MOL_PROPERTY
W(PB)
SciTegic.value.DoubleValue
-57.937

@<SCITEGIC>MOL_PROPERTY
W(SA)
SciTegic.value.DoubleValue
2.080

@<SCITEGIC>MOL_PROPERTY
Valence
SciTegic.value.DoubleValue
2.671

@<SCITEGIC>MOL_PROPERTY
Coulomb
SciTegic.value.DoubleValue
45.371

@<SCITEGIC>MOL_PROPERTY
VdW
SciTegic.value.DoubleValue
0.684

@<SCITEGIC>MOL_PROPERTY
VdW6
SciTegic.value.DoubleValue
-6.511

@<SCITEGIC>MOL_PROPERTY
VdW12
SciTegic.value.DoubleValue
7.196

@<SCITEGIC>MOL_PROPERTY
Bond
SciTegic.value.DoubleValue
0.203

@<SCITEGIC>MOL_PROPERTY
Angle
SciTegic.value.DoubleValue
0.915

@<SCITEGIC>MOL_PROPERTY
Pdih
SciTegic.value.DoubleValue
1.554

@<SCITEGIC>MOL_PROPERTY
Idih
SciTegic.value.DoubleValue
0.000

@<SCITEGIC>MOL_PROPERTY
Tether
SciTegic.value.DoubleValue
0.000

@<TRIPOS>MOLECULE
guest-2_confgen4.mol2 : confsearch ligand conformer 904
          23          22           1
SMALL
USER_CHARGES
 
@<TRIPOS>ATOM
       1    N1      19.600016   16.201205   21.230881 N.4        1 MOL1        -0.5940
       2    H1      18.666238   16.591197   21.071198 H          1 MOL1         0.3649
       3    H2      19.484760   15.189828   21.356424 H          1 MOL1         0.3649
       4    H3      20.136506   16.335858   20.367938 H          1 MOL1         0.3649
       5    C1      20.281258   16.842375   22.424217 C.3        1 MOL1         0.0207
       6    H4      21.248695   16.350470   22.557133 H          1 MOL1         0.0950
       7    H5      19.672944   16.642048   23.310353 H          1 MOL1         0.0950
       8    C2      20.496844   18.361043   22.276130 C.3        1 MOL1        -0.1415
       9    H6      21.088309   18.708080   23.130763 H          1 MOL1         0.0976
      10    H7      21.103694   18.557350   21.382282 H          1 MOL1         0.0976
      11    C3      19.164057   19.147860   22.190829 C.3        1 MOL1        -0.1375
      12    H8      18.509867   18.884724   23.033534 H          1 MOL1         0.0976
      13    H9      18.631811   18.834785   21.282707 H          1 MOL1         0.0976
      14    C4      19.360102   20.685392   22.130277 C.3        1 MOL1        -0.1375
      15    H10     20.318719   20.929480   21.652086 H          1 MOL1         0.0976
      16    H11     18.586432   21.103415   21.471350 H          1 MOL1         0.0976
      17    C5      19.246919   21.407593   23.497325 C.3        1 MOL1        -0.1350
      18    H12     18.246487   21.240500   23.920398 H          1 MOL1         0.0976
      19    H13     19.327690   22.490338   23.327175 H          1 MOL1         0.0976
      20    C6      20.315982   20.987968   24.529822 C.3        1 MOL1        -0.2365
      21    H14     21.327624   21.087993   24.115804 H          1 MOL1         0.0987
      22    H15     20.171155   19.950189   24.854344 H          1 MOL1         0.0987
      23    H16     20.255128   21.621958   25.423825 H          1 MOL1         0.0987
@<TRIPOS>BOND
    1     1     2    1
    2     1     3    1
    3     1     4    1
    4     1     5    1
    5     5     6    1
    6     5     7    1
    7     5     8    1
    8     8     9    1
    9     8    10    1
   10     8    11    1
   11    11    12    1
   12    11    13    1
   13    11    14    1
   14    14    15    1
   15    14    16    1
   16    14    17    1
   17    17    18    1
   18    17    19    1
   19    17    20    1
   20    20    21    1
   21    20    22    1
   22    20    23    1
@<TRIPOS>SUBSTRUCTURE
       1 MOL1            1 RESIDUE      1      MOL     
@<SCITEGIC>MOL_PROPERTY
VConf Rank
SciTegic.value.IntegerValue
904

@<SCITEGIC>MOL_PROPERTY
Conf_Id
SciTegic.value.IntegerValue
55

@<SCITEGIC>MOL_PROPERTY
Delta U+W
SciTegic.value.DoubleValue
3.232

@<SCITEGIC>MOL_PROPERTY
U+W
SciTegic.value.DoubleValue
-5.150

@<SCITEGIC>MOL_PROPERTY
Grad RMS
SciTegic.value.DoubleValue
0.000000

@<SCITEGIC>MOL_PROPERTY
U
SciTegic.value.DoubleValue
50.625

@<SCITEGIC>MOL_PROPERTY
W
SciTegic.value.DoubleValue
-55.776

@<SCITEGIC>MOL_PROPERTY
W(PB)
SciTegic.value.DoubleValue
-57.839

@<SCITEGIC>MOL_PROPERTY
W(SA)
SciTegic.value.DoubleValue
2.064

@<SCITEGIC>MOL_PROPERTY
Valence
SciTegic.value.DoubleValue
4.837

@<SCITEGIC>MOL_PROPERTY
Coulomb
SciTegic.value.DoubleValue
45.097

@<SCITEGIC>MOL_PROPERTY
VdW
SciTegic.value.DoubleValue
0.692

@<SCITEGIC>MOL_PROPERTY
VdW6
SciTegic.value.DoubleValue
-6.655

@<SCITEGIC>MOL_PROPERTY
VdW12
SciTegic.value.DoubleValue
7.347

@<SCITEGIC>MOL_PROPERTY
Bond
SciTegic.value.DoubleValue
0.223

@<SCITEGIC>MOL_PROPERTY
Angle
SciTegic.value.DoubleValue
1.167

@<SCITEGIC>MOL_PROPERTY
Pdih
SciTegic.value.DoubleValue
3.447

@<SCITEGIC>MOL_PROPERTY
Idih
SciTegic.value.DoubleValue
0.000

@<SCITEGIC>MOL_PROPERTY
Tether
SciTegic.value.DoubleValue
0.000

@<TRIPOS>MOLECULE
guest-2_confgen4.mol2 : confsearch ligand conformer 905
          23          22           1
SMALL
USER_CHARGES
 
@<TRIPOS>ATOM
       1    N1      22.549155   20.516567   22.057730 N.4        1 MOL1        -0.5940
       2    H1      22.891205   20.697632   21.108496 H          1 MOL1         0.3649
       3    H2      23.372988   20.336990   22.641724 H          1 MOL1         0.3649
       4    H3      22.127157   21.386935   22.397044 H          1 MOL1         0.3649
       5    C1      21.569863   19.361026   22.094629 C.3        1 MOL1         0.0207
       6    H4      21.278684   19.203956   23.134765 H          1 MOL1         0.0950
       7    H5      22.093453   18.465747   21.748608 H          1 MOL1         0.0950
       8    C2      20.323454   19.599531   21.219778 C.3        1 MOL1        -0.1415
       9    H6      19.812350   20.521965   21.525967 H          1 MOL1         0.0976
      10    H7      20.658661   19.759366   20.186285 H          1 MOL1         0.0976
      11    C3      19.331150   18.409368   21.237385 C.3        1 MOL1        -0.1375
      12    H8      19.883102   17.459436   21.261522 H          1 MOL1         0.0976
      13    H9      18.781441   18.409058   20.285903 H          1 MOL1         0.0976
      14    C4      18.284421   18.446958   22.381245 C.3        1 MOL1        -0.1375
      15    H10     17.668918   19.351988   22.284456 H          1 MOL1         0.0976
      16    H11     17.600126   17.597915   22.245932 H          1 MOL1         0.0976
      17    C5      18.883744   18.384537   23.805119 C.3        1 MOL1        -0.1350
      18    H12     19.445417   19.303985   24.015006 H          1 MOL1         0.0976
      19    H13     19.590857   17.546368   23.876832 H          1 MOL1         0.0976
      20    C6      17.786075   18.221400   24.878054 C.3        1 MOL1        -0.2365
      21    H14     17.222634   17.291033   24.729171 H          1 MOL1         0.0987
      22    H15     17.077151   19.059110   24.847721 H          1 MOL1         0.0987
      23    H16     18.227633   18.189916   25.882576 H          1 MOL1         0.0987
@<TRIPOS>BOND
    1     1     2    1
    2     1     3    1
    3     1     4    1
    4     1     5    1
    5     5     6    1
    6     5     7    1
    7     5     8    1
    8     8     9    1
    9     8    10    1
   10     8    11    1
   11    11    12    1
   12    11    13    1
   13    11    14    1
   14    14    15    1
   15    14    16    1
   16    14    17    1
   17    17    18    1
   18    17    19    1
   19    17    20    1
   20    20    21    1
   21    20    22    1
   22    20    23    1
@<TRIPOS>SUBSTRUCTURE
       1 MOL1            1 RESIDUE      1      MOL     
@<SCITEGIC>MOL_PROPERTY
VConf Rank
SciTegic.value.IntegerValue
905

@<SCITEGIC>MOL_PROPERTY
Conf_Id
SciTegic.value.IntegerValue
93

@<SCITEGIC>MOL_PROPERTY
Delta U+W
SciTegic.value.DoubleValue
2.589

@<SCITEGIC>MOL_PROPERTY
U+W
SciTegic.value.DoubleValue
-5.793

@<SCITEGIC>MOL_PROPERTY
Grad RMS
SciTegic.value.DoubleValue
0.000000

@<SCITEGIC>MOL_PROPERTY
U
SciTegic.value.DoubleValue
50.122

@<SCITEGIC>MOL_PROPERTY
W
SciTegic.value.DoubleValue
-55.915

@<SCITEGIC>MOL_PROPERTY
W(PB)
SciTegic.value.DoubleValue
-58.031

@<SCITEGIC>MOL_PROPERTY
W(SA)
SciTegic.value.DoubleValue
2.115

@<SCITEGIC>MOL_PROPERTY
Valence
SciTegic.value.DoubleValue
4.132

@<SCITEGIC>MOL_PROPERTY
Coulomb
SciTegic.value.DoubleValue
45.536

@<SCITEGIC>MOL_PROPERTY
VdW
SciTegic.value.DoubleValue
0.454

@<SCITEGIC>MOL_PROPERTY
VdW6
SciTegic.value.DoubleValue
-6.262

@<SCITEGIC>MOL_PROPERTY
VdW12
SciTegic.value.DoubleValue
6.715

@<SCITEGIC>MOL_PROPERTY
Bond
SciTegic.value.DoubleValue
0.182

@<SCITEGIC>MOL_PROPERTY
Angle
SciTegic.value.DoubleValue
1.157

@<SCITEGIC>MOL_PROPERTY
Pdih
SciTegic.value.DoubleValue
2.794

@<SCITEGIC>MOL_PROPERTY
Idih
SciTegic.value.DoubleValue
0.000

@<SCITEGIC>MOL_PROPERTY
Tether
SciTegic.value.DoubleValue
0.000

@<TRIPOS>MOLECULE
guest-2_confgen4.mol2 : confsearch ligand conformer 906
          23          22           1
SMALL
USER_CHARGES
 
@<TRIPOS>ATOM
       1    N1      21.314926   21.264842   23.998262 N.4        1 MOL1        -0.5940
       2    H1      20.433658   21.660268   24.341424 H          1 MOL1         0.3649
       3    H2      21.774083   21.995686   23.444149 H          1 MOL1         0.3649
       4    H3      21.908143   21.095423   24.816931 H          1 MOL1         0.3649
       5    C1      21.092120   20.002228   23.190916 C.3        1 MOL1         0.0207
       6    H4      22.065833   19.654678   22.835260 H          1 MOL1         0.0950
       7    H5      20.486593   20.264936   22.321627 H          1 MOL1         0.0950
       8    C2      20.409399   18.882221   24.000399 C.3        1 MOL1        -0.1415
       9    H6      21.044432   18.652827   24.866500 H          1 MOL1         0.0976
      10    H7      19.449958   19.232495   24.403691 H          1 MOL1         0.0976
      11    C3      20.201374   17.581715   23.183776 C.3        1 MOL1        -0.1375
      12    H8      20.198082   16.735342   23.884590 H          1 MOL1         0.0976
      13    H9      21.060075   17.413245   22.519055 H          1 MOL1         0.0976
      14    C4      18.880226   17.522051   22.373540 C.3        1 MOL1        -0.1375
      15    H10     18.814811   16.532921   21.899428 H          1 MOL1         0.0976
      16    H11     18.025849   17.586642   23.061406 H          1 MOL1         0.0976
      17    C5      18.743683   18.609591   21.283074 C.3        1 MOL1        -0.1350
      18    H12     19.647794   18.628685   20.658658 H          1 MOL1         0.0976
      19    H13     18.649325   19.598189   21.750712 H          1 MOL1         0.0976
      20    C6      17.509069   18.367160   20.388848 C.3        1 MOL1        -0.2365
      21    H14     17.421177   19.153551   19.627998 H          1 MOL1         0.0987
      22    H15     16.585626   18.368040   20.982567 H          1 MOL1         0.0987
      23    H16     17.580462   17.402865   19.868990 H          1 MOL1         0.0987
@<TRIPOS>BOND
    1     1     2    1
    2     1     3    1
    3     1     4    1
    4     1     5    1
    5     5     6    1
    6     5     7    1
    7     5     8    1
    8     8     9    1
    9     8    10    1
   10     8    11    1
   11    11    12    1
   12    11    13    1
   13    11    14    1
   14    14    15    1
   15    14    16    1
   16    14    17    1
   17    17    18    1
   18    17    19    1
   19    17    20    1
   20    20    21    1
   21    20    22    1
   22    20    23    1
@<TRIPOS>SUBSTRUCTURE
       1 MOL1            1 RESIDUE      1      MOL     
@<SCITEGIC>MOL_PROPERTY
VConf Rank
SciTegic.value.IntegerValue
906

@<SCITEGIC>MOL_PROPERTY
Conf_Id
SciTegic.value.IntegerValue
70

@<SCITEGIC>MOL_PROPERTY
Delta U+W
SciTegic.value.DoubleValue
2.599

@<SCITEGIC>MOL_PROPERTY
U+W
SciTegic.value.DoubleValue
-5.783

@<SCITEGIC>MOL_PROPERTY
Grad RMS
SciTegic.value.DoubleValue
0.000000

@<SCITEGIC>MOL_PROPERTY
U
SciTegic.value.DoubleValue
50.122

@<SCITEGIC>MOL_PROPERTY
W
SciTegic.value.DoubleValue
-55.906

@<SCITEGIC>MOL_PROPERTY
W(PB)
SciTegic.value.DoubleValue
-58.010

@<SCITEGIC>MOL_PROPERTY
W(SA)
SciTegic.value.DoubleValue
2.105

@<SCITEGIC>MOL_PROPERTY
Valence
SciTegic.value.DoubleValue
4.132

@<SCITEGIC>MOL_PROPERTY
Coulomb
SciTegic.value.DoubleValue
45.536

@<SCITEGIC>MOL_PROPERTY
VdW
SciTegic.value.DoubleValue
0.454

@<SCITEGIC>MOL_PROPERTY
VdW6
SciTegic.value.DoubleValue
-6.262

@<SCITEGIC>MOL_PROPERTY
VdW12
SciTegic.value.DoubleValue
6.715

@<SCITEGIC>MOL_PROPERTY
Bond
SciTegic.value.DoubleValue
0.182

@<SCITEGIC>MOL_PROPERTY
Angle
SciTegic.value.DoubleValue
1.157

@<SCITEGIC>MOL_PROPERTY
Pdih
SciTegic.value.DoubleValue
2.794

@<SCITEGIC>MOL_PROPERTY
Idih
SciTegic.value.DoubleValue
0.000

@<SCITEGIC>MOL_PROPERTY
Tether
SciTegic.value.DoubleValue
0.000

@<TRIPOS>MOLECULE
guest-2_confgen4.mol2 : confsearch ligand conformer 907
          23          22           1
SMALL
USER_CHARGES
 
@<TRIPOS>ATOM
       1    N1      18.769669   16.579539   23.685009 N.4        1 MOL1        -0.5940
       2    H1      19.000118   15.639216   23.348568 H          1 MOL1         0.3649
       3    H2      17.968298   16.483015   24.317662 H          1 MOL1         0.3649
       4    H3      19.561772   16.901965   24.248995 H          1 MOL1         0.3649
       5    C1      18.473869   17.529604   22.541281 C.3        1 MOL1         0.0207
       6    H4      18.204120   18.499775   22.966662 H          1 MOL1         0.0950
       7    H5      17.605219   17.141778   22.002268 H          1 MOL1         0.0950
       8    C2      19.651077   17.700986   21.560163 C.3        1 MOL1        -0.1415
       9    H6      19.890603   16.726991   21.113312 H          1 MOL1         0.0976
      10    H7      19.328631   18.339986   20.728223 H          1 MOL1         0.0976
      11    C3      20.930482   18.292964   22.207998 C.3        1 MOL1        -0.1375
      12    H8      21.696667   18.415798   21.430132 H          1 MOL1         0.0976
      13    H9      21.344975   17.566685   22.920000 H          1 MOL1         0.0976
      14    C4      20.727223   19.647078   22.935914 C.3        1 MOL1        -0.1375
      15    H10     20.034014   19.521953   23.778349 H          1 MOL1         0.0976
      16    H11     21.686898   19.950574   23.376655 H          1 MOL1         0.0976
      17    C5      20.221106   20.777178   22.008761 C.3        1 MOL1        -0.1350
      18    H12     19.228468   20.525741   21.612040 H          1 MOL1         0.0976
      19    H13     20.893493   20.877742   21.145340 H          1 MOL1         0.0976
      20    C6      20.136059   22.127551   22.751487 C.3        1 MOL1        -0.2365
      21    H14     19.773213   22.916849   22.080393 H          1 MOL1         0.0987
      22    H15     21.120347   22.433375   23.129431 H          1 MOL1         0.0987
      23    H16     19.446492   22.066413   23.603522 H          1 MOL1         0.0987
@<TRIPOS>BOND
    1     1     2    1
    2     1     3    1
    3     1     4    1
    4     1     5    1
    5     5     6    1
    6     5     7    1
    7     5     8    1
    8     8     9    1
    9     8    10    1
   10     8    11    1
   11    11    12    1
   12    11    13    1
   13    11    14    1
   14    14    15    1
   15    14    16    1
   16    14    17    1
   17    17    18    1
   18    17    19    1
   19    17    20    1
   20    20    21    1
   21    20    22    1
   22    20    23    1
@<TRIPOS>SUBSTRUCTURE
       1 MOL1            1 RESIDUE      1      MOL     
@<SCITEGIC>MOL_PROPERTY
VConf Rank
SciTegic.value.IntegerValue
907

@<SCITEGIC>MOL_PROPERTY
Conf_Id
SciTegic.value.IntegerValue
72

@<SCITEGIC>MOL_PROPERTY
Delta U+W
SciTegic.value.DoubleValue
1.051

@<SCITEGIC>MOL_PROPERTY
U+W
SciTegic.value.DoubleValue
-7.331

@<SCITEGIC>MOL_PROPERTY
Grad RMS
SciTegic.value.DoubleValue
0.000000

@<SCITEGIC>MOL_PROPERTY
U
SciTegic.value.DoubleValue
48.590

@<SCITEGIC>MOL_PROPERTY
W
SciTegic.value.DoubleValue
-55.922

@<SCITEGIC>MOL_PROPERTY
W(PB)
SciTegic.value.DoubleValue
-58.012

@<SCITEGIC>MOL_PROPERTY
W(SA)
SciTegic.value.DoubleValue
2.090

@<SCITEGIC>MOL_PROPERTY
Valence
SciTegic.value.DoubleValue
2.601

@<SCITEGIC>MOL_PROPERTY
Coulomb
SciTegic.value.DoubleValue
45.520

@<SCITEGIC>MOL_PROPERTY
VdW
SciTegic.value.DoubleValue
0.469

@<SCITEGIC>MOL_PROPERTY
VdW6
SciTegic.value.DoubleValue
-6.867

@<SCITEGIC>MOL_PROPERTY
VdW12
SciTegic.value.DoubleValue
7.336

@<SCITEGIC>MOL_PROPERTY
Bond
SciTegic.value.DoubleValue
0.205

@<SCITEGIC>MOL_PROPERTY
Angle
SciTegic.value.DoubleValue
0.962

@<SCITEGIC>MOL_PROPERTY
Pdih
SciTegic.value.DoubleValue
1.434

@<SCITEGIC>MOL_PROPERTY
Idih
SciTegic.value.DoubleValue
0.000

@<SCITEGIC>MOL_PROPERTY
Tether
SciTegic.value.DoubleValue
0.000

@<TRIPOS>MOLECULE
guest-2_confgen4.mol2 : confsearch ligand conformer 908
          23          22           1
SMALL
USER_CHARGES
 
@<TRIPOS>ATOM
       1    N1      16.661258   19.315096   23.001931 N.4        1 MOL1        -0.5940
       2    H1      15.995805   19.907075   22.493315 H          1 MOL1         0.3649
       3    H2      16.338244   19.271449   23.973805 H          1 MOL1         0.3649
       4    H3      16.577207   18.370282   22.613440 H          1 MOL1         0.3649
       5    C1      18.077229   19.844607   22.900526 C.3        1 MOL1         0.0207
       6    H4      18.087946   20.860595   23.304263 H          1 MOL1         0.0950
       7    H5      18.343006   19.892286   21.841271 H          1 MOL1         0.0950
       8    C2      19.102123   18.976892   23.654503 C.3        1 MOL1        -0.1415
       9    H6      18.805169   18.904970   24.709195 H          1 MOL1         0.0976
      10    H7      19.083049   17.953432   23.258777 H          1 MOL1         0.0976
      11    C3      20.539924   19.547777   23.577829 C.3        1 MOL1        -0.1375
      12    H8      21.215043   18.898484   24.151049 H          1 MOL1         0.0976
      13    H9      20.562658   20.521123   24.087135 H          1 MOL1         0.0976
      14    C4      21.092861   19.729561   22.138393 C.3        1 MOL1        -0.1375
      15    H10     20.512971   20.504989   21.619990 H          1 MOL1         0.0976
      16    H11     22.117128   20.121764   22.203391 H          1 MOL1         0.0976
      17    C5      21.103474   18.446394   21.269146 C.3        1 MOL1        -0.1350
      18    H12     21.500509   18.699480   20.276170 H          1 MOL1         0.0976
      19    H13     20.077355   18.092893   21.101117 H          1 MOL1         0.0976
      20    C6      21.956478   17.306208   21.869876 C.3        1 MOL1        -0.2365
      21    H14     22.984884   17.640478   22.058514 H          1 MOL1         0.0987
      22    H15     22.001550   16.454485   21.178950 H          1 MOL1         0.0987
      23    H16     21.534293   16.943025   22.815083 H          1 MOL1         0.0987
@<TRIPOS>BOND
    1     1     2    1
    2     1     3    1
    3     1     4    1
    4     1     5    1
    5     5     6    1
    6     5     7    1
    7     5     8    1
    8     8     9    1
    9     8    10    1
   10     8    11    1
   11    11    12    1
   12    11    13    1
   13    11    14    1
   14    14    15    1
   15    14    16    1
   16    14    17    1
   17    17    18    1
   18    17    19    1
   19    17    20    1
   20    20    21    1
   21    20    22    1
   22    20    23    1
@<TRIPOS>SUBSTRUCTURE
       1 MOL1            1 RESIDUE      1      MOL     
@<SCITEGIC>MOL_PROPERTY
VConf Rank
SciTegic.value.IntegerValue
908

@<SCITEGIC>MOL_PROPERTY
Conf_Id
SciTegic.value.IntegerValue
26

@<SCITEGIC>MOL_PROPERTY
Delta U+W
SciTegic.value.DoubleValue
1.076

@<SCITEGIC>MOL_PROPERTY
U+W
SciTegic.value.DoubleValue
-7.306

@<SCITEGIC>MOL_PROPERTY
Grad RMS
SciTegic.value.DoubleValue
0.000000

@<SCITEGIC>MOL_PROPERTY
U
SciTegic.value.DoubleValue
48.641

@<SCITEGIC>MOL_PROPERTY
W
SciTegic.value.DoubleValue
-55.947

@<SCITEGIC>MOL_PROPERTY
W(PB)
SciTegic.value.DoubleValue
-58.031

@<SCITEGIC>MOL_PROPERTY
W(SA)
SciTegic.value.DoubleValue
2.084

@<SCITEGIC>MOL_PROPERTY
Valence
SciTegic.value.DoubleValue
2.922

@<SCITEGIC>MOL_PROPERTY
Coulomb
SciTegic.value.DoubleValue
45.269

@<SCITEGIC>MOL_PROPERTY
VdW
SciTegic.value.DoubleValue
0.449

@<SCITEGIC>MOL_PROPERTY
VdW6
SciTegic.value.DoubleValue
-7.045

@<SCITEGIC>MOL_PROPERTY
VdW12
SciTegic.value.DoubleValue
7.494

@<SCITEGIC>MOL_PROPERTY
Bond
SciTegic.value.DoubleValue
0.220

@<SCITEGIC>MOL_PROPERTY
Angle
SciTegic.value.DoubleValue
1.205

@<SCITEGIC>MOL_PROPERTY
Pdih
SciTegic.value.DoubleValue
1.497

@<SCITEGIC>MOL_PROPERTY
Idih
SciTegic.value.DoubleValue
0.000

@<SCITEGIC>MOL_PROPERTY
Tether
SciTegic.value.DoubleValue
0.000

@<TRIPOS>MOLECULE
guest-2_confgen4.mol2 : confsearch ligand conformer 909
          23          22           1
SMALL
USER_CHARGES
 
@<TRIPOS>ATOM
       1    N1      19.456056   16.762690   20.443318 N.4        1 MOL1        -0.5940
       2    H1      18.542183   16.298343   20.444418 H          1 MOL1         0.3649
       3    H2      20.133321   16.086172   20.075086 H          1 MOL1         0.3649
       4    H3      19.403422   17.530505   19.766301 H          1 MOL1         0.3649
       5    C1      19.842922   17.251570   21.824247 C.3        1 MOL1         0.0207
       6    H4      20.834704   17.705869   21.754146 H          1 MOL1         0.0950
       7    H5      19.908147   16.382595   22.484533 H          1 MOL1         0.0950
       8    C2      18.845084   18.270263   22.405970 C.3        1 MOL1        -0.1415
       9    H6      18.768984   19.137216   21.737364 H          1 MOL1         0.0976
      10    H7      17.845618   17.816584   22.437145 H          1 MOL1         0.0976
      11    C3      19.228264   18.734073   23.833246 C.3        1 MOL1        -0.1375
      12    H8      19.180534   17.870883   24.511432 H          1 MOL1         0.0976
      13    H9      18.468868   19.438622   24.197773 H          1 MOL1         0.0976
      14    C4      20.635178   19.379892   23.952691 C.3        1 MOL1        -0.1375
      15    H10     20.793840   19.683670   24.996585 H          1 MOL1         0.0976
      16    H11     21.403137   18.622240   23.746526 H          1 MOL1         0.0976
      17    C5      20.879084   20.603839   23.033623 C.3        1 MOL1        -0.1350
      18    H12     20.829965   20.302507   21.978679 H          1 MOL1         0.0976
      19    H13     21.904427   20.964531   23.195691 H          1 MOL1         0.0976
      20    C6      19.895971   21.768418   23.290060 C.3        1 MOL1        -0.2365
      21    H14     18.866005   21.488795   23.036011 H          1 MOL1         0.0987
      22    H15     20.162906   22.639168   22.677376 H          1 MOL1         0.0987
      23    H16     19.918353   22.078822   24.342718 H          1 MOL1         0.0987
@<TRIPOS>BOND
    1     1     2    1
    2     1     3    1
    3     1     4    1
    4     1     5    1
    5     5     6    1
    6     5     7    1
    7     5     8    1
    8     8     9    1
    9     8    10    1
   10     8    11    1
   11    11    12    1
   12    11    13    1
   13    11    14    1
   14    14    15    1
   15    14    16    1
   16    14    17    1
   17    17    18    1
   18    17    19    1
   19    17    20    1
   20    20    21    1
   21    20    22    1
   22    20    23    1
@<TRIPOS>SUBSTRUCTURE
       1 MOL1            1 RESIDUE      1      MOL     
@<SCITEGIC>MOL_PROPERTY
VConf Rank
SciTegic.value.IntegerValue
909

@<SCITEGIC>MOL_PROPERTY
Conf_Id
SciTegic.value.IntegerValue
90

@<SCITEGIC>MOL_PROPERTY
Delta U+W
SciTegic.value.DoubleValue
1.131

@<SCITEGIC>MOL_PROPERTY
U+W
SciTegic.value.DoubleValue
-7.251

@<SCITEGIC>MOL_PROPERTY
Grad RMS
SciTegic.value.DoubleValue
0.000000

@<SCITEGIC>MOL_PROPERTY
U
SciTegic.value.DoubleValue
48.641

@<SCITEGIC>MOL_PROPERTY
W
SciTegic.value.DoubleValue
-55.892

@<SCITEGIC>MOL_PROPERTY
W(PB)
SciTegic.value.DoubleValue
-57.962

@<SCITEGIC>MOL_PROPERTY
W(SA)
SciTegic.value.DoubleValue
2.070

@<SCITEGIC>MOL_PROPERTY
Valence
SciTegic.value.DoubleValue
2.922

@<SCITEGIC>MOL_PROPERTY
Coulomb
SciTegic.value.DoubleValue
45.269

@<SCITEGIC>MOL_PROPERTY
VdW
SciTegic.value.DoubleValue
0.450

@<SCITEGIC>MOL_PROPERTY
VdW6
SciTegic.value.DoubleValue
-7.045

@<SCITEGIC>MOL_PROPERTY
VdW12
SciTegic.value.DoubleValue
7.495

@<SCITEGIC>MOL_PROPERTY
Bond
SciTegic.value.DoubleValue
0.220

@<SCITEGIC>MOL_PROPERTY
Angle
SciTegic.value.DoubleValue
1.205

@<SCITEGIC>MOL_PROPERTY
Pdih
SciTegic.value.DoubleValue
1.497

@<SCITEGIC>MOL_PROPERTY
Idih
SciTegic.value.DoubleValue
0.000

@<SCITEGIC>MOL_PROPERTY
Tether
SciTegic.value.DoubleValue
0.000

@<TRIPOS>MOLECULE
guest-2_confgen4.mol2 : confsearch ligand conformer 910
          23          22           1
SMALL
USER_CHARGES
 
@<TRIPOS>ATOM
       1    N1      21.504968   20.945763   22.270061 N.4        1 MOL1        -0.5940
       2    H1      21.989896   21.613207   22.879334 H          1 MOL1         0.3649
       3    H2      20.504446   21.020398   22.477444 H          1 MOL1         0.3649
       4    H3      21.640308   21.267530   21.306359 H          1 MOL1         0.3649
       5    C1      22.012650   19.530975   22.467620 C.3        1 MOL1         0.0207
       6    H4      21.867722   19.262366   23.517173 H          1 MOL1         0.0950
       7    H5      23.086752   19.531012   22.263110 H          1 MOL1         0.0950
       8    C2      21.319530   18.491834   21.562822 C.3        1 MOL1        -0.1415
       9    H6      21.511472   18.745112   20.511728 H          1 MOL1         0.0976
      10    H7      21.785633   17.511898   21.731099 H          1 MOL1         0.0976
      11    C3      19.791446   18.377070   21.791667 C.3        1 MOL1        -0.1375
      12    H8      19.388605   17.628514   21.095612 H          1 MOL1         0.0976
      13    H9      19.309841   19.327862   21.530599 H          1 MOL1         0.0976
      14    C4      19.423852   17.972113   23.241618 C.3        1 MOL1        -0.1375
      15    H10     19.981935   17.065295   23.512713 H          1 MOL1         0.0976
      16    H11     19.741426   18.753011   23.945377 H          1 MOL1         0.0976
      17    C5      17.913489   17.696738   23.437486 C.3        1 MOL1        -0.1350
      18    H12     17.753674   17.314857   24.455553 H          1 MOL1         0.0976
      19    H13     17.589276   16.898147   22.755637 H          1 MOL1         0.0976
      20    C6      17.029995   18.948019   23.230431 C.3        1 MOL1        -0.2365
      21    H14     17.350940   19.770606   23.882566 H          1 MOL1         0.0987
      22    H15     15.982381   18.721628   23.467473 H          1 MOL1         0.0987
      23    H16     17.064010   19.298448   22.191464 H          1 MOL1         0.0987
@<TRIPOS>BOND
    1     1     2    1
    2     1     3    1
    3     1     4    1
    4     1     5    1
    5     5     6    1
    6     5     7    1
    7     5     8    1
    8     8     9    1
    9     8    10    1
   10     8    11    1
   11    11    12    1
   12    11    13    1
   13    11    14    1
   14    14    15    1
   15    14    16    1
   16    14    17    1
   17    17    18    1
   18    17    19    1
   19    17    20    1
   20    20    21    1
   21    20    22    1
   22    20    23    1
@<TRIPOS>SUBSTRUCTURE
       1 MOL1            1 RESIDUE      1      MOL     
@<SCITEGIC>MOL_PROPERTY
VConf Rank
SciTegic.value.IntegerValue
910

@<SCITEGIC>MOL_PROPERTY
Conf_Id
SciTegic.value.IntegerValue
85

@<SCITEGIC>MOL_PROPERTY
Delta U+W
SciTegic.value.DoubleValue
1.193

@<SCITEGIC>MOL_PROPERTY
U+W
SciTegic.value.DoubleValue
-7.189

@<SCITEGIC>MOL_PROPERTY
Grad RMS
SciTegic.value.DoubleValue
0.000000

@<SCITEGIC>MOL_PROPERTY
U
SciTegic.value.DoubleValue
48.775

@<SCITEGIC>MOL_PROPERTY
W
SciTegic.value.DoubleValue
-55.965

@<SCITEGIC>MOL_PROPERTY
W(PB)
SciTegic.value.DoubleValue
-58.038

@<SCITEGIC>MOL_PROPERTY
W(SA)
SciTegic.value.DoubleValue
2.073

@<SCITEGIC>MOL_PROPERTY
Valence
SciTegic.value.DoubleValue
2.602

@<SCITEGIC>MOL_PROPERTY
Coulomb
SciTegic.value.DoubleValue
45.581

@<SCITEGIC>MOL_PROPERTY
VdW
SciTegic.value.DoubleValue
0.592

@<SCITEGIC>MOL_PROPERTY
VdW6
SciTegic.value.DoubleValue
-6.616

@<SCITEGIC>MOL_PROPERTY
VdW12
SciTegic.value.DoubleValue
7.208

@<SCITEGIC>MOL_PROPERTY
Bond
SciTegic.value.DoubleValue
0.196

@<SCITEGIC>MOL_PROPERTY
Angle
SciTegic.value.DoubleValue
0.832

@<SCITEGIC>MOL_PROPERTY
Pdih
SciTegic.value.DoubleValue
1.574

@<SCITEGIC>MOL_PROPERTY
Idih
SciTegic.value.DoubleValue
0.000

@<SCITEGIC>MOL_PROPERTY
Tether
SciTegic.value.DoubleValue
0.000

@<TRIPOS>MOLECULE
guest-2_confgen4.mol2 : confsearch ligand conformer 911
          23          22           1
SMALL
USER_CHARGES
 
@<TRIPOS>ATOM
       1    N1      20.419860   17.207510   21.635087 N.4        1 MOL1        -0.5940
       2    H1      20.438602   18.210148   21.422866 H          1 MOL1         0.3649
       3    H2      20.134195   16.717565   20.780305 H          1 MOL1         0.3649
       4    H3      21.382821   16.919346   21.836782 H          1 MOL1         0.3649
       5    C1      19.489795   16.906060   22.794298 C.3        1 MOL1         0.0207
       6    H4      19.525242   15.825801   22.959505 H          1 MOL1         0.0950
       7    H5      18.469939   17.171331   22.503345 H          1 MOL1         0.0950
       8    C2      19.865753   17.628144   24.104248 C.3        1 MOL1        -0.1415
       9    H6      19.418815   17.066225   24.935110 H          1 MOL1         0.0976
      10    H7      20.951709   17.575446   24.258502 H          1 MOL1         0.0976
      11    C3      19.381166   19.099061   24.212367 C.3        1 MOL1        -0.1375
      12    H8      19.666601   19.466402   25.207903 H          1 MOL1         0.0976
      13    H9      18.283116   19.134740   24.190359 H          1 MOL1         0.0976
      14    C4      19.968381   20.070070   23.156158 C.3        1 MOL1        -0.1375
      15    H10     20.128125   21.047807   23.631817 H          1 MOL1         0.0976
      16    H11     20.963275   19.729707   22.839826 H          1 MOL1         0.0976
      17    C5      19.036709   20.281286   21.937767 C.3        1 MOL1        -0.1350
      18    H12     18.114295   20.778667   22.269277 H          1 MOL1         0.0976
      19    H13     18.724494   19.322169   21.507775 H          1 MOL1         0.0976
      20    C6      19.710621   21.138985   20.845970 C.3        1 MOL1        -0.2365
      21    H14     19.986018   22.127563   21.236150 H          1 MOL1         0.0987
      22    H15     19.030564   21.290522   19.997596 H          1 MOL1         0.0987
      23    H16     20.620710   20.657284   20.465880 H          1 MOL1         0.0987
@<TRIPOS>BOND
    1     1     2    1
    2     1     3    1
    3     1     4    1
    4     1     5    1
    5     5     6    1
    6     5     7    1
    7     5     8    1
    8     8     9    1
    9     8    10    1
   10     8    11    1
   11    11    12    1
   12    11    13    1
   13    11    14    1
   14    14    15    1
   15    14    16    1
   16    14    17    1
   17    17    18    1
   18    17    19    1
   19    17    20    1
   20    20    21    1
   21    20    22    1
   22    20    23    1
@<TRIPOS>SUBSTRUCTURE
       1 MOL1            1 RESIDUE      1      MOL     
@<SCITEGIC>MOL_PROPERTY
VConf Rank
SciTegic.value.IntegerValue
911

@<SCITEGIC>MOL_PROPERTY
Conf_Id
SciTegic.value.IntegerValue
82

@<SCITEGIC>MOL_PROPERTY
Delta U+W
SciTegic.value.DoubleValue
5.994

@<SCITEGIC>MOL_PROPERTY
U+W
SciTegic.value.DoubleValue
-2.388

@<SCITEGIC>MOL_PROPERTY
Grad RMS
SciTegic.value.DoubleValue
0.000000

@<SCITEGIC>MOL_PROPERTY
U
SciTegic.value.DoubleValue
52.836

@<SCITEGIC>MOL_PROPERTY
W
SciTegic.value.DoubleValue
-55.224

@<SCITEGIC>MOL_PROPERTY
W(PB)
SciTegic.value.DoubleValue
-57.261

@<SCITEGIC>MOL_PROPERTY
W(SA)
SciTegic.value.DoubleValue
2.037

@<SCITEGIC>MOL_PROPERTY
Valence
SciTegic.value.DoubleValue
5.785

@<SCITEGIC>MOL_PROPERTY
Coulomb
SciTegic.value.DoubleValue
46.744

@<SCITEGIC>MOL_PROPERTY
VdW
SciTegic.value.DoubleValue
0.307

@<SCITEGIC>MOL_PROPERTY
VdW6
SciTegic.value.DoubleValue
-7.672

@<SCITEGIC>MOL_PROPERTY
VdW12
SciTegic.value.DoubleValue
7.979

@<SCITEGIC>MOL_PROPERTY
Bond
SciTegic.value.DoubleValue
0.217

@<SCITEGIC>MOL_PROPERTY
Angle
SciTegic.value.DoubleValue
1.470

@<SCITEGIC>MOL_PROPERTY
Pdih
SciTegic.value.DoubleValue
4.098

@<SCITEGIC>MOL_PROPERTY
Idih
SciTegic.value.DoubleValue
0.000

@<SCITEGIC>MOL_PROPERTY
Tether
SciTegic.value.DoubleValue
0.000

@<TRIPOS>MOLECULE
guest-2_confgen4.mol2 : confsearch ligand conformer 912
          23          22           1
SMALL
USER_CHARGES
 
@<TRIPOS>ATOM
       1    N1      18.000974   19.660351   21.953109 N.4        1 MOL1        -0.5940
       2    H1      17.307984   19.854862   22.683140 H          1 MOL1         0.3649
       3    H2      17.683074   20.140090   21.103937 H          1 MOL1         0.3649
       4    H3      18.881297   20.098605   22.242314 H          1 MOL1         0.3649
       5    C1      18.174225   18.170904   21.726868 C.3        1 MOL1         0.0207
       6    H4      18.871536   18.021161   20.898338 H          1 MOL1         0.0950
       7    H5      17.199438   17.778298   21.424937 H          1 MOL1         0.0950
       8    C2      18.664032   17.400470   22.969945 C.3        1 MOL1        -0.1415
       9    H6      18.123593   17.749786   23.859763 H          1 MOL1         0.0976
      10    H7      18.380337   16.347270   22.842957 H          1 MOL1         0.0976
      11    C3      20.195340   17.451685   23.220119 C.3        1 MOL1        -0.1375
      12    H8      20.728083   16.979499   22.383044 H          1 MOL1         0.0976
      13    H9      20.406314   16.821161   24.095009 H          1 MOL1         0.0976
      14    C4      20.775625   18.862786   23.494576 C.3        1 MOL1        -0.1375
      15    H10     20.013997   19.501940   23.960548 H          1 MOL1         0.0976
      16    H11     21.579367   18.770840   24.238406 H          1 MOL1         0.0976
      17    C5      21.371176   19.532987   22.232335 C.3        1 MOL1        -0.1350
      18    H12     20.654345   19.520936   21.402701 H          1 MOL1         0.0976
      19    H13     22.239712   18.952819   21.890012 H          1 MOL1         0.0976
      20    C6      21.810356   20.986001   22.511080 C.3        1 MOL1        -0.2365
      21    H14     20.960662   21.606014   22.824721 H          1 MOL1         0.0987
      22    H15     22.243441   21.439478   21.609983 H          1 MOL1         0.0987
      23    H16     22.569534   21.022642   23.303340 H          1 MOL1         0.0987
@<TRIPOS>BOND
    1     1     2    1
    2     1     3    1
    3     1     4    1
    4     1     5    1
    5     5     6    1
    6     5     7    1
    7     5     8    1
    8     8     9    1
    9     8    10    1
   10     8    11    1
   11    11    12    1
   12    11    13    1
   13    11    14    1
   14    14    15    1
   15    14    16    1
   16    14    17    1
   17    17    18    1
   18    17    19    1
   19    17    20    1
   20    20    21    1
   21    20    22    1
   22    20    23    1
@<TRIPOS>SUBSTRUCTURE
       1 MOL1            1 RESIDUE      1      MOL     
@<SCITEGIC>MOL_PROPERTY
VConf Rank
SciTegic.value.IntegerValue
912

@<SCITEGIC>MOL_PROPERTY
Conf_Id
SciTegic.value.IntegerValue
5

@<SCITEGIC>MOL_PROPERTY
Delta U+W
SciTegic.value.DoubleValue
6.087

@<SCITEGIC>MOL_PROPERTY
U+W
SciTegic.value.DoubleValue
-2.295

@<SCITEGIC>MOL_PROPERTY
Grad RMS
SciTegic.value.DoubleValue
0.000000

@<SCITEGIC>MOL_PROPERTY
U
SciTegic.value.DoubleValue
52.836

@<SCITEGIC>MOL_PROPERTY
W
SciTegic.value.DoubleValue
-55.131

@<SCITEGIC>MOL_PROPERTY
W(PB)
SciTegic.value.DoubleValue
-57.202

@<SCITEGIC>MOL_PROPERTY
W(SA)
SciTegic.value.DoubleValue
2.071

@<SCITEGIC>MOL_PROPERTY
Valence
SciTegic.value.DoubleValue
5.785

@<SCITEGIC>MOL_PROPERTY
Coulomb
SciTegic.value.DoubleValue
46.744

@<SCITEGIC>MOL_PROPERTY
VdW
SciTegic.value.DoubleValue
0.307

@<SCITEGIC>MOL_PROPERTY
VdW6
SciTegic.value.DoubleValue
-7.672

@<SCITEGIC>MOL_PROPERTY
VdW12
SciTegic.value.DoubleValue
7.980

@<SCITEGIC>MOL_PROPERTY
Bond
SciTegic.value.DoubleValue
0.217

@<SCITEGIC>MOL_PROPERTY
Angle
SciTegic.value.DoubleValue
1.470

@<SCITEGIC>MOL_PROPERTY
Pdih
SciTegic.value.DoubleValue
4.098

@<SCITEGIC>MOL_PROPERTY
Idih
SciTegic.value.DoubleValue
0.000

@<SCITEGIC>MOL_PROPERTY
Tether
SciTegic.value.DoubleValue
0.000

@<TRIPOS>MOLECULE
guest-2_confgen4.mol2 : confsearch ligand conformer 913
          23          22           1
SMALL
USER_CHARGES
 
@<TRIPOS>ATOM
       1    N1      17.508147   19.648328   19.563614 N.4        1 MOL1        -0.5940
       2    H1      16.982079   18.770680   19.625830 H          1 MOL1         0.3649
       3    H2      17.579981   19.882576   18.567591 H          1 MOL1         0.3649
       4    H3      16.933057   20.376215   19.999888 H          1 MOL1         0.3649
       5    C1      18.871482   19.538056   20.215577 C.3        1 MOL1         0.0207
       6    H4      19.385638   20.494340   20.086501 H          1 MOL1         0.0950
       7    H5      19.438342   18.768632   19.684396 H          1 MOL1         0.0950
       8    C2      18.798368   19.187082   21.712257 C.3        1 MOL1        -0.1415
       9    H6      18.214531   19.953848   22.238854 H          1 MOL1         0.0976
      10    H7      18.266949   18.234276   21.838166 H          1 MOL1         0.0976
      11    C3      20.206747   19.084105   22.338394 C.3        1 MOL1        -0.1375
      12    H8      20.737064   20.037493   22.205663 H          1 MOL1         0.0976
      13    H9      20.789391   18.319724   21.805431 H          1 MOL1         0.0976
      14    C4      20.145173   18.731872   23.842104 C.3        1 MOL1        -0.1375
      15    H10     19.562744   19.496154   24.375173 H          1 MOL1         0.0976
      16    H11     19.614958   17.778600   23.974992 H          1 MOL1         0.0976
      17    C5      21.553874   18.628869   24.467973 C.3        1 MOL1        -0.1350
      18    H12     22.087571   19.581075   24.339744 H          1 MOL1         0.0976
      19    H13     22.139769   17.863669   23.939608 H          1 MOL1         0.0976
      20    C6      21.488361   18.277049   25.969452 C.3        1 MOL1        -0.2365
      21    H14     22.497548   18.208375   26.395914 H          1 MOL1         0.0987
      22    H15     20.989595   17.311899   26.127399 H          1 MOL1         0.0987
      23    H16     20.936964   19.042710   26.530659 H          1 MOL1         0.0987
@<TRIPOS>BOND
    1     1     2    1
    2     1     3    1
    3     1     4    1
    4     1     5    1
    5     5     6    1
    6     5     7    1
    7     5     8    1
    8     8     9    1
    9     8    10    1
   10     8    11    1
   11    11    12    1
   12    11    13    1
   13    11    14    1
   14    14    15    1
   15    14    16    1
   16    14    17    1
   17    17    18    1
   18    17    19    1
   19    17    20    1
   20    20    21    1
   21    20    22    1
   22    20    23    1
@<TRIPOS>SUBSTRUCTURE
       1 MOL1            1 RESIDUE      1      MOL     
@<SCITEGIC>MOL_PROPERTY
VConf Rank
SciTegic.value.IntegerValue
913

@<SCITEGIC>MOL_PROPERTY
Conf_Id
SciTegic.value.IntegerValue
40

@<SCITEGIC>MOL_PROPERTY
Delta U+W
SciTegic.value.DoubleValue
0.000

@<SCITEGIC>MOL_PROPERTY
U+W
SciTegic.value.DoubleValue
-8.382

@<SCITEGIC>MOL_PROPERTY
Grad RMS
SciTegic.value.DoubleValue
0.000000

@<SCITEGIC>MOL_PROPERTY
U
SciTegic.value.DoubleValue
46.604

@<SCITEGIC>MOL_PROPERTY
W
SciTegic.value.DoubleValue
-54.986

@<SCITEGIC>MOL_PROPERTY
W(PB)
SciTegic.value.DoubleValue
-57.162

@<SCITEGIC>MOL_PROPERTY
W(SA)
SciTegic.value.DoubleValue
2.176

@<SCITEGIC>MOL_PROPERTY
Valence
SciTegic.value.DoubleValue
1.727

@<SCITEGIC>MOL_PROPERTY
Coulomb
SciTegic.value.DoubleValue
44.434

@<SCITEGIC>MOL_PROPERTY
VdW
SciTegic.value.DoubleValue
0.443

@<SCITEGIC>MOL_PROPERTY
VdW6
SciTegic.value.DoubleValue
-4.623

@<SCITEGIC>MOL_PROPERTY
VdW12
SciTegic.value.DoubleValue
5.066

@<SCITEGIC>MOL_PROPERTY
Bond
SciTegic.value.DoubleValue
0.112

@<SCITEGIC>MOL_PROPERTY
Angle
SciTegic.value.DoubleValue
0.386

@<SCITEGIC>MOL_PROPERTY
Pdih
SciTegic.value.DoubleValue
1.228

@<SCITEGIC>MOL_PROPERTY
Idih
SciTegic.value.DoubleValue
0.000

@<SCITEGIC>MOL_PROPERTY
Tether
SciTegic.value.DoubleValue
0.000

@<TRIPOS>MOLECULE
guest-2_confgen4.mol2 : confsearch ligand conformer 914
          23          22           1
SMALL
USER_CHARGES
 
@<TRIPOS>ATOM
       1    N1      23.165823   17.987384   22.234321 N.4        1 MOL1        -0.5940
       2    H1      23.541824   17.665138   23.131885 H          1 MOL1         0.3649
       3    H2      23.560028   18.917221   22.058710 H          1 MOL1         0.3649
       4    H3      23.541769   17.363074   21.512566 H          1 MOL1         0.3649
       5    C1      21.650753   18.005394   22.229709 C.3        1 MOL1         0.0207
       6    H4      21.300591   16.982625   22.393237 H          1 MOL1         0.0950
       7    H5      21.322875   18.327117   21.237989 H          1 MOL1         0.0950
       8    C2      21.055187   18.934854   23.304203 C.3        1 MOL1        -0.1415
       9    H6      21.431111   18.628797   24.289574 H          1 MOL1         0.0976
      10    H7      21.405605   19.962539   23.139724 H          1 MOL1         0.0976
      11    C3      19.508441   18.910475   23.328782 C.3        1 MOL1        -0.1375
      12    H8      19.169450   19.503726   24.187910 H          1 MOL1         0.0976
      13    H9      19.161004   17.882730   23.503138 H          1 MOL1         0.0976
      14    C4      18.870697   19.465533   22.029641 C.3        1 MOL1        -0.1375
      15    H10     19.202150   20.500376   21.866976 H          1 MOL1         0.0976
      16    H11     19.229525   18.887243   21.168055 H          1 MOL1         0.0976
      17    C5      17.323485   19.414026   22.032342 C.3        1 MOL1        -0.1350
      18    H12     16.986083   18.379191   22.184250 H          1 MOL1         0.0976
      19    H13     16.959901   19.712579   21.039092 H          1 MOL1         0.0976
      20    C6      16.677408   20.333195   23.093993 C.3        1 MOL1        -0.2365
      21    H14     16.908755   19.998723   24.112749 H          1 MOL1         0.0987
      22    H15     15.584840   20.333016   22.987958 H          1 MOL1         0.0987
      23    H16     17.024692   21.368717   22.983993 H          1 MOL1         0.0987
@<TRIPOS>BOND
    1     1     2    1
    2     1     3    1
    3     1     4    1
    4     1     5    1
    5     5     6    1
    6     5     7    1
    7     5     8    1
    8     8     9    1
    9     8    10    1
   10     8    11    1
   11    11    12    1
   12    11    13    1
   13    11    14    1
   14    14    15    1
   15    14    16    1
   16    14    17    1
   17    17    18    1
   18    17    19    1
   19    17    20    1
   20    20    21    1
   21    20    22    1
   22    20    23    1
@<TRIPOS>SUBSTRUCTURE
       1 MOL1            1 RESIDUE      1      MOL     
@<SCITEGIC>MOL_PROPERTY
VConf Rank
SciTegic.value.IntegerValue
914

@<SCITEGIC>MOL_PROPERTY
Conf_Id
SciTegic.value.IntegerValue
65

@<SCITEGIC>MOL_PROPERTY
Delta U+W
SciTegic.value.DoubleValue
1.004

@<SCITEGIC>MOL_PROPERTY
U+W
SciTegic.value.DoubleValue
-7.378

@<SCITEGIC>MOL_PROPERTY
Grad RMS
SciTegic.value.DoubleValue
0.000000

@<SCITEGIC>MOL_PROPERTY
U
SciTegic.value.DoubleValue
48.047

@<SCITEGIC>MOL_PROPERTY
W
SciTegic.value.DoubleValue
-55.425

@<SCITEGIC>MOL_PROPERTY
W(PB)
SciTegic.value.DoubleValue
-57.542

@<SCITEGIC>MOL_PROPERTY
W(SA)
SciTegic.value.DoubleValue
2.116

@<SCITEGIC>MOL_PROPERTY
Valence
SciTegic.value.DoubleValue
2.583

@<SCITEGIC>MOL_PROPERTY
Coulomb
SciTegic.value.DoubleValue
44.791

@<SCITEGIC>MOL_PROPERTY
VdW
SciTegic.value.DoubleValue
0.673

@<SCITEGIC>MOL_PROPERTY
VdW6
SciTegic.value.DoubleValue
-5.788

@<SCITEGIC>MOL_PROPERTY
VdW12
SciTegic.value.DoubleValue
6.462

@<SCITEGIC>MOL_PROPERTY
Bond
SciTegic.value.DoubleValue
0.177

@<SCITEGIC>MOL_PROPERTY
Angle
SciTegic.value.DoubleValue
0.787

@<SCITEGIC>MOL_PROPERTY
Pdih
SciTegic.value.DoubleValue
1.619

@<SCITEGIC>MOL_PROPERTY
Idih
SciTegic.value.DoubleValue
0.000

@<SCITEGIC>MOL_PROPERTY
Tether
SciTegic.value.DoubleValue
0.000

@<TRIPOS>MOLECULE
guest-2_confgen4.mol2 : confsearch ligand conformer 915
          23          22           1
SMALL
USER_CHARGES
 
@<TRIPOS>ATOM
       1    N1      22.368956   18.028364   20.370164 N.4        1 MOL1        -0.5940
       2    H1      23.211221   17.769899   20.894210 H          1 MOL1         0.3649
       3    H2      22.681920   18.529659   19.531841 H          1 MOL1         0.3649
       4    H3      21.933260   17.157081   20.050995 H          1 MOL1         0.3649
       5    C1      21.418511   18.863632   21.203685 C.3        1 MOL1         0.0207
       6    H4      20.564251   19.126429   20.574640 H          1 MOL1         0.0950
       7    H5      21.936099   19.784983   21.484086 H          1 MOL1         0.0950
       8    C2      20.930295   18.137342   22.471471 C.3        1 MOL1        -0.1415
       9    H6      20.409282   17.212403   22.190367 H          1 MOL1         0.0976
      10    H7      21.801294   17.837834   23.069469 H          1 MOL1         0.0976
      11    C3      20.000672   19.013041   23.344721 C.3        1 MOL1        -0.1375
      12    H8      20.528037   19.933053   23.632532 H          1 MOL1         0.0976
      13    H9      19.791885   18.469692   24.275389 H          1 MOL1         0.0976
      14    C4      18.666620   19.372172   22.641936 C.3        1 MOL1        -0.1375
      15    H10     18.876908   19.893854   21.698998 H          1 MOL1         0.0976
      16    H11     18.130026   18.451868   22.373000 H          1 MOL1         0.0976
      17    C5      17.744440   20.275938   23.495933 C.3        1 MOL1        -0.1350
      18    H12     16.882475   20.576952   22.884150 H          1 MOL1         0.0976
      19    H13     18.272533   21.203092   23.759184 H          1 MOL1         0.0976
      20    C6      17.225731   19.589845   24.780304 C.3        1 MOL1        -0.2365
      21    H14     18.040552   19.381864   25.484625 H          1 MOL1         0.0987
      22    H15     16.722111   18.642891   24.546520 H          1 MOL1         0.0987
      23    H16     16.502814   20.235764   25.295207 H          1 MOL1         0.0987
@<TRIPOS>BOND
    1     1     2    1
    2     1     3    1
    3     1     4    1
    4     1     5    1
    5     5     6    1
    6     5     7    1
    7     5     8    1
    8     8     9    1
    9     8    10    1
   10     8    11    1
   11    11    12    1
   12    11    13    1
   13    11    14    1
   14    14    15    1
   15    14    16    1
   16    14    17    1
   17    17    18    1
   18    17    19    1
   19    17    20    1
   20    20    21    1
   21    20    22    1
   22    20    23    1
@<TRIPOS>SUBSTRUCTURE
       1 MOL1            1 RESIDUE      1      MOL     
@<SCITEGIC>MOL_PROPERTY
VConf Rank
SciTegic.value.IntegerValue
915

@<SCITEGIC>MOL_PROPERTY
Conf_Id
SciTegic.value.IntegerValue
92

@<SCITEGIC>MOL_PROPERTY
Delta U+W
SciTegic.value.DoubleValue
0.973

@<SCITEGIC>MOL_PROPERTY
U+W
SciTegic.value.DoubleValue
-7.409

@<SCITEGIC>MOL_PROPERTY
Grad RMS
SciTegic.value.DoubleValue
0.000000

@<SCITEGIC>MOL_PROPERTY
U
SciTegic.value.DoubleValue
48.047

@<SCITEGIC>MOL_PROPERTY
W
SciTegic.value.DoubleValue
-55.456

@<SCITEGIC>MOL_PROPERTY
W(PB)
SciTegic.value.DoubleValue
-57.595

@<SCITEGIC>MOL_PROPERTY
W(SA)
SciTegic.value.DoubleValue
2.138

@<SCITEGIC>MOL_PROPERTY
Valence
SciTegic.value.DoubleValue
2.583

@<SCITEGIC>MOL_PROPERTY
Coulomb
SciTegic.value.DoubleValue
44.791

@<SCITEGIC>MOL_PROPERTY
VdW
SciTegic.value.DoubleValue
0.674

@<SCITEGIC>MOL_PROPERTY
VdW6
SciTegic.value.DoubleValue
-5.789

@<SCITEGIC>MOL_PROPERTY
VdW12
SciTegic.value.DoubleValue
6.462

@<SCITEGIC>MOL_PROPERTY
Bond
SciTegic.value.DoubleValue
0.177

@<SCITEGIC>MOL_PROPERTY
Angle
SciTegic.value.DoubleValue
0.787

@<SCITEGIC>MOL_PROPERTY
Pdih
SciTegic.value.DoubleValue
1.619

@<SCITEGIC>MOL_PROPERTY
Idih
SciTegic.value.DoubleValue
0.000

@<SCITEGIC>MOL_PROPERTY
Tether
SciTegic.value.DoubleValue
0.000

@<TRIPOS>MOLECULE
guest-2_confgen4.mol2 : confsearch ligand conformer 916
          23          22           1
SMALL
USER_CHARGES
 
@<TRIPOS>ATOM
       1    N1      22.397749   21.217555   21.963485 N.4        1 MOL1        -0.5940
       2    H1      22.560706   22.032069   22.565186 H          1 MOL1         0.3649
       3    H2      22.499710   21.537796   20.995031 H          1 MOL1         0.3649
       4    H3      23.160037   20.556419   22.144196 H          1 MOL1         0.3649
       5    C1      21.038766   20.595840   22.213312 C.3        1 MOL1         0.0207
       6    H4      20.278953   21.360444   22.030333 H          1 MOL1         0.0950
       7    H5      20.990568   20.307732   23.266576 H          1 MOL1         0.0950
       8    C2      20.763743   19.368814   21.323578 C.3        1 MOL1        -0.1415
       9    H6      20.859056   19.661587   20.269469 H          1 MOL1         0.0976
      10    H7      21.527429   18.601219   21.506817 H          1 MOL1         0.0976
      11    C3      19.356881   18.767554   21.552177 C.3        1 MOL1        -0.1375
      12    H8      19.196270   17.960543   20.823899 H          1 MOL1         0.0976
      13    H9      18.594051   19.530506   21.343264 H          1 MOL1         0.0976
      14    C4      19.159239   18.209095   22.982046 C.3        1 MOL1        -0.1375
      15    H10     19.943374   17.470699   23.199581 H          1 MOL1         0.0976
      16    H11     19.268650   19.016010   23.718915 H          1 MOL1         0.0976
      17    C5      17.772074   17.551168   23.154311 C.3        1 MOL1        -0.1350
      18    H12     17.654648   16.735772   22.426781 H          1 MOL1         0.0976
      19    H13     16.983652   18.285484   22.937170 H          1 MOL1         0.0976
      20    C6      17.575518   16.995808   24.581022 C.3        1 MOL1        -0.2365
      21    H14     18.330063   16.233597   24.815379 H          1 MOL1         0.0987
      22    H15     16.585648   16.532484   24.683654 H          1 MOL1         0.0987
      23    H16     17.652612   17.794832   25.329913 H          1 MOL1         0.0987
@<TRIPOS>BOND
    1     1     2    1
    2     1     3    1
    3     1     4    1
    4     1     5    1
    5     5     6    1
    6     5     7    1
    7     5     8    1
    8     8     9    1
    9     8    10    1
   10     8    11    1
   11    11    12    1
   12    11    13    1
   13    11    14    1
   14    14    15    1
   15    14    16    1
   16    14    17    1
   17    17    18    1
   18    17    19    1
   19    17    20    1
   20    20    21    1
   21    20    22    1
   22    20    23    1
@<TRIPOS>SUBSTRUCTURE
       1 MOL1            1 RESIDUE      1      MOL     
@<SCITEGIC>MOL_PROPERTY
VConf Rank
SciTegic.value.IntegerValue
916

@<SCITEGIC>MOL_PROPERTY
Conf_Id
SciTegic.value.IntegerValue
42

@<SCITEGIC>MOL_PROPERTY
Delta U+W
SciTegic.value.DoubleValue
0.365

@<SCITEGIC>MOL_PROPERTY
U+W
SciTegic.value.DoubleValue
-8.017

@<SCITEGIC>MOL_PROPERTY
Grad RMS
SciTegic.value.DoubleValue
0.000000

@<SCITEGIC>MOL_PROPERTY
U
SciTegic.value.DoubleValue
47.375

@<SCITEGIC>MOL_PROPERTY
W
SciTegic.value.DoubleValue
-55.392

@<SCITEGIC>MOL_PROPERTY
W(PB)
SciTegic.value.DoubleValue
-57.543

@<SCITEGIC>MOL_PROPERTY
W(SA)
SciTegic.value.DoubleValue
2.152

@<SCITEGIC>MOL_PROPERTY
Valence
SciTegic.value.DoubleValue
2.032

@<SCITEGIC>MOL_PROPERTY
Coulomb
SciTegic.value.DoubleValue
44.843

@<SCITEGIC>MOL_PROPERTY
VdW
SciTegic.value.DoubleValue
0.499

@<SCITEGIC>MOL_PROPERTY
VdW6
SciTegic.value.DoubleValue
-5.218

@<SCITEGIC>MOL_PROPERTY
VdW12
SciTegic.value.DoubleValue
5.717

@<SCITEGIC>MOL_PROPERTY
Bond
SciTegic.value.DoubleValue
0.135

@<SCITEGIC>MOL_PROPERTY
Angle
SciTegic.value.DoubleValue
0.514

@<SCITEGIC>MOL_PROPERTY
Pdih
SciTegic.value.DoubleValue
1.383

@<SCITEGIC>MOL_PROPERTY
Idih
SciTegic.value.DoubleValue
0.000

@<SCITEGIC>MOL_PROPERTY
Tether
SciTegic.value.DoubleValue
0.000

@<TRIPOS>MOLECULE
guest-2_confgen4.mol2 : confsearch ligand conformer 917
          23          22           1
SMALL
USER_CHARGES
 
@<TRIPOS>ATOM
       1    N1      20.791152   21.901878   21.899479 N.4        1 MOL1        -0.5940
       2    H1      20.497884   21.828245   20.920089 H          1 MOL1         0.3649
       3    H2      21.448204   22.687368   21.956364 H          1 MOL1         0.3649
       4    H3      19.964187   22.163859   22.444360 H          1 MOL1         0.3649
       5    C1      21.411493   20.612128   22.400783 C.3        1 MOL1         0.0207
       6    H4      21.722510   20.764712   23.437802 H          1 MOL1         0.0950
       7    H5      22.306189   20.421749   21.801745 H          1 MOL1         0.0950
       8    C2      20.472038   19.393432   22.314556 C.3        1 MOL1        -0.1415
       9    H6      20.139141   19.258844   21.276907 H          1 MOL1         0.0976
      10    H7      21.053344   18.502731   22.582612 H          1 MOL1         0.0976
      11    C3      19.249187   19.512482   23.256506 C.3        1 MOL1        -0.1375
      12    H8      18.725798   20.456946   23.058054 H          1 MOL1         0.0976
      13    H9      19.596077   19.568440   24.297632 H          1 MOL1         0.0976
      14    C4      18.220861   18.359904   23.118061 C.3        1 MOL1        -0.1375
      15    H10     17.386430   18.578756   23.798733 H          1 MOL1         0.0976
      16    H11     17.786167   18.360911   22.108970 H          1 MOL1         0.0976
      17    C5      18.768463   16.951247   23.464842 C.3        1 MOL1        -0.1350
      18    H12     17.971011   16.377152   23.957242 H          1 MOL1         0.0976
      19    H13     19.582450   17.027390   24.199162 H          1 MOL1         0.0976
      20    C6      19.234435   16.151739   22.225521 C.3        1 MOL1        -0.2365
      21    H14     18.406208   16.005425   21.520049 H          1 MOL1         0.0987
      22    H15     19.596897   15.159240   22.522980 H          1 MOL1         0.0987
      23    H16     20.047128   16.655247   21.690610 H          1 MOL1         0.0987
@<TRIPOS>BOND
    1     1     2    1
    2     1     3    1
    3     1     4    1
    4     1     5    1
    5     5     6    1
    6     5     7    1
    7     5     8    1
    8     8     9    1
    9     8    10    1
   10     8    11    1
   11    11    12    1
   12    11    13    1
   13    11    14    1
   14    14    15    1
   15    14    16    1
   16    14    17    1
   17    17    18    1
   18    17    19    1
   19    17    20    1
   20    20    21    1
   21    20    22    1
   22    20    23    1
@<TRIPOS>SUBSTRUCTURE
       1 MOL1            1 RESIDUE      1      MOL     
@<SCITEGIC>MOL_PROPERTY
VConf Rank
SciTegic.value.IntegerValue
917

@<SCITEGIC>MOL_PROPERTY
Conf_Id
SciTegic.value.IntegerValue
3

@<SCITEGIC>MOL_PROPERTY
Delta U+W
SciTegic.value.DoubleValue
3.283

@<SCITEGIC>MOL_PROPERTY
U+W
SciTegic.value.DoubleValue
-5.099

@<SCITEGIC>MOL_PROPERTY
Grad RMS
SciTegic.value.DoubleValue
0.000000

@<SCITEGIC>MOL_PROPERTY
U
SciTegic.value.DoubleValue
50.701

@<SCITEGIC>MOL_PROPERTY
W
SciTegic.value.DoubleValue
-55.800

@<SCITEGIC>MOL_PROPERTY
W(PB)
SciTegic.value.DoubleValue
-57.867

@<SCITEGIC>MOL_PROPERTY
W(SA)
SciTegic.value.DoubleValue
2.067

@<SCITEGIC>MOL_PROPERTY
Valence
SciTegic.value.DoubleValue
4.880

@<SCITEGIC>MOL_PROPERTY
Coulomb
SciTegic.value.DoubleValue
45.095

@<SCITEGIC>MOL_PROPERTY
VdW
SciTegic.value.DoubleValue
0.726

@<SCITEGIC>MOL_PROPERTY
VdW6
SciTegic.value.DoubleValue
-6.620

@<SCITEGIC>MOL_PROPERTY
VdW12
SciTegic.value.DoubleValue
7.346

@<SCITEGIC>MOL_PROPERTY
Bond
SciTegic.value.DoubleValue
0.222

@<SCITEGIC>MOL_PROPERTY
Angle
SciTegic.value.DoubleValue
1.260

@<SCITEGIC>MOL_PROPERTY
Pdih
SciTegic.value.DoubleValue
3.398

@<SCITEGIC>MOL_PROPERTY
Idih
SciTegic.value.DoubleValue
0.000

@<SCITEGIC>MOL_PROPERTY
Tether
SciTegic.value.DoubleValue
0.000

@<TRIPOS>MOLECULE
guest-2_confgen4.mol2 : confsearch ligand conformer 918
          23          22           1
SMALL
USER_CHARGES
 
@<TRIPOS>ATOM
       1    N1      22.487246   18.490799   21.637953 N.4        1 MOL1        -0.5940
       2    H1      22.567945   17.591432   21.153000 H          1 MOL1         0.3649
       3    H2      23.409891   18.936763   21.596992 H          1 MOL1         0.3649
       4    H3      21.846636   19.073948   21.091001 H          1 MOL1         0.3649
       5    C1      22.007058   18.319551   23.065674 C.3        1 MOL1         0.0207
       6    H4      21.972783   19.307044   23.532764 H          1 MOL1         0.0950
       7    H5      22.751019   17.719859   23.597104 H          1 MOL1         0.0950
       8    C2      20.627280   17.639284   23.178487 C.3        1 MOL1        -0.1415
       9    H6      20.690428   16.629420   22.751884 H          1 MOL1         0.0976
      10    H7      20.385533   17.507110   24.241477 H          1 MOL1         0.0976
      11    C3      19.478135   18.415280   22.486430 C.3        1 MOL1        -0.1375
      12    H8      18.558276   17.825724   22.592067 H          1 MOL1         0.0976
      13    H9      19.672232   18.488052   21.408108 H          1 MOL1         0.0976
      14    C4      19.256429   19.831351   23.076359 C.3        1 MOL1        -0.1375
      15    H10     19.035004   19.754720   24.149796 H          1 MOL1         0.0976
      16    H11     20.183316   20.413851   22.993120 H          1 MOL1         0.0976
      17    C5      18.127469   20.622328   22.371908 C.3        1 MOL1        -0.1350
      18    H12     18.349040   20.711635   21.299222 H          1 MOL1         0.0976
      19    H13     18.115510   21.647034   22.769020 H          1 MOL1         0.0976
      20    C6      16.725663   19.999790   22.563560 C.3        1 MOL1        -0.2365
      21    H14     16.493713   19.869114   23.628516 H          1 MOL1         0.0987
      22    H15     16.646726   19.022623   22.071461 H          1 MOL1         0.0987
      23    H16     15.954627   20.649656   22.129841 H          1 MOL1         0.0987
@<TRIPOS>BOND
    1     1     2    1
    2     1     3    1
    3     1     4    1
    4     1     5    1
    5     5     6    1
    6     5     7    1
    7     5     8    1
    8     8     9    1
    9     8    10    1
   10     8    11    1
   11    11    12    1
   12    11    13    1
   13    11    14    1
   14    14    15    1
   15    14    16    1
   16    14    17    1
   17    17    18    1
   18    17    19    1
   19    17    20    1
   20    20    21    1
   21    20    22    1
   22    20    23    1
@<TRIPOS>SUBSTRUCTURE
       1 MOL1            1 RESIDUE      1      MOL     
@<SCITEGIC>MOL_PROPERTY
VConf Rank
SciTegic.value.IntegerValue
918

@<SCITEGIC>MOL_PROPERTY
Conf_Id
SciTegic.value.IntegerValue
83

@<SCITEGIC>MOL_PROPERTY
Delta U+W
SciTegic.value.DoubleValue
1.229

@<SCITEGIC>MOL_PROPERTY
U+W
SciTegic.value.DoubleValue
-7.154

@<SCITEGIC>MOL_PROPERTY
Grad RMS
SciTegic.value.DoubleValue
0.000000

@<SCITEGIC>MOL_PROPERTY
U
SciTegic.value.DoubleValue
48.727

@<SCITEGIC>MOL_PROPERTY
W
SciTegic.value.DoubleValue
-55.880

@<SCITEGIC>MOL_PROPERTY
W(PB)
SciTegic.value.DoubleValue
-57.960

@<SCITEGIC>MOL_PROPERTY
W(SA)
SciTegic.value.DoubleValue
2.080

@<SCITEGIC>MOL_PROPERTY
Valence
SciTegic.value.DoubleValue
2.671

@<SCITEGIC>MOL_PROPERTY
Coulomb
SciTegic.value.DoubleValue
45.371

@<SCITEGIC>MOL_PROPERTY
VdW
SciTegic.value.DoubleValue
0.684

@<SCITEGIC>MOL_PROPERTY
VdW6
SciTegic.value.DoubleValue
-6.511

@<SCITEGIC>MOL_PROPERTY
VdW12
SciTegic.value.DoubleValue
7.195

@<SCITEGIC>MOL_PROPERTY
Bond
SciTegic.value.DoubleValue
0.203

@<SCITEGIC>MOL_PROPERTY
Angle
SciTegic.value.DoubleValue
0.915

@<SCITEGIC>MOL_PROPERTY
Pdih
SciTegic.value.DoubleValue
1.554

@<SCITEGIC>MOL_PROPERTY
Idih
SciTegic.value.DoubleValue
0.000

@<SCITEGIC>MOL_PROPERTY
Tether
SciTegic.value.DoubleValue
0.000

@<TRIPOS>MOLECULE
guest-2_confgen4.mol2 : confsearch ligand conformer 919
          23          22           1
SMALL
USER_CHARGES
 
@<TRIPOS>ATOM
       1    N1      19.919504   16.835023   24.474533 N.4        1 MOL1        -0.5940
       2    H1      20.885172   16.595612   24.720948 H          1 MOL1         0.3649
       3    H2      19.810191   16.659933   23.471041 H          1 MOL1         0.3649
       4    H3      19.311886   16.169647   24.964338 H          1 MOL1         0.3649
       5    C1      19.586623   18.270313   24.831507 C.3        1 MOL1         0.0207
       6    H4      19.690244   18.376196   25.914824 H          1 MOL1         0.0950
       7    H5      18.540049   18.450146   24.572988 H          1 MOL1         0.0950
       8    C2      20.485004   19.308542   24.128463 C.3        1 MOL1        -0.1415
       9    H6      20.211251   20.310368   24.485203 H          1 MOL1         0.0976
      10    H7      21.526373   19.148303   24.437780 H          1 MOL1         0.0976
      11    C3      20.401024   19.277115   22.581334 C.3        1 MOL1        -0.1375
      12    H8      20.745234   18.303616   22.207747 H          1 MOL1         0.0976
      13    H9      21.105082   20.021588   22.187713 H          1 MOL1         0.0976
      14    C4      18.978581   19.573139   22.041469 C.3        1 MOL1        -0.1375
      15    H10     18.269324   18.843613   22.453903 H          1 MOL1         0.0976
      16    H11     18.646861   20.559653   22.393495 H          1 MOL1         0.0976
      17    C5      18.881655   19.516914   20.497485 C.3        1 MOL1        -0.1350
      18    H12     17.826695   19.620743   20.207413 H          1 MOL1         0.0976
      19    H13     19.202139   18.528293   20.140210 H          1 MOL1         0.0976
      20    C6      19.701939   20.617856   19.787270 C.3        1 MOL1        -0.2365
      21    H14     19.423214   21.615154   20.151574 H          1 MOL1         0.0987
      22    H15     19.520553   20.593562   18.704938 H          1 MOL1         0.0987
      23    H16     20.779340   20.482985   19.943030 H          1 MOL1         0.0987
@<TRIPOS>BOND
    1     1     2    1
    2     1     3    1
    3     1     4    1
    4     1     5    1
    5     5     6    1
    6     5     7    1
    7     5     8    1
    8     8     9    1
    9     8    10    1
   10     8    11    1
   11    11    12    1
   12    11    13    1
   13    11    14    1
   14    14    15    1
   15    14    16    1
   16    14    17    1
   17    17    18    1
   18    17    19    1
   19    17    20    1
   20    20    21    1
   21    20    22    1
   22    20    23    1
@<TRIPOS>SUBSTRUCTURE
       1 MOL1            1 RESIDUE      1      MOL     
@<SCITEGIC>MOL_PROPERTY
VConf Rank
SciTegic.value.IntegerValue
919

@<SCITEGIC>MOL_PROPERTY
Conf_Id
SciTegic.value.IntegerValue
50

@<SCITEGIC>MOL_PROPERTY
Delta U+W
SciTegic.value.DoubleValue
1.252

@<SCITEGIC>MOL_PROPERTY
U+W
SciTegic.value.DoubleValue
-7.130

@<SCITEGIC>MOL_PROPERTY
Grad RMS
SciTegic.value.DoubleValue
0.000000

@<SCITEGIC>MOL_PROPERTY
U
SciTegic.value.DoubleValue
48.727

@<SCITEGIC>MOL_PROPERTY
W
SciTegic.value.DoubleValue
-55.857

@<SCITEGIC>MOL_PROPERTY
W(PB)
SciTegic.value.DoubleValue
-57.937

@<SCITEGIC>MOL_PROPERTY
W(SA)
SciTegic.value.DoubleValue
2.080

@<SCITEGIC>MOL_PROPERTY
Valence
SciTegic.value.DoubleValue
2.671

@<SCITEGIC>MOL_PROPERTY
Coulomb
SciTegic.value.DoubleValue
45.371

@<SCITEGIC>MOL_PROPERTY
VdW
SciTegic.value.DoubleValue
0.684

@<SCITEGIC>MOL_PROPERTY
VdW6
SciTegic.value.DoubleValue
-6.511

@<SCITEGIC>MOL_PROPERTY
VdW12
SciTegic.value.DoubleValue
7.196

@<SCITEGIC>MOL_PROPERTY
Bond
SciTegic.value.DoubleValue
0.203

@<SCITEGIC>MOL_PROPERTY
Angle
SciTegic.value.DoubleValue
0.915

@<SCITEGIC>MOL_PROPERTY
Pdih
SciTegic.value.DoubleValue
1.554

@<SCITEGIC>MOL_PROPERTY
Idih
SciTegic.value.DoubleValue
0.000

@<SCITEGIC>MOL_PROPERTY
Tether
SciTegic.value.DoubleValue
0.000

@<TRIPOS>MOLECULE
guest-2_confgen4.mol2 : confsearch ligand conformer 920
          23          22           1
SMALL
USER_CHARGES
 
@<TRIPOS>ATOM
       1    N1      19.705644   22.228459   22.549831 N.4        1 MOL1        -0.5940
       2    H1      19.210480   22.014924   23.420892 H          1 MOL1         0.3649
       3    H2      19.264254   23.064192   22.151518 H          1 MOL1         0.3649
       4    H3      20.664501   22.488499   22.802016 H          1 MOL1         0.3649
       5    C1      19.673815   21.060440   21.583416 C.3        1 MOL1         0.0207
       6    H4      20.182151   21.374284   20.667627 H          1 MOL1         0.0950
       7    H5      18.629061   20.851222   21.338200 H          1 MOL1         0.0950
       8    C2      20.344076   19.783920   22.127480 C.3        1 MOL1        -0.1415
       9    H6      20.367845   19.040033   21.323285 H          1 MOL1         0.0976
      10    H7      21.391270   20.000411   22.377048 H          1 MOL1         0.0976
      11    C3      19.614991   19.209290   23.368814 C.3        1 MOL1        -0.1375
      12    H8      18.544704   19.078471   23.157323 H          1 MOL1         0.0976
      13    H9      19.677174   19.945303   24.181468 H          1 MOL1         0.0976
      14    C4      20.223089   17.875820   23.876927 C.3        1 MOL1        -0.1375
      15    H10     21.296405   17.833165   23.645918 H          1 MOL1         0.0976
      16    H11     20.156367   17.865144   24.973707 H          1 MOL1         0.0976
      17    C5      19.514174   16.599723   23.355178 C.3        1 MOL1        -0.1350
      18    H12     18.464037   16.603245   23.679172 H          1 MOL1         0.0976
      19    H13     19.976344   15.724400   23.832695 H          1 MOL1         0.0976
      20    C6      19.576526   16.417820   21.822841 C.3        1 MOL1        -0.2365
      21    H14     20.611070   16.468292   21.459514 H          1 MOL1         0.0987
      22    H15     18.985805   17.184123   21.306022 H          1 MOL1         0.0987
      23    H16     19.167454   15.440468   21.535904 H          1 MOL1         0.0987
@<TRIPOS>BOND
    1     1     2    1
    2     1     3    1
    3     1     4    1
    4     1     5    1
    5     5     6    1
    6     5     7    1
    7     5     8    1
    8     8     9    1
    9     8    10    1
   10     8    11    1
   11    11    12    1
   12    11    13    1
   13    11    14    1
   14    14    15    1
   15    14    16    1
   16    14    17    1
   17    17    18    1
   18    17    19    1
   19    17    20    1
   20    20    21    1
   21    20    22    1
   22    20    23    1
@<TRIPOS>SUBSTRUCTURE
       1 MOL1            1 RESIDUE      1      MOL     
@<SCITEGIC>MOL_PROPERTY
VConf Rank
SciTegic.value.IntegerValue
920

@<SCITEGIC>MOL_PROPERTY
Conf_Id
SciTegic.value.IntegerValue
55

@<SCITEGIC>MOL_PROPERTY
Delta U+W
SciTegic.value.DoubleValue
3.232

@<SCITEGIC>MOL_PROPERTY
U+W
SciTegic.value.DoubleValue
-5.150

@<SCITEGIC>MOL_PROPERTY
Grad RMS
SciTegic.value.DoubleValue
0.000000

@<SCITEGIC>MOL_PROPERTY
U
SciTegic.value.DoubleValue
50.625

@<SCITEGIC>MOL_PROPERTY
W
SciTegic.value.DoubleValue
-55.776

@<SCITEGIC>MOL_PROPERTY
W(PB)
SciTegic.value.DoubleValue
-57.839

@<SCITEGIC>MOL_PROPERTY
W(SA)
SciTegic.value.DoubleValue
2.064

@<SCITEGIC>MOL_PROPERTY
Valence
SciTegic.value.DoubleValue
4.837

@<SCITEGIC>MOL_PROPERTY
Coulomb
SciTegic.value.DoubleValue
45.097

@<SCITEGIC>MOL_PROPERTY
VdW
SciTegic.value.DoubleValue
0.692

@<SCITEGIC>MOL_PROPERTY
VdW6
SciTegic.value.DoubleValue
-6.655

@<SCITEGIC>MOL_PROPERTY
VdW12
SciTegic.value.DoubleValue
7.347

@<SCITEGIC>MOL_PROPERTY
Bond
SciTegic.value.DoubleValue
0.223

@<SCITEGIC>MOL_PROPERTY
Angle
SciTegic.value.DoubleValue
1.167

@<SCITEGIC>MOL_PROPERTY
Pdih
SciTegic.value.DoubleValue
3.447

@<SCITEGIC>MOL_PROPERTY
Idih
SciTegic.value.DoubleValue
0.000

@<SCITEGIC>MOL_PROPERTY
Tether
SciTegic.value.DoubleValue
0.000

@<TRIPOS>MOLECULE
guest-2_confgen4.mol2 : confsearch ligand conformer 921
          23          22           1
SMALL
USER_CHARGES
 
@<TRIPOS>ATOM
       1    N1      18.061875   21.559373   23.067124 N.4        1 MOL1        -0.5940
       2    H1      18.448619   22.508624   23.053707 H          1 MOL1         0.3649
       3    H2      17.315271   21.552115   23.770351 H          1 MOL1         0.3649
       4    H3      17.616138   21.402766   22.157427 H          1 MOL1         0.3649
       5    C1      19.124362   20.520488   23.362907 C.3        1 MOL1         0.0207
       6    H4      18.636171   19.544872   23.397305 H          1 MOL1         0.0950
       7    H5      19.533823   20.731593   24.354459 H          1 MOL1         0.0950
       8    C2      20.264410   20.512549   22.325596 C.3        1 MOL1        -0.1415
       9    H6      19.862438   20.347663   21.317086 H          1 MOL1         0.0976
      10    H7      20.723539   21.510119   22.316960 H          1 MOL1         0.0976
      11    C3      21.364265   19.466681   22.638556 C.3        1 MOL1        -0.1375
      12    H8      21.530136   19.407990   23.723289 H          1 MOL1         0.0976
      13    H9      22.310498   19.828475   22.212826 H          1 MOL1         0.0976
      14    C4      21.103975   18.050729   22.061667 C.3        1 MOL1        -0.1375
      15    H10     21.043977   18.107316   20.965998 H          1 MOL1         0.0976
      16    H11     21.978432   17.424417   22.286388 H          1 MOL1         0.0976
      17    C5      19.836349   17.355127   22.609174 C.3        1 MOL1        -0.1350
      18    H12     18.939676   17.883406   22.260154 H          1 MOL1         0.0976
      19    H13     19.832396   17.395471   23.707370 H          1 MOL1         0.0976
      20    C6      19.751566   15.883626   22.150725 C.3        1 MOL1        -0.2365
      21    H14     20.612423   15.306399   22.512593 H          1 MOL1         0.0987
      22    H15     19.728093   15.812378   21.055452 H          1 MOL1         0.0987
      23    H16     18.841203   15.408612   22.538836 H          1 MOL1         0.0987
@<TRIPOS>BOND
    1     1     2    1
    2     1     3    1
    3     1     4    1
    4     1     5    1
    5     5     6    1
    6     5     7    1
    7     5     8    1
    8     8     9    1
    9     8    10    1
   10     8    11    1
   11    11    12    1
   12    11    13    1
   13    11    14    1
   14    14    15    1
   15    14    16    1
   16    14    17    1
   17    17    18    1
   18    17    19    1
   19    17    20    1
   20    20    21    1
   21    20    22    1
   22    20    23    1
@<TRIPOS>SUBSTRUCTURE
       1 MOL1            1 RESIDUE      1      MOL     
@<SCITEGIC>MOL_PROPERTY
VConf Rank
SciTegic.value.IntegerValue
921

@<SCITEGIC>MOL_PROPERTY
Conf_Id
SciTegic.value.IntegerValue
93

@<SCITEGIC>MOL_PROPERTY
Delta U+W
SciTegic.value.DoubleValue
2.589

@<SCITEGIC>MOL_PROPERTY
U+W
SciTegic.value.DoubleValue
-5.793

@<SCITEGIC>MOL_PROPERTY
Grad RMS
SciTegic.value.DoubleValue
0.000000

@<SCITEGIC>MOL_PROPERTY
U
SciTegic.value.DoubleValue
50.122

@<SCITEGIC>MOL_PROPERTY
W
SciTegic.value.DoubleValue
-55.915

@<SCITEGIC>MOL_PROPERTY
W(PB)
SciTegic.value.DoubleValue
-58.031

@<SCITEGIC>MOL_PROPERTY
W(SA)
SciTegic.value.DoubleValue
2.115

@<SCITEGIC>MOL_PROPERTY
Valence
SciTegic.value.DoubleValue
4.132

@<SCITEGIC>MOL_PROPERTY
Coulomb
SciTegic.value.DoubleValue
45.536

@<SCITEGIC>MOL_PROPERTY
VdW
SciTegic.value.DoubleValue
0.454

@<SCITEGIC>MOL_PROPERTY
VdW6
SciTegic.value.DoubleValue
-6.262

@<SCITEGIC>MOL_PROPERTY
VdW12
SciTegic.value.DoubleValue
6.715

@<SCITEGIC>MOL_PROPERTY
Bond
SciTegic.value.DoubleValue
0.182

@<SCITEGIC>MOL_PROPERTY
Angle
SciTegic.value.DoubleValue
1.157

@<SCITEGIC>MOL_PROPERTY
Pdih
SciTegic.value.DoubleValue
2.794

@<SCITEGIC>MOL_PROPERTY
Idih
SciTegic.value.DoubleValue
0.000

@<SCITEGIC>MOL_PROPERTY
Tether
SciTegic.value.DoubleValue
0.000

@<TRIPOS>MOLECULE
guest-2_confgen4.mol2 : confsearch ligand conformer 922
          23          22           1
SMALL
USER_CHARGES
 
@<TRIPOS>ATOM
       1    N1      20.313211   18.655818   19.534163 N.4        1 MOL1        -0.5940
       2    H1      19.488896   18.053755   19.440456 H          1 MOL1         0.3649
       3    H2      21.119649   18.109629   19.212706 H          1 MOL1         0.3649
       4    H3      20.196716   19.431084   18.873693 H          1 MOL1         0.3649
       5    C1      20.496281   19.147225   20.955659 C.3        1 MOL1         0.0207
       6    H4      21.404320   19.755428   20.986542 H          1 MOL1         0.0950
       7    H5      20.649792   18.274460   21.592884 H          1 MOL1         0.0950
       8    C2      19.301908   19.978223   21.464288 C.3        1 MOL1        -0.1415
       9    H6      19.177140   20.839780   20.794831 H          1 MOL1         0.0976
      10    H7      18.373792   19.395357   21.395520 H          1 MOL1         0.0976
      11    C3      19.496698   20.501656   22.909811 C.3        1 MOL1        -0.1375
      12    H8      18.917627   21.429275   23.017971 H          1 MOL1         0.0976
      13    H9      20.546043   20.786657   23.068723 H          1 MOL1         0.0976
      14    C4      19.033473   19.529353   24.025842 C.3        1 MOL1        -0.1375
      15    H10     19.154790   20.036868   24.992873 H          1 MOL1         0.0976
      16    H11     17.957605   19.334119   23.917758 H          1 MOL1         0.0976
      17    C5      19.796709   18.185371   24.066911 C.3        1 MOL1        -0.1350
      18    H12     20.879989   18.370102   24.059507 H          1 MOL1         0.0976
      19    H13     19.560593   17.593839   23.172900 H          1 MOL1         0.0976
      20    C6      19.426964   17.358790   25.317004 C.3        1 MOL1        -0.2365
      21    H14     19.968876   16.404168   25.324633 H          1 MOL1         0.0987
      22    H15     18.352139   17.136276   25.339104 H          1 MOL1         0.0987
      23    H16     19.683486   17.898366   26.238019 H          1 MOL1         0.0987
@<TRIPOS>BOND
    1     1     2    1
    2     1     3    1
    3     1     4    1
    4     1     5    1
    5     5     6    1
    6     5     7    1
    7     5     8    1
    8     8     9    1
    9     8    10    1
   10     8    11    1
   11    11    12    1
   12    11    13    1
   13    11    14    1
   14    14    15    1
   15    14    16    1
   16    14    17    1
   17    17    18    1
   18    17    19    1
   19    17    20    1
   20    20    21    1
   21    20    22    1
   22    20    23    1
@<TRIPOS>SUBSTRUCTURE
       1 MOL1            1 RESIDUE      1      MOL     
@<SCITEGIC>MOL_PROPERTY
VConf Rank
SciTegic.value.IntegerValue
922

@<SCITEGIC>MOL_PROPERTY
Conf_Id
SciTegic.value.IntegerValue
70

@<SCITEGIC>MOL_PROPERTY
Delta U+W
SciTegic.value.DoubleValue
2.599

@<SCITEGIC>MOL_PROPERTY
U+W
SciTegic.value.DoubleValue
-5.783

@<SCITEGIC>MOL_PROPERTY
Grad RMS
SciTegic.value.DoubleValue
0.000000

@<SCITEGIC>MOL_PROPERTY
U
SciTegic.value.DoubleValue
50.122

@<SCITEGIC>MOL_PROPERTY
W
SciTegic.value.DoubleValue
-55.906

@<SCITEGIC>MOL_PROPERTY
W(PB)
SciTegic.value.DoubleValue
-58.010

@<SCITEGIC>MOL_PROPERTY
W(SA)
SciTegic.value.DoubleValue
2.105

@<SCITEGIC>MOL_PROPERTY
Valence
SciTegic.value.DoubleValue
4.132

@<SCITEGIC>MOL_PROPERTY
Coulomb
SciTegic.value.DoubleValue
45.536

@<SCITEGIC>MOL_PROPERTY
VdW
SciTegic.value.DoubleValue
0.454

@<SCITEGIC>MOL_PROPERTY
VdW6
SciTegic.value.DoubleValue
-6.262

@<SCITEGIC>MOL_PROPERTY
VdW12
SciTegic.value.DoubleValue
6.715

@<SCITEGIC>MOL_PROPERTY
Bond
SciTegic.value.DoubleValue
0.182

@<SCITEGIC>MOL_PROPERTY
Angle
SciTegic.value.DoubleValue
1.157

@<SCITEGIC>MOL_PROPERTY
Pdih
SciTegic.value.DoubleValue
2.794

@<SCITEGIC>MOL_PROPERTY
Idih
SciTegic.value.DoubleValue
0.000

@<SCITEGIC>MOL_PROPERTY
Tether
SciTegic.value.DoubleValue
0.000

@<TRIPOS>MOLECULE
guest-2_confgen4.mol2 : confsearch ligand conformer 923
          23          22           1
SMALL
USER_CHARGES
 
@<TRIPOS>ATOM
       1    N1      21.186008   20.682483   20.765595 N.4        1 MOL1        -0.5940
       2    H1      21.308992   20.485415   19.767323 H          1 MOL1         0.3649
       3    H2      21.809892   21.463267   20.995615 H          1 MOL1         0.3649
       4    H3      20.225876   21.016483   20.892307 H          1 MOL1         0.3649
       5    C1      21.471124   19.462576   21.619277 C.3        1 MOL1         0.0207
       6    H4      21.355549   19.747490   22.668282 H          1 MOL1         0.0950
       7    H5      22.514659   19.179199   21.457330 H          1 MOL1         0.0950
       8    C2      20.558750   18.260297   21.303235 C.3        1 MOL1        -0.1415
       9    H6      20.708618   17.961142   20.257404 H          1 MOL1         0.0976
      10    H7      20.880434   17.402918   21.908078 H          1 MOL1         0.0976
      11    C3      19.050583   18.533011   21.544200 C.3        1 MOL1        -0.1375
      12    H8      18.486592   17.614085   21.332795 H          1 MOL1         0.0976
      13    H9      18.695427   19.273048   20.814513 H          1 MOL1         0.0976
      14    C4      18.696083   19.027040   22.970757 C.3        1 MOL1        -0.1375
      15    H10     19.177424   19.994733   23.165110 H          1 MOL1         0.0976
      16    H11     17.614097   19.213630   23.013506 H          1 MOL1         0.0976
      17    C5      19.076587   18.023352   24.084633 C.3        1 MOL1        -0.1350
      18    H12     20.164595   17.876022   24.106358 H          1 MOL1         0.0976
      19    H13     18.626359   17.043870   23.871040 H          1 MOL1         0.0976
      20    C6      18.609436   18.509783   25.472991 C.3        1 MOL1        -0.2365
      21    H14     18.889478   17.787856   26.251074 H          1 MOL1         0.0987
      22    H15     17.518713   18.630681   25.502978 H          1 MOL1         0.0987
      23    H16     19.067540   19.474375   25.727760 H          1 MOL1         0.0987
@<TRIPOS>BOND
    1     1     2    1
    2     1     3    1
    3     1     4    1
    4     1     5    1
    5     5     6    1
    6     5     7    1
    7     5     8    1
    8     8     9    1
    9     8    10    1
   10     8    11    1
   11    11    12    1
   12    11    13    1
   13    11    14    1
   14    14    15    1
   15    14    16    1
   16    14    17    1
   17    17    18    1
   18    17    19    1
   19    17    20    1
   20    20    21    1
   21    20    22    1
   22    20    23    1
@<TRIPOS>SUBSTRUCTURE
       1 MOL1            1 RESIDUE      1      MOL     
@<SCITEGIC>MOL_PROPERTY
VConf Rank
SciTegic.value.IntegerValue
923

@<SCITEGIC>MOL_PROPERTY
Conf_Id
SciTegic.value.IntegerValue
72

@<SCITEGIC>MOL_PROPERTY
Delta U+W
SciTegic.value.DoubleValue
1.051

@<SCITEGIC>MOL_PROPERTY
U+W
SciTegic.value.DoubleValue
-7.331

@<SCITEGIC>MOL_PROPERTY
Grad RMS
SciTegic.value.DoubleValue
0.000000

@<SCITEGIC>MOL_PROPERTY
U
SciTegic.value.DoubleValue
48.590

@<SCITEGIC>MOL_PROPERTY
W
SciTegic.value.DoubleValue
-55.922

@<SCITEGIC>MOL_PROPERTY
W(PB)
SciTegic.value.DoubleValue
-58.012

@<SCITEGIC>MOL_PROPERTY
W(SA)
SciTegic.value.DoubleValue
2.090

@<SCITEGIC>MOL_PROPERTY
Valence
SciTegic.value.DoubleValue
2.601

@<SCITEGIC>MOL_PROPERTY
Coulomb
SciTegic.value.DoubleValue
45.520

@<SCITEGIC>MOL_PROPERTY
VdW
SciTegic.value.DoubleValue
0.469

@<SCITEGIC>MOL_PROPERTY
VdW6
SciTegic.value.DoubleValue
-6.867

@<SCITEGIC>MOL_PROPERTY
VdW12
SciTegic.value.DoubleValue
7.336

@<SCITEGIC>MOL_PROPERTY
Bond
SciTegic.value.DoubleValue
0.205

@<SCITEGIC>MOL_PROPERTY
Angle
SciTegic.value.DoubleValue
0.962

@<SCITEGIC>MOL_PROPERTY
Pdih
SciTegic.value.DoubleValue
1.434

@<SCITEGIC>MOL_PROPERTY
Idih
SciTegic.value.DoubleValue
0.000

@<SCITEGIC>MOL_PROPERTY
Tether
SciTegic.value.DoubleValue
0.000

@<TRIPOS>MOLECULE
guest-2_confgen4.mol2 : confsearch ligand conformer 924
          23          22           1
SMALL
USER_CHARGES
 
@<TRIPOS>ATOM
       1    N1      21.470869   16.790615   24.072897 N.4        1 MOL1        -0.5940
       2    H1      21.544532   15.782505   23.898989 H          1 MOL1         0.3649
       3    H2      21.576421   16.926750   25.083397 H          1 MOL1         0.3649
       4    H3      22.280028   17.230654   23.623131 H          1 MOL1         0.3649
       5    C1      20.161895   17.355957   23.560437 C.3        1 MOL1         0.0207
       6    H4      19.346243   16.824651   24.058208 H          1 MOL1         0.0950
       7    H5      20.103580   17.149629   22.488541 H          1 MOL1         0.0950
       8    C2      20.020131   18.869645   23.806342 C.3        1 MOL1        -0.1415
       9    H6      20.117541   19.069595   24.881638 H          1 MOL1         0.0976
      10    H7      20.845657   19.402963   23.317967 H          1 MOL1         0.0976
      11    C3      18.662667   19.430464   23.314576 C.3        1 MOL1        -0.1375
      12    H8      18.615725   20.504560   23.538325 H          1 MOL1         0.0976
      13    H9      17.855472   18.970654   23.901366 H          1 MOL1         0.0976
      14    C4      18.370718   19.201231   21.806936 C.3        1 MOL1        -0.1375
      15    H10     18.253902   18.125731   21.617314 H          1 MOL1         0.0976
      16    H11     17.397232   19.650214   21.566292 H          1 MOL1         0.0976
      17    C5      19.436497   19.768692   20.835173 C.3        1 MOL1        -0.1350
      18    H12     19.130485   19.536436   19.805559 H          1 MOL1         0.0976
      19    H13     20.397381   19.258487   20.985208 H          1 MOL1         0.0976
      20    C6      19.631205   21.296492   20.963357 C.3        1 MOL1        -0.2365
      21    H14     18.680070   21.827840   20.829375 H          1 MOL1         0.0987
      22    H15     20.329937   21.660687   20.199171 H          1 MOL1         0.0987
      23    H16     20.041975   21.568890   21.943472 H          1 MOL1         0.0987
@<TRIPOS>BOND
    1     1     2    1
    2     1     3    1
    3     1     4    1
    4     1     5    1
    5     5     6    1
    6     5     7    1
    7     5     8    1
    8     8     9    1
    9     8    10    1
   10     8    11    1
   11    11    12    1
   12    11    13    1
   13    11    14    1
   14    14    15    1
   15    14    16    1
   16    14    17    1
   17    17    18    1
   18    17    19    1
   19    17    20    1
   20    20    21    1
   21    20    22    1
   22    20    23    1
@<TRIPOS>SUBSTRUCTURE
       1 MOL1            1 RESIDUE      1      MOL     
@<SCITEGIC>MOL_PROPERTY
VConf Rank
SciTegic.value.IntegerValue
924

@<SCITEGIC>MOL_PROPERTY
Conf_Id
SciTegic.value.IntegerValue
26

@<SCITEGIC>MOL_PROPERTY
Delta U+W
SciTegic.value.DoubleValue
1.076

@<SCITEGIC>MOL_PROPERTY
U+W
SciTegic.value.DoubleValue
-7.306

@<SCITEGIC>MOL_PROPERTY
Grad RMS
SciTegic.value.DoubleValue
0.000000

@<SCITEGIC>MOL_PROPERTY
U
SciTegic.value.DoubleValue
48.641

@<SCITEGIC>MOL_PROPERTY
W
SciTegic.value.DoubleValue
-55.947

@<SCITEGIC>MOL_PROPERTY
W(PB)
SciTegic.value.DoubleValue
-58.031

@<SCITEGIC>MOL_PROPERTY
W(SA)
SciTegic.value.DoubleValue
2.084

@<SCITEGIC>MOL_PROPERTY
Valence
SciTegic.value.DoubleValue
2.922

@<SCITEGIC>MOL_PROPERTY
Coulomb
SciTegic.value.DoubleValue
45.269

@<SCITEGIC>MOL_PROPERTY
VdW
SciTegic.value.DoubleValue
0.449

@<SCITEGIC>MOL_PROPERTY
VdW6
SciTegic.value.DoubleValue
-7.045

@<SCITEGIC>MOL_PROPERTY
VdW12
SciTegic.value.DoubleValue
7.494

@<SCITEGIC>MOL_PROPERTY
Bond
SciTegic.value.DoubleValue
0.220

@<SCITEGIC>MOL_PROPERTY
Angle
SciTegic.value.DoubleValue
1.205

@<SCITEGIC>MOL_PROPERTY
Pdih
SciTegic.value.DoubleValue
1.497

@<SCITEGIC>MOL_PROPERTY
Idih
SciTegic.value.DoubleValue
0.000

@<SCITEGIC>MOL_PROPERTY
Tether
SciTegic.value.DoubleValue
0.000

@<TRIPOS>MOLECULE
guest-2_confgen4.mol2 : confsearch ligand conformer 925
          23          22           1
SMALL
USER_CHARGES
 
@<TRIPOS>ATOM
       1    N1      20.928405   19.132846   19.690181 N.4        1 MOL1        -0.5940
       2    H1      21.142078   20.076555   19.351743 H          1 MOL1         0.3649
       3    H2      20.692488   18.567780   18.867380 H          1 MOL1         0.3649
       4    H3      21.795759   18.747775   20.077584 H          1 MOL1         0.3649
       5    C1      19.807201   19.138595   20.709250 C.3        1 MOL1         0.0207
       6    H4      19.613653   18.103219   21.001601 H          1 MOL1         0.0950
       7    H5      18.910575   19.532468   20.223169 H          1 MOL1         0.0950
       8    C2      20.130637   19.979118   21.958541 C.3        1 MOL1        -0.1415
       9    H6      21.037990   19.592679   22.440007 H          1 MOL1         0.0976
      10    H7      20.359795   21.007730   21.650039 H          1 MOL1         0.0976
      11    C3      18.963404   20.010743   22.976200 C.3        1 MOL1        -0.1375
      12    H8      18.102097   20.511214   22.512528 H          1 MOL1         0.0976
      13    H9      19.247686   20.641387   23.829091 H          1 MOL1         0.0976
      14    C4      18.508746   18.617743   23.489614 C.3        1 MOL1        -0.1375
      15    H10     17.693418   18.759622   24.212303 H          1 MOL1         0.0976
      16    H11     18.070356   18.048072   22.659198 H          1 MOL1         0.0976
      17    C5      19.620130   17.763988   24.151543 C.3        1 MOL1        -0.1350
      18    H12     20.399004   17.518857   23.417115 H          1 MOL1         0.0976
      19    H13     19.185860   16.803105   24.461070 H          1 MOL1         0.0976
      20    C6      20.260131   18.440676   25.384836 C.3        1 MOL1        -0.2365
      21    H14     20.802496   19.352931   25.107006 H          1 MOL1         0.0987
      22    H15     20.977194   17.763366   25.866409 H          1 MOL1         0.0987
      23    H16     19.497871   18.706794   26.128531 H          1 MOL1         0.0987
@<TRIPOS>BOND
    1     1     2    1
    2     1     3    1
    3     1     4    1
    4     1     5    1
    5     5     6    1
    6     5     7    1
    7     5     8    1
    8     8     9    1
    9     8    10    1
   10     8    11    1
   11    11    12    1
   12    11    13    1
   13    11    14    1
   14    14    15    1
   15    14    16    1
   16    14    17    1
   17    17    18    1
   18    17    19    1
   19    17    20    1
   20    20    21    1
   21    20    22    1
   22    20    23    1
@<TRIPOS>SUBSTRUCTURE
       1 MOL1            1 RESIDUE      1      MOL     
@<SCITEGIC>MOL_PROPERTY
VConf Rank
SciTegic.value.IntegerValue
925

@<SCITEGIC>MOL_PROPERTY
Conf_Id
SciTegic.value.IntegerValue
90

@<SCITEGIC>MOL_PROPERTY
Delta U+W
SciTegic.value.DoubleValue
1.131

@<SCITEGIC>MOL_PROPERTY
U+W
SciTegic.value.DoubleValue
-7.251

@<SCITEGIC>MOL_PROPERTY
Grad RMS
SciTegic.value.DoubleValue
0.000000

@<SCITEGIC>MOL_PROPERTY
U
SciTegic.value.DoubleValue
48.641

@<SCITEGIC>MOL_PROPERTY
W
SciTegic.value.DoubleValue
-55.892

@<SCITEGIC>MOL_PROPERTY
W(PB)
SciTegic.value.DoubleValue
-57.962

@<SCITEGIC>MOL_PROPERTY
W(SA)
SciTegic.value.DoubleValue
2.070

@<SCITEGIC>MOL_PROPERTY
Valence
SciTegic.value.DoubleValue
2.922

@<SCITEGIC>MOL_PROPERTY
Coulomb
SciTegic.value.DoubleValue
45.269

@<SCITEGIC>MOL_PROPERTY
VdW
SciTegic.value.DoubleValue
0.450

@<SCITEGIC>MOL_PROPERTY
VdW6
SciTegic.value.DoubleValue
-7.045

@<SCITEGIC>MOL_PROPERTY
VdW12
SciTegic.value.DoubleValue
7.495

@<SCITEGIC>MOL_PROPERTY
Bond
SciTegic.value.DoubleValue
0.220

@<SCITEGIC>MOL_PROPERTY
Angle
SciTegic.value.DoubleValue
1.205

@<SCITEGIC>MOL_PROPERTY
Pdih
SciTegic.value.DoubleValue
1.497

@<SCITEGIC>MOL_PROPERTY
Idih
SciTegic.value.DoubleValue
0.000

@<SCITEGIC>MOL_PROPERTY
Tether
SciTegic.value.DoubleValue
0.000

@<TRIPOS>MOLECULE
guest-2_confgen4.mol2 : confsearch ligand conformer 926
          23          22           1
SMALL
USER_CHARGES
 
@<TRIPOS>ATOM
       1    N1      17.818387   20.677861   22.397697 N.4        1 MOL1        -0.5940
       2    H1      16.919800   20.833322   22.866978 H          1 MOL1         0.3649
       3    H2      17.819129   19.710188   22.061200 H          1 MOL1         0.3649
       4    H3      17.834347   21.286301   21.573004 H          1 MOL1         0.3649
       5    C1      18.990211   20.949598   23.320401 C.3        1 MOL1         0.0207
       6    H4      18.896594   20.293274   24.189419 H          1 MOL1         0.0950
       7    H5      18.908797   21.983600   23.666421 H          1 MOL1         0.0950
       8    C2      20.365302   20.739765   22.654080 C.3        1 MOL1        -0.1415
       9    H6      20.467011   21.436918   21.811807 H          1 MOL1         0.0976
      10    H7      21.149854   21.011963   23.372571 H          1 MOL1         0.0976
      11    C3      20.609009   19.293453   22.154711 C.3        1 MOL1        -0.1375
      12    H8      21.601230   19.247907   21.685101 H          1 MOL1         0.0976
      13    H9      19.885798   19.051979   21.365559 H          1 MOL1         0.0976
      14    C4      20.534807   18.239579   23.288430 C.3        1 MOL1        -0.1375
      15    H10     21.202930   18.544813   24.105567 H          1 MOL1         0.0976
      16    H11     19.522004   18.208891   23.711774 H          1 MOL1         0.0976
      17    C5      20.936373   16.816710   22.830632 C.3        1 MOL1        -0.1350
      18    H12     20.960815   16.157174   23.709410 H          1 MOL1         0.0976
      19    H13     21.958942   16.829941   22.428193 H          1 MOL1         0.0976
      20    C6      19.972718   16.214755   21.782703 C.3        1 MOL1        -0.2365
      21    H14     18.938641   16.214536   22.150971 H          1 MOL1         0.0987
      22    H15     20.249048   15.176211   21.559088 H          1 MOL1         0.0987
      23    H16     20.002501   16.773664   20.839229 H          1 MOL1         0.0987
@<TRIPOS>BOND
    1     1     2    1
    2     1     3    1
    3     1     4    1
    4     1     5    1
    5     5     6    1
    6     5     7    1
    7     5     8    1
    8     8     9    1
    9     8    10    1
   10     8    11    1
   11    11    12    1
   12    11    13    1
   13    11    14    1
   14    14    15    1
   15    14    16    1
   16    14    17    1
   17    17    18    1
   18    17    19    1
   19    17    20    1
   20    20    21    1
   21    20    22    1
   22    20    23    1
@<TRIPOS>SUBSTRUCTURE
       1 MOL1            1 RESIDUE      1      MOL     
@<SCITEGIC>MOL_PROPERTY
VConf Rank
SciTegic.value.IntegerValue
926

@<SCITEGIC>MOL_PROPERTY
Conf_Id
SciTegic.value.IntegerValue
85

@<SCITEGIC>MOL_PROPERTY
Delta U+W
SciTegic.value.DoubleValue
1.193

@<SCITEGIC>MOL_PROPERTY
U+W
SciTegic.value.DoubleValue
-7.189

@<SCITEGIC>MOL_PROPERTY
Grad RMS
SciTegic.value.DoubleValue
0.000000

@<SCITEGIC>MOL_PROPERTY
U
SciTegic.value.DoubleValue
48.775

@<SCITEGIC>MOL_PROPERTY
W
SciTegic.value.DoubleValue
-55.965

@<SCITEGIC>MOL_PROPERTY
W(PB)
SciTegic.value.DoubleValue
-58.038

@<SCITEGIC>MOL_PROPERTY
W(SA)
SciTegic.value.DoubleValue
2.073

@<SCITEGIC>MOL_PROPERTY
Valence
SciTegic.value.DoubleValue
2.602

@<SCITEGIC>MOL_PROPERTY
Coulomb
SciTegic.value.DoubleValue
45.581

@<SCITEGIC>MOL_PROPERTY
VdW
SciTegic.value.DoubleValue
0.592

@<SCITEGIC>MOL_PROPERTY
VdW6
SciTegic.value.DoubleValue
-6.616

@<SCITEGIC>MOL_PROPERTY
VdW12
SciTegic.value.DoubleValue
7.208

@<SCITEGIC>MOL_PROPERTY
Bond
SciTegic.value.DoubleValue
0.196

@<SCITEGIC>MOL_PROPERTY
Angle
SciTegic.value.DoubleValue
0.832

@<SCITEGIC>MOL_PROPERTY
Pdih
SciTegic.value.DoubleValue
1.574

@<SCITEGIC>MOL_PROPERTY
Idih
SciTegic.value.DoubleValue
0.000

@<SCITEGIC>MOL_PROPERTY
Tether
SciTegic.value.DoubleValue
0.000

@<TRIPOS>MOLECULE
guest-2_confgen4.mol2 : confsearch ligand conformer 927
          23          22           1
SMALL
USER_CHARGES
 
@<TRIPOS>ATOM
       1    N1      21.646972   19.413398   21.948582 N.4        1 MOL1        -0.5940
       2    H1      20.699919   19.701533   21.682615 H          1 MOL1         0.3649
       3    H2      22.166220   19.227743   21.083587 H          1 MOL1         0.3649
       4    H3      22.095991   20.217044   22.399747 H          1 MOL1         0.3649
       5    C1      21.619674   18.201619   22.859906 C.3        1 MOL1         0.0207
       6    H4      22.658538   17.958334   23.098830 H          1 MOL1         0.0950
       7    H5      21.191974   17.359184   22.309903 H          1 MOL1         0.0950
       8    C2      20.839571   18.421131   24.172145 C.3        1 MOL1        -0.1415
       9    H6      21.200338   17.684279   24.902033 H          1 MOL1         0.0976
      10    H7      21.089561   19.404373   24.592397 H          1 MOL1         0.0976
      11    C3      19.299167   18.263055   24.061340 C.3        1 MOL1        -0.1375
      12    H8      18.882767   18.389397   25.070376 H          1 MOL1         0.0976
      13    H9      19.047920   17.234579   23.767093 H          1 MOL1         0.0976
      14    C4      18.594615   19.274725   23.121451 C.3        1 MOL1        -0.1375
      15    H10     17.619805   19.535058   23.557009 H          1 MOL1         0.0976
      16    H11     19.161126   20.214571   23.082981 H          1 MOL1         0.0976
      17    C5      18.345122   18.714278   21.699919 C.3        1 MOL1        -0.1350
      18    H12     17.638535   17.874530   21.760691 H          1 MOL1         0.0976
      19    H13     19.266074   18.303113   21.269725 H          1 MOL1         0.0976
      20    C6      17.772257   19.791125   20.754375 C.3        1 MOL1        -0.2365
      21    H14     16.819932   20.182931   21.135077 H          1 MOL1         0.0987
      22    H15     17.587938   19.372161   19.756540 H          1 MOL1         0.0987
      23    H16     18.466787   20.633677   20.642569 H          1 MOL1         0.0987
@<TRIPOS>BOND
    1     1     2    1
    2     1     3    1
    3     1     4    1
    4     1     5    1
    5     5     6    1
    6     5     7    1
    7     5     8    1
    8     8     9    1
    9     8    10    1
   10     8    11    1
   11    11    12    1
   12    11    13    1
   13    11    14    1
   14    14    15    1
   15    14    16    1
   16    14    17    1
   17    17    18    1
   18    17    19    1
   19    17    20    1
   20    20    21    1
   21    20    22    1
   22    20    23    1
@<TRIPOS>SUBSTRUCTURE
       1 MOL1            1 RESIDUE      1      MOL     
@<SCITEGIC>MOL_PROPERTY
VConf Rank
SciTegic.value.IntegerValue
927

@<SCITEGIC>MOL_PROPERTY
Conf_Id
SciTegic.value.IntegerValue
82

@<SCITEGIC>MOL_PROPERTY
Delta U+W
SciTegic.value.DoubleValue
5.994

@<SCITEGIC>MOL_PROPERTY
U+W
SciTegic.value.DoubleValue
-2.388

@<SCITEGIC>MOL_PROPERTY
Grad RMS
SciTegic.value.DoubleValue
0.000000

@<SCITEGIC>MOL_PROPERTY
U
SciTegic.value.DoubleValue
52.836

@<SCITEGIC>MOL_PROPERTY
W
SciTegic.value.DoubleValue
-55.224

@<SCITEGIC>MOL_PROPERTY
W(PB)
SciTegic.value.DoubleValue
-57.261

@<SCITEGIC>MOL_PROPERTY
W(SA)
SciTegic.value.DoubleValue
2.037

@<SCITEGIC>MOL_PROPERTY
Valence
SciTegic.value.DoubleValue
5.785

@<SCITEGIC>MOL_PROPERTY
Coulomb
SciTegic.value.DoubleValue
46.744

@<SCITEGIC>MOL_PROPERTY
VdW
SciTegic.value.DoubleValue
0.307

@<SCITEGIC>MOL_PROPERTY
VdW6
SciTegic.value.DoubleValue
-7.672

@<SCITEGIC>MOL_PROPERTY
VdW12
SciTegic.value.DoubleValue
7.979

@<SCITEGIC>MOL_PROPERTY
Bond
SciTegic.value.DoubleValue
0.217

@<SCITEGIC>MOL_PROPERTY
Angle
SciTegic.value.DoubleValue
1.470

@<SCITEGIC>MOL_PROPERTY
Pdih
SciTegic.value.DoubleValue
4.098

@<SCITEGIC>MOL_PROPERTY
Idih
SciTegic.value.DoubleValue
0.000

@<SCITEGIC>MOL_PROPERTY
Tether
SciTegic.value.DoubleValue
0.000

@<TRIPOS>MOLECULE
guest-2_confgen4.mol2 : confsearch ligand conformer 928
          23          22           1
SMALL
USER_CHARGES
 
@<TRIPOS>ATOM
       1    N1      18.251853   20.216213   22.983702 N.4        1 MOL1        -0.5940
       2    H1      18.403238   20.979351   23.651324 H          1 MOL1         0.3649
       3    H2      17.397928   20.440986   22.461600 H          1 MOL1         0.3649
       4    H3      19.031746   20.232205   22.318732 H          1 MOL1         0.3649
       5    C1      18.148470   18.873462   23.680829 C.3        1 MOL1         0.0207
       6    H4      17.923203   18.107448   22.934099 H          1 MOL1         0.0950
       7    H5      17.301300   18.935519   24.369277 H          1 MOL1         0.0950
       8    C2      19.412105   18.478598   24.472048 C.3        1 MOL1        -0.1415
       9    H6      19.786648   19.346804   25.030446 H          1 MOL1         0.0976
      10    H7      19.114486   17.742073   25.230199 H          1 MOL1         0.0976
      11    C3      20.554339   17.853236   23.626864 C.3        1 MOL1        -0.1375
      12    H8      20.213905   16.911258   23.174920 H          1 MOL1         0.0976
      13    H9      21.359313   17.571866   24.319939 H          1 MOL1         0.0976
      14    C4      21.158627   18.779215   22.540282 C.3        1 MOL1        -0.1375
      15    H10     21.069489   19.830254   22.845402 H          1 MOL1         0.0976
      16    H11     22.237615   18.581385   22.474044 H          1 MOL1         0.0976
      17    C5      20.547011   18.551308   21.136328 C.3        1 MOL1        -0.1350
      18    H12     19.451845   18.592775   21.170630 H          1 MOL1         0.0976
      19    H13     20.800651   17.539144   20.790894 H          1 MOL1         0.0976
      20    C6      21.068570   19.581681   20.112544 C.3        1 MOL1        -0.2365
      21    H14     20.804837   20.605449   20.407690 H          1 MOL1         0.0987
      22    H15     20.636295   19.395373   19.120774 H          1 MOL1         0.0987
      23    H16     22.160967   19.524987   20.018616 H          1 MOL1         0.0987
@<TRIPOS>BOND
    1     1     2    1
    2     1     3    1
    3     1     4    1
    4     1     5    1
    5     5     6    1
    6     5     7    1
    7     5     8    1
    8     8     9    1
    9     8    10    1
   10     8    11    1
   11    11    12    1
   12    11    13    1
   13    11    14    1
   14    14    15    1
   15    14    16    1
   16    14    17    1
   17    17    18    1
   18    17    19    1
   19    17    20    1
   20    20    21    1
   21    20    22    1
   22    20    23    1
@<TRIPOS>SUBSTRUCTURE
       1 MOL1            1 RESIDUE      1      MOL     
@<SCITEGIC>MOL_PROPERTY
VConf Rank
SciTegic.value.IntegerValue
928

@<SCITEGIC>MOL_PROPERTY
Conf_Id
SciTegic.value.IntegerValue
5

@<SCITEGIC>MOL_PROPERTY
Delta U+W
SciTegic.value.DoubleValue
6.087

@<SCITEGIC>MOL_PROPERTY
U+W
SciTegic.value.DoubleValue
-2.295

@<SCITEGIC>MOL_PROPERTY
Grad RMS
SciTegic.value.DoubleValue
0.000000

@<SCITEGIC>MOL_PROPERTY
U
SciTegic.value.DoubleValue
52.836

@<SCITEGIC>MOL_PROPERTY
W
SciTegic.value.DoubleValue
-55.131

@<SCITEGIC>MOL_PROPERTY
W(PB)
SciTegic.value.DoubleValue
-57.202

@<SCITEGIC>MOL_PROPERTY
W(SA)
SciTegic.value.DoubleValue
2.071

@<SCITEGIC>MOL_PROPERTY
Valence
SciTegic.value.DoubleValue
5.785

@<SCITEGIC>MOL_PROPERTY
Coulomb
SciTegic.value.DoubleValue
46.744

@<SCITEGIC>MOL_PROPERTY
VdW
SciTegic.value.DoubleValue
0.307

@<SCITEGIC>MOL_PROPERTY
VdW6
SciTegic.value.DoubleValue
-7.672

@<SCITEGIC>MOL_PROPERTY
VdW12
SciTegic.value.DoubleValue
7.980

@<SCITEGIC>MOL_PROPERTY
Bond
SciTegic.value.DoubleValue
0.217

@<SCITEGIC>MOL_PROPERTY
Angle
SciTegic.value.DoubleValue
1.470

@<SCITEGIC>MOL_PROPERTY
Pdih
SciTegic.value.DoubleValue
4.098

@<SCITEGIC>MOL_PROPERTY
Idih
SciTegic.value.DoubleValue
0.000

@<SCITEGIC>MOL_PROPERTY
Tether
SciTegic.value.DoubleValue
0.000

@<TRIPOS>MOLECULE
guest-2_confgen4.mol2 : confsearch ligand conformer 929
          23          22           1
SMALL
USER_CHARGES
 
@<TRIPOS>ATOM
       1    N1      23.154700   17.628972   23.786492 N.4        1 MOL1        -0.5940
       2    H1      23.732903   18.357786   23.355918 H          1 MOL1         0.3649
       3    H2      23.700581   16.760997   23.759512 H          1 MOL1         0.3649
       4    H3      23.041000   17.878550   24.774250 H          1 MOL1         0.3649
       5    C1      21.820648   17.476869   23.084305 C.3        1 MOL1         0.0207
       6    H4      21.271878   16.667771   23.573905 H          1 MOL1         0.0950
       7    H5      22.015593   17.182836   22.049396 H          1 MOL1         0.0950
       8    C2      20.976269   18.763370   23.107035 C.3        1 MOL1        -0.1415
       9    H6      20.796772   19.063793   24.148009 H          1 MOL1         0.0976
      10    H7      21.537919   19.577067   22.628971 H          1 MOL1         0.0976
      11    C3      19.626495   18.566757   22.382028 C.3        1 MOL1        -0.1375
      12    H8      19.069976   17.748399   22.859918 H          1 MOL1         0.0976
      13    H9      19.810345   18.261178   21.342498 H          1 MOL1         0.0976
      14    C4      18.769912   19.853220   22.398822 C.3        1 MOL1        -0.1375
      15    H10     18.585872   20.158816   23.438174 H          1 MOL1         0.0976
      16    H11     19.326223   20.671584   21.921002 H          1 MOL1         0.0976
      17    C5      17.420104   19.656265   21.673572 C.3        1 MOL1        -0.1350
      18    H12     16.858622   18.840052   22.149500 H          1 MOL1         0.0976
      19    H13     17.598909   19.352789   20.632465 H          1 MOL1         0.0976
      20    C6      16.567580   20.942871   21.692410 C.3        1 MOL1        -0.2365
      21    H14     15.613680   20.783483   21.173067 H          1 MOL1         0.0987
      22    H15     17.089199   21.769463   21.192522 H          1 MOL1         0.0987
      23    H16     16.343151   21.252737   22.721411 H          1 MOL1         0.0987
@<TRIPOS>BOND
    1     1     2    1
    2     1     3    1
    3     1     4    1
    4     1     5    1
    5     5     6    1
    6     5     7    1
    7     5     8    1
    8     8     9    1
    9     8    10    1
   10     8    11    1
   11    11    12    1
   12    11    13    1
   13    11    14    1
   14    14    15    1
   15    14    16    1
   16    14    17    1
   17    17    18    1
   18    17    19    1
   19    17    20    1
   20    20    21    1
   21    20    22    1
   22    20    23    1
@<TRIPOS>SUBSTRUCTURE
       1 MOL1            1 RESIDUE      1      MOL     
@<SCITEGIC>MOL_PROPERTY
VConf Rank
SciTegic.value.IntegerValue
929

@<SCITEGIC>MOL_PROPERTY
Conf_Id
SciTegic.value.IntegerValue
40

@<SCITEGIC>MOL_PROPERTY
Delta U+W
SciTegic.value.DoubleValue
0.000

@<SCITEGIC>MOL_PROPERTY
U+W
SciTegic.value.DoubleValue
-8.382

@<SCITEGIC>MOL_PROPERTY
Grad RMS
SciTegic.value.DoubleValue
0.000000

@<SCITEGIC>MOL_PROPERTY
U
SciTegic.value.DoubleValue
46.604

@<SCITEGIC>MOL_PROPERTY
W
SciTegic.value.DoubleValue
-54.986

@<SCITEGIC>MOL_PROPERTY
W(PB)
SciTegic.value.DoubleValue
-57.162

@<SCITEGIC>MOL_PROPERTY
W(SA)
SciTegic.value.DoubleValue
2.176

@<SCITEGIC>MOL_PROPERTY
Valence
SciTegic.value.DoubleValue
1.727

@<SCITEGIC>MOL_PROPERTY
Coulomb
SciTegic.value.DoubleValue
44.434

@<SCITEGIC>MOL_PROPERTY
VdW
SciTegic.value.DoubleValue
0.443

@<SCITEGIC>MOL_PROPERTY
VdW6
SciTegic.value.DoubleValue
-4.623

@<SCITEGIC>MOL_PROPERTY
VdW12
SciTegic.value.DoubleValue
5.066

@<SCITEGIC>MOL_PROPERTY
Bond
SciTegic.value.DoubleValue
0.112

@<SCITEGIC>MOL_PROPERTY
Angle
SciTegic.value.DoubleValue
0.386

@<SCITEGIC>MOL_PROPERTY
Pdih
SciTegic.value.DoubleValue
1.228

@<SCITEGIC>MOL_PROPERTY
Idih
SciTegic.value.DoubleValue
0.000

@<SCITEGIC>MOL_PROPERTY
Tether
SciTegic.value.DoubleValue
0.000

@<TRIPOS>MOLECULE
guest-2_confgen4.mol2 : confsearch ligand conformer 930
          23          22           1
SMALL
USER_CHARGES
 
@<TRIPOS>ATOM
       1    N1      23.033655   20.276354   21.895326 N.4        1 MOL1        -0.5940
       2    H1      23.421766   20.748921   22.718059 H          1 MOL1         0.3649
       3    H2      22.745403   21.006640   21.236216 H          1 MOL1         0.3649
       4    H3      23.805319   19.764461   21.454271 H          1 MOL1         0.3649
       5    C1      21.884775   19.358316   22.260105 C.3        1 MOL1         0.0207
       6    H4      22.267922   18.591498   22.938780 H          1 MOL1         0.0950
       7    H5      21.544026   18.868499   21.344415 H          1 MOL1         0.0950
       8    C2      20.709011   20.098450   22.925622 C.3        1 MOL1        -0.1415
       9    H6      21.076388   20.624233   23.816988 H          1 MOL1         0.0976
      10    H7      20.322971   20.868000   22.243897 H          1 MOL1         0.0976
      11    C3      19.560531   19.149168   23.342131 C.3        1 MOL1        -0.1375
      12    H8      18.820932   19.732094   23.906182 H          1 MOL1         0.0976
      13    H9      19.947708   18.386269   24.031661 H          1 MOL1         0.0976
      14    C4      18.870922   18.462825   22.135505 C.3        1 MOL1        -0.1375
      15    H10     18.465777   19.226097   21.456907 H          1 MOL1         0.0976
      16    H11     19.615974   17.900087   21.557811 H          1 MOL1         0.0976
      17    C5      17.742259   17.485691   22.545208 C.3        1 MOL1        -0.1350
      18    H12     18.144176   16.713489   23.216002 H          1 MOL1         0.0976
      19    H13     17.389940   16.958934   21.647282 H          1 MOL1         0.0976
      20    C6      16.536741   18.182228   23.216737 C.3        1 MOL1        -0.2365
      21    H14     16.810166   18.618410   24.185365 H          1 MOL1         0.0987
      22    H15     15.728679   17.461470   23.396992 H          1 MOL1         0.0987
      23    H16     16.136954   18.981540   22.579335 H          1 MOL1         0.0987
@<TRIPOS>BOND
    1     1     2    1
    2     1     3    1
    3     1     4    1
    4     1     5    1
    5     5     6    1
    6     5     7    1
    7     5     8    1
    8     8     9    1
    9     8    10    1
   10     8    11    1
   11    11    12    1
   12    11    13    1
   13    11    14    1
   14    14    15    1
   15    14    16    1
   16    14    17    1
   17    17    18    1
   18    17    19    1
   19    17    20    1
   20    20    21    1
   21    20    22    1
   22    20    23    1
@<TRIPOS>SUBSTRUCTURE
       1 MOL1            1 RESIDUE      1      MOL     
@<SCITEGIC>MOL_PROPERTY
VConf Rank
SciTegic.value.IntegerValue
930

@<SCITEGIC>MOL_PROPERTY
Conf_Id
SciTegic.value.IntegerValue
65

@<SCITEGIC>MOL_PROPERTY
Delta U+W
SciTegic.value.DoubleValue
1.004

@<SCITEGIC>MOL_PROPERTY
U+W
SciTegic.value.DoubleValue
-7.378

@<SCITEGIC>MOL_PROPERTY
Grad RMS
SciTegic.value.DoubleValue
0.000000

@<SCITEGIC>MOL_PROPERTY
U
SciTegic.value.DoubleValue
48.047

@<SCITEGIC>MOL_PROPERTY
W
SciTegic.value.DoubleValue
-55.425

@<SCITEGIC>MOL_PROPERTY
W(PB)
SciTegic.value.DoubleValue
-57.542

@<SCITEGIC>MOL_PROPERTY
W(SA)
SciTegic.value.DoubleValue
2.116

@<SCITEGIC>MOL_PROPERTY
Valence
SciTegic.value.DoubleValue
2.583

@<SCITEGIC>MOL_PROPERTY
Coulomb
SciTegic.value.DoubleValue
44.791

@<SCITEGIC>MOL_PROPERTY
VdW
SciTegic.value.DoubleValue
0.673

@<SCITEGIC>MOL_PROPERTY
VdW6
SciTegic.value.DoubleValue
-5.788

@<SCITEGIC>MOL_PROPERTY
VdW12
SciTegic.value.DoubleValue
6.462

@<SCITEGIC>MOL_PROPERTY
Bond
SciTegic.value.DoubleValue
0.177

@<SCITEGIC>MOL_PROPERTY
Angle
SciTegic.value.DoubleValue
0.787

@<SCITEGIC>MOL_PROPERTY
Pdih
SciTegic.value.DoubleValue
1.619

@<SCITEGIC>MOL_PROPERTY
Idih
SciTegic.value.DoubleValue
0.000

@<SCITEGIC>MOL_PROPERTY
Tether
SciTegic.value.DoubleValue
0.000

@<TRIPOS>MOLECULE
guest-2_confgen4.mol2 : confsearch ligand conformer 931
          23          22           1
SMALL
USER_CHARGES
 
@<TRIPOS>ATOM
       1    N1      22.198326   21.525138   23.383229 N.4        1 MOL1        -0.5940
       2    H1      22.361127   22.126795   22.569383 H          1 MOL1         0.3649
       3    H2      23.108714   21.379241   23.832602 H          1 MOL1         0.3649
       4    H3      21.622825   22.058992   24.042495 H          1 MOL1         0.3649
       5    C1      21.545246   20.214053   22.995521 C.3        1 MOL1         0.0207
       6    H4      21.431717   19.615488   23.902908 H          1 MOL1         0.0950
       7    H5      22.222375   19.687139   22.317828 H          1 MOL1         0.0950
       8    C2      20.174710   20.400131   22.317184 C.3        1 MOL1        -0.1415
       9    H6      19.493784   20.928293   22.997897 H          1 MOL1         0.0976
      10    H7      20.297034   21.042202   21.434729 H          1 MOL1         0.0976
      11    C3      19.535650   19.061478   21.877610 C.3        1 MOL1        -0.1375
      12    H8      20.214826   18.539996   21.189027 H          1 MOL1         0.0976
      13    H9      18.625749   19.286768   21.306394 H          1 MOL1         0.0976
      14    C4      19.185098   18.134553   23.069456 C.3        1 MOL1        -0.1375
      15    H10     20.091328   17.929694   23.654508 H          1 MOL1         0.0976
      16    H11     18.489596   18.648972   23.746856 H          1 MOL1         0.0976
      17    C5      18.575627   16.778866   22.636816 C.3        1 MOL1        -0.1350
      18    H12     18.467447   16.142104   23.526031 H          1 MOL1         0.0976
      19    H13     19.271875   16.254884   21.967129 H          1 MOL1         0.0976
      20    C6      17.196364   16.912965   21.951951 C.3        1 MOL1        -0.2365
      21    H14     17.271771   17.435205   20.990268 H          1 MOL1         0.0987
      22    H15     16.491047   17.462908   22.588426 H          1 MOL1         0.0987
      23    H16     16.767654   15.921787   21.755180 H          1 MOL1         0.0987
@<TRIPOS>BOND
    1     1     2    1
    2     1     3    1
    3     1     4    1
    4     1     5    1
    5     5     6    1
    6     5     7    1
    7     5     8    1
    8     8     9    1
    9     8    10    1
   10     8    11    1
   11    11    12    1
   12    11    13    1
   13    11    14    1
   14    14    15    1
   15    14    16    1
   16    14    17    1
   17    17    18    1
   18    17    19    1
   19    17    20    1
   20    20    21    1
   21    20    22    1
   22    20    23    1
@<TRIPOS>SUBSTRUCTURE
       1 MOL1            1 RESIDUE      1      MOL     
@<SCITEGIC>MOL_PROPERTY
VConf Rank
SciTegic.value.IntegerValue
931

@<SCITEGIC>MOL_PROPERTY
Conf_Id
SciTegic.value.IntegerValue
92

@<SCITEGIC>MOL_PROPERTY
Delta U+W
SciTegic.value.DoubleValue
0.973

@<SCITEGIC>MOL_PROPERTY
U+W
SciTegic.value.DoubleValue
-7.409

@<SCITEGIC>MOL_PROPERTY
Grad RMS
SciTegic.value.DoubleValue
0.000000

@<SCITEGIC>MOL_PROPERTY
U
SciTegic.value.DoubleValue
48.047

@<SCITEGIC>MOL_PROPERTY
W
SciTegic.value.DoubleValue
-55.456

@<SCITEGIC>MOL_PROPERTY
W(PB)
SciTegic.value.DoubleValue
-57.595

@<SCITEGIC>MOL_PROPERTY
W(SA)
SciTegic.value.DoubleValue
2.138

@<SCITEGIC>MOL_PROPERTY
Valence
SciTegic.value.DoubleValue
2.583

@<SCITEGIC>MOL_PROPERTY
Coulomb
SciTegic.value.DoubleValue
44.791

@<SCITEGIC>MOL_PROPERTY
VdW
SciTegic.value.DoubleValue
0.674

@<SCITEGIC>MOL_PROPERTY
VdW6
SciTegic.value.DoubleValue
-5.789

@<SCITEGIC>MOL_PROPERTY
VdW12
SciTegic.value.DoubleValue
6.462

@<SCITEGIC>MOL_PROPERTY
Bond
SciTegic.value.DoubleValue
0.177

@<SCITEGIC>MOL_PROPERTY
Angle
SciTegic.value.DoubleValue
0.787

@<SCITEGIC>MOL_PROPERTY
Pdih
SciTegic.value.DoubleValue
1.619

@<SCITEGIC>MOL_PROPERTY
Idih
SciTegic.value.DoubleValue
0.000

@<SCITEGIC>MOL_PROPERTY
Tether
SciTegic.value.DoubleValue
0.000

@<TRIPOS>MOLECULE
guest-2_confgen4.mol2 : confsearch ligand conformer 932
          23          22           1
SMALL
USER_CHARGES
 
@<TRIPOS>ATOM
       1    N1      20.162235   21.132731   25.365332 N.4        1 MOL1        -0.5940
       2    H1      19.363812   21.416764   25.943155 H          1 MOL1         0.3649
       3    H2      20.727100   21.972927   25.204546 H          1 MOL1         0.3649
       4    H3      20.727942   20.493179   25.932595 H          1 MOL1         0.3649
       5    C1      19.717525   20.493161   24.065733 C.3        1 MOL1         0.0207
       6    H4      19.098618   21.216478   23.527974 H          1 MOL1         0.0950
       7    H5      19.098442   19.627007   24.313135 H          1 MOL1         0.0950
       8    C2      20.895280   20.055326   23.174638 C.3        1 MOL1        -0.1415
       9    H6      21.533317   20.925475   22.970446 H          1 MOL1         0.0976
      10    H7      21.517333   19.329450   23.715149 H          1 MOL1         0.0976
      11    C3      20.433491   19.445117   21.830232 C.3        1 MOL1        -0.1375
      12    H8      21.319443   19.243593   21.212228 H          1 MOL1         0.0976
      13    H9      19.832693   20.182816   21.280239 H          1 MOL1         0.0976
      14    C4      19.624917   18.136640   22.002155 C.3        1 MOL1        -0.1375
      15    H10     20.215715   17.413180   22.580931 H          1 MOL1         0.0976
      16    H11     18.710192   18.333143   22.577238 H          1 MOL1         0.0976
      17    C5      19.242775   17.515272   20.640303 C.3        1 MOL1        -0.1350
      18    H12     20.151854   17.306406   20.059002 H          1 MOL1         0.0976
      19    H13     18.652002   18.235265   20.056714 H          1 MOL1         0.0976
      20    C6      18.435267   16.211166   20.812934 C.3        1 MOL1        -0.2365
      21    H14     19.013794   15.458712   21.364610 H          1 MOL1         0.0987
      22    H15     18.173758   15.784947   19.835695 H          1 MOL1         0.0987
      23    H16     17.501890   16.394273   21.361113 H          1 MOL1         0.0987
@<TRIPOS>BOND
    1     1     2    1
    2     1     3    1
    3     1     4    1
    4     1     5    1
    5     5     6    1
    6     5     7    1
    7     5     8    1
    8     8     9    1
    9     8    10    1
   10     8    11    1
   11    11    12    1
   12    11    13    1
   13    11    14    1
   14    14    15    1
   15    14    16    1
   16    14    17    1
   17    17    18    1
   18    17    19    1
   19    17    20    1
   20    20    21    1
   21    20    22    1
   22    20    23    1
@<TRIPOS>SUBSTRUCTURE
       1 MOL1            1 RESIDUE      1      MOL     
@<SCITEGIC>MOL_PROPERTY
VConf Rank
SciTegic.value.IntegerValue
932

@<SCITEGIC>MOL_PROPERTY
Conf_Id
SciTegic.value.IntegerValue
42

@<SCITEGIC>MOL_PROPERTY
Delta U+W
SciTegic.value.DoubleValue
0.365

@<SCITEGIC>MOL_PROPERTY
U+W
SciTegic.value.DoubleValue
-8.017

@<SCITEGIC>MOL_PROPERTY
Grad RMS
SciTegic.value.DoubleValue
0.000000

@<SCITEGIC>MOL_PROPERTY
U
SciTegic.value.DoubleValue
47.375

@<SCITEGIC>MOL_PROPERTY
W
SciTegic.value.DoubleValue
-55.392

@<SCITEGIC>MOL_PROPERTY
W(PB)
SciTegic.value.DoubleValue
-57.543

@<SCITEGIC>MOL_PROPERTY
W(SA)
SciTegic.value.DoubleValue
2.152

@<SCITEGIC>MOL_PROPERTY
Valence
SciTegic.value.DoubleValue
2.032

@<SCITEGIC>MOL_PROPERTY
Coulomb
SciTegic.value.DoubleValue
44.843

@<SCITEGIC>MOL_PROPERTY
VdW
SciTegic.value.DoubleValue
0.499

@<SCITEGIC>MOL_PROPERTY
VdW6
SciTegic.value.DoubleValue
-5.218

@<SCITEGIC>MOL_PROPERTY
VdW12
SciTegic.value.DoubleValue
5.717

@<SCITEGIC>MOL_PROPERTY
Bond
SciTegic.value.DoubleValue
0.135

@<SCITEGIC>MOL_PROPERTY
Angle
SciTegic.value.DoubleValue
0.514

@<SCITEGIC>MOL_PROPERTY
Pdih
SciTegic.value.DoubleValue
1.383

@<SCITEGIC>MOL_PROPERTY
Idih
SciTegic.value.DoubleValue
0.000

@<SCITEGIC>MOL_PROPERTY
Tether
SciTegic.value.DoubleValue
0.000

@<TRIPOS>MOLECULE
guest-2_confgen4.mol2 : confsearch ligand conformer 933
          23          22           1
SMALL
USER_CHARGES
 
@<TRIPOS>ATOM
       1    N1      18.021177   21.470397   21.664435 N.4        1 MOL1        -0.5940
       2    H1      17.617455   20.959317   20.872956 H          1 MOL1         0.3649
       3    H2      17.855450   22.467747   21.491877 H          1 MOL1         0.3649
       4    H3      17.479849   21.216993   22.496391 H          1 MOL1         0.3649
       5    C1      19.496826   21.167087   21.837774 C.3        1 MOL1         0.0207
       6    H4      19.869349   21.758651   22.678428 H          1 MOL1         0.0950
       7    H5      20.010857   21.501174   20.932385 H          1 MOL1         0.0950
       8    C2      19.803177   19.675633   22.076408 C.3        1 MOL1        -0.1415
       9    H6      19.403839   19.080817   21.244318 H          1 MOL1         0.0976
      10    H7      20.892936   19.551486   22.064928 H          1 MOL1         0.0976
      11    C3      19.240340   19.156805   23.422082 C.3        1 MOL1        -0.1375
      12    H8      18.165888   19.375527   23.477274 H          1 MOL1         0.0976
      13    H9      19.707408   19.709472   24.249012 H          1 MOL1         0.0976
      14    C4      19.428750   17.634359   23.649495 C.3        1 MOL1        -0.1375
      15    H10     18.953619   17.382677   24.607824 H          1 MOL1         0.0976
      16    H11     18.875243   17.067532   22.888205 H          1 MOL1         0.0976
      17    C5      20.904049   17.160080   23.704188 C.3        1 MOL1        -0.1350
      18    H12     20.984792   16.352258   24.445050 H          1 MOL1         0.0976
      19    H13     21.552629   17.968969   24.068387 H          1 MOL1         0.0976
      20    C6      21.425396   16.619400   22.352107 C.3        1 MOL1        -0.2365
      21    H14     20.828359   15.761172   22.017369 H          1 MOL1         0.0987
      22    H15     22.465819   16.283071   22.448630 H          1 MOL1         0.0987
      23    H16     21.394048   17.379199   21.563536 H          1 MOL1         0.0987
@<TRIPOS>BOND
    1     1     2    1
    2     1     3    1
    3     1     4    1
    4     1     5    1
    5     5     6    1
    6     5     7    1
    7     5     8    1
    8     8     9    1
    9     8    10    1
   10     8    11    1
   11    11    12    1
   12    11    13    1
   13    11    14    1
   14    14    15    1
   15    14    16    1
   16    14    17    1
   17    17    18    1
   18    17    19    1
   19    17    20    1
   20    20    21    1
   21    20    22    1
   22    20    23    1
@<TRIPOS>SUBSTRUCTURE
       1 MOL1            1 RESIDUE      1      MOL     
@<SCITEGIC>MOL_PROPERTY
VConf Rank
SciTegic.value.IntegerValue
933

@<SCITEGIC>MOL_PROPERTY
Conf_Id
SciTegic.value.IntegerValue
3

@<SCITEGIC>MOL_PROPERTY
Delta U+W
SciTegic.value.DoubleValue
3.283

@<SCITEGIC>MOL_PROPERTY
U+W
SciTegic.value.DoubleValue
-5.099

@<SCITEGIC>MOL_PROPERTY
Grad RMS
SciTegic.value.DoubleValue
0.000000

@<SCITEGIC>MOL_PROPERTY
U
SciTegic.value.DoubleValue
50.701

@<SCITEGIC>MOL_PROPERTY
W
SciTegic.value.DoubleValue
-55.800

@<SCITEGIC>MOL_PROPERTY
W(PB)
SciTegic.value.DoubleValue
-57.867

@<SCITEGIC>MOL_PROPERTY
W(SA)
SciTegic.value.DoubleValue
2.067

@<SCITEGIC>MOL_PROPERTY
Valence
SciTegic.value.DoubleValue
4.880

@<SCITEGIC>MOL_PROPERTY
Coulomb
SciTegic.value.DoubleValue
45.095

@<SCITEGIC>MOL_PROPERTY
VdW
SciTegic.value.DoubleValue
0.726

@<SCITEGIC>MOL_PROPERTY
VdW6
SciTegic.value.DoubleValue
-6.620

@<SCITEGIC>MOL_PROPERTY
VdW12
SciTegic.value.DoubleValue
7.346

@<SCITEGIC>MOL_PROPERTY
Bond
SciTegic.value.DoubleValue
0.222

@<SCITEGIC>MOL_PROPERTY
Angle
SciTegic.value.DoubleValue
1.260

@<SCITEGIC>MOL_PROPERTY
Pdih
SciTegic.value.DoubleValue
3.398

@<SCITEGIC>MOL_PROPERTY
Idih
SciTegic.value.DoubleValue
0.000

@<SCITEGIC>MOL_PROPERTY
Tether
SciTegic.value.DoubleValue
0.000

@<TRIPOS>MOLECULE
guest-2_confgen4.mol2 : confsearch ligand conformer 934
          23          22           1
SMALL
USER_CHARGES
 
@<TRIPOS>ATOM
       1    N1      20.919832   16.408602   22.962547 N.4        1 MOL1        -0.5940
       2    H1      20.439152   15.680135   22.425113 H          1 MOL1         0.3649
       3    H2      21.699928   15.955239   23.450140 H          1 MOL1         0.3649
       4    H3      21.326575   17.064265   22.288556 H          1 MOL1         0.3649
       5    C1      19.982345   17.107708   23.927256 C.3        1 MOL1         0.0207
       6    H4      20.561112   17.846517   24.487327 H          1 MOL1         0.0950
       7    H5      19.614528   16.359502   24.634663 H          1 MOL1         0.0950
       8    C2      18.783852   17.793672   23.239983 C.3        1 MOL1        -0.1415
       9    H6      18.183339   17.032391   22.724582 H          1 MOL1         0.0976
      10    H7      18.133331   18.223818   24.013065 H          1 MOL1         0.0976
      11    C3      19.179159   18.901704   22.231199 C.3        1 MOL1        -0.1375
      12    H8      18.259254   19.289651   21.774969 H          1 MOL1         0.0976
      13    H9      19.767618   18.468643   21.411491 H          1 MOL1         0.0976
      14    C4      19.965750   20.067514   22.882803 C.3        1 MOL1        -0.1375
      15    H10     19.364147   20.517551   23.684494 H          1 MOL1         0.0976
      16    H11     20.873907   19.676982   23.360391 H          1 MOL1         0.0976
      17    C5      20.387026   21.165149   21.875741 C.3        1 MOL1        -0.1350
      18    H12     20.998480   20.722555   21.077017 H          1 MOL1         0.0976
      19    H13     21.034158   21.887272   22.393063 H          1 MOL1         0.0976
      20    C6      19.192262   21.925148   21.255834 C.3        1 MOL1        -0.2365
      21    H14     18.546456   22.349339   22.035580 H          1 MOL1         0.0987
      22    H15     18.581971   21.270421   20.621701 H          1 MOL1         0.0987
      23    H16     19.547778   22.752589   20.628231 H          1 MOL1         0.0987
@<TRIPOS>BOND
    1     1     2    1
    2     1     3    1
    3     1     4    1
    4     1     5    1
    5     5     6    1
    6     5     7    1
    7     5     8    1
    8     8     9    1
    9     8    10    1
   10     8    11    1
   11    11    12    1
   12    11    13    1
   13    11    14    1
   14    14    15    1
   15    14    16    1
   16    14    17    1
   17    17    18    1
   18    17    19    1
   19    17    20    1
   20    20    21    1
   21    20    22    1
   22    20    23    1
@<TRIPOS>SUBSTRUCTURE
       1 MOL1            1 RESIDUE      1      MOL     
@<SCITEGIC>MOL_PROPERTY
VConf Rank
SciTegic.value.IntegerValue
934

@<SCITEGIC>MOL_PROPERTY
Conf_Id
SciTegic.value.IntegerValue
83

@<SCITEGIC>MOL_PROPERTY
Delta U+W
SciTegic.value.DoubleValue
1.229

@<SCITEGIC>MOL_PROPERTY
U+W
SciTegic.value.DoubleValue
-7.154

@<SCITEGIC>MOL_PROPERTY
Grad RMS
SciTegic.value.DoubleValue
0.000000

@<SCITEGIC>MOL_PROPERTY
U
SciTegic.value.DoubleValue
48.727

@<SCITEGIC>MOL_PROPERTY
W
SciTegic.value.DoubleValue
-55.880

@<SCITEGIC>MOL_PROPERTY
W(PB)
SciTegic.value.DoubleValue
-57.960

@<SCITEGIC>MOL_PROPERTY
W(SA)
SciTegic.value.DoubleValue
2.080

@<SCITEGIC>MOL_PROPERTY
Valence
SciTegic.value.DoubleValue
2.671

@<SCITEGIC>MOL_PROPERTY
Coulomb
SciTegic.value.DoubleValue
45.371

@<SCITEGIC>MOL_PROPERTY
VdW
SciTegic.value.DoubleValue
0.684

@<SCITEGIC>MOL_PROPERTY
VdW6
SciTegic.value.DoubleValue
-6.511

@<SCITEGIC>MOL_PROPERTY
VdW12
SciTegic.value.DoubleValue
7.195

@<SCITEGIC>MOL_PROPERTY
Bond
SciTegic.value.DoubleValue
0.203

@<SCITEGIC>MOL_PROPERTY
Angle
SciTegic.value.DoubleValue
0.915

@<SCITEGIC>MOL_PROPERTY
Pdih
SciTegic.value.DoubleValue
1.554

@<SCITEGIC>MOL_PROPERTY
Idih
SciTegic.value.DoubleValue
0.000

@<SCITEGIC>MOL_PROPERTY
Tether
SciTegic.value.DoubleValue
0.000

@<TRIPOS>MOLECULE
guest-2_confgen4.mol2 : confsearch ligand conformer 935
          23          22           1
SMALL
USER_CHARGES
 
@<TRIPOS>ATOM
       1    N1      17.629144   20.911486   21.829756 N.4        1 MOL1        -0.5940
       2    H1      17.904364   21.892649   21.939872 H          1 MOL1         0.3649
       3    H2      17.648680   20.484620   22.760887 H          1 MOL1         0.3649
       4    H3      16.652350   20.907907   21.517192 H          1 MOL1         0.3649
       5    C1      18.534034   20.178397   20.859165 C.3        1 MOL1         0.0207
       6    H4      18.437725   20.663095   19.883809 H          1 MOL1         0.0950
       7    H5      18.169295   19.152515   20.764172 H          1 MOL1         0.0950
       8    C2      20.017754   20.169178   21.280788 C.3        1 MOL1        -0.1415
       9    H6      20.603246   19.668479   20.498254 H          1 MOL1         0.0976
      10    H7      20.384384   21.203444   21.321766 H          1 MOL1         0.0976
      11    C3      20.287142   19.477403   22.641129 C.3        1 MOL1        -0.1375
      12    H8      19.766530   20.015805   23.444144 H          1 MOL1         0.0976
      13    H9      21.359204   19.564530   22.860142 H          1 MOL1         0.0976
      14    C4      19.874732   17.983394   22.658017 C.3        1 MOL1        -0.1375
      15    H10     18.807834   17.893458   22.415133 H          1 MOL1         0.0976
      16    H11     20.417415   17.440611   21.871854 H          1 MOL1         0.0976
      17    C5      20.116300   17.293068   24.022399 C.3        1 MOL1        -0.1350
      18    H12     19.692322   16.279850   23.983737 H          1 MOL1         0.0976
      19    H13     19.566971   17.825539   24.811347 H          1 MOL1         0.0976
      20    C6      21.610109   17.191267   24.406472 C.3        1 MOL1        -0.2365
      21    H14     22.187569   16.691613   23.617869 H          1 MOL1         0.0987
      22    H15     21.730201   16.609563   25.329583 H          1 MOL1         0.0987
      23    H16     22.050633   18.180444   24.581719 H          1 MOL1         0.0987
@<TRIPOS>BOND
    1     1     2    1
    2     1     3    1
    3     1     4    1
    4     1     5    1
    5     5     6    1
    6     5     7    1
    7     5     8    1
    8     8     9    1
    9     8    10    1
   10     8    11    1
   11    11    12    1
   12    11    13    1
   13    11    14    1
   14    14    15    1
   15    14    16    1
   16    14    17    1
   17    17    18    1
   18    17    19    1
   19    17    20    1
   20    20    21    1
   21    20    22    1
   22    20    23    1
@<TRIPOS>SUBSTRUCTURE
       1 MOL1            1 RESIDUE      1      MOL     
@<SCITEGIC>MOL_PROPERTY
VConf Rank
SciTegic.value.IntegerValue
935

@<SCITEGIC>MOL_PROPERTY
Conf_Id
SciTegic.value.IntegerValue
50

@<SCITEGIC>MOL_PROPERTY
Delta U+W
SciTegic.value.DoubleValue
1.252

@<SCITEGIC>MOL_PROPERTY
U+W
SciTegic.value.DoubleValue
-7.130

@<SCITEGIC>MOL_PROPERTY
Grad RMS
SciTegic.value.DoubleValue
0.000000

@<SCITEGIC>MOL_PROPERTY
U
SciTegic.value.DoubleValue
48.727

@<SCITEGIC>MOL_PROPERTY
W
SciTegic.value.DoubleValue
-55.857

@<SCITEGIC>MOL_PROPERTY
W(PB)
SciTegic.value.DoubleValue
-57.937

@<SCITEGIC>MOL_PROPERTY
W(SA)
SciTegic.value.DoubleValue
2.080

@<SCITEGIC>MOL_PROPERTY
Valence
SciTegic.value.DoubleValue
2.671

@<SCITEGIC>MOL_PROPERTY
Coulomb
SciTegic.value.DoubleValue
45.371

@<SCITEGIC>MOL_PROPERTY
VdW
SciTegic.value.DoubleValue
0.684

@<SCITEGIC>MOL_PROPERTY
VdW6
SciTegic.value.DoubleValue
-6.511

@<SCITEGIC>MOL_PROPERTY
VdW12
SciTegic.value.DoubleValue
7.196

@<SCITEGIC>MOL_PROPERTY
Bond
SciTegic.value.DoubleValue
0.203

@<SCITEGIC>MOL_PROPERTY
Angle
SciTegic.value.DoubleValue
0.915

@<SCITEGIC>MOL_PROPERTY
Pdih
SciTegic.value.DoubleValue
1.554

@<SCITEGIC>MOL_PROPERTY
Idih
SciTegic.value.DoubleValue
0.000

@<SCITEGIC>MOL_PROPERTY
Tether
SciTegic.value.DoubleValue
0.000

@<TRIPOS>MOLECULE
guest-2_confgen4.mol2 : confsearch ligand conformer 936
          23          22           1
SMALL
USER_CHARGES
 
@<TRIPOS>ATOM
       1    N1      22.283300   18.748876   24.587724 N.4        1 MOL1        -0.5940
       2    H1      22.142631   19.763302   24.561563 H          1 MOL1         0.3649
       3    H2      23.292787   18.588554   24.672356 H          1 MOL1         0.3649
       4    H3      21.852781   18.405235   25.452125 H          1 MOL1         0.3649
       5    C1      21.706364   18.068814   23.361388 C.3        1 MOL1         0.0207
       6    H4      21.929195   17.001158   23.439047 H          1 MOL1         0.0950
       7    H5      22.222827   18.461180   22.481202 H          1 MOL1         0.0950
       8    C2      20.186163   18.262544   23.199473 C.3        1 MOL1        -0.1415
       9    H6      19.850439   17.648686   22.356187 H          1 MOL1         0.0976
      10    H7      19.672504   17.871794   24.087864 H          1 MOL1         0.0976
      11    C3      19.793786   19.745061   22.973950 C.3        1 MOL1        -0.1375
      12    H8      20.374316   20.172544   22.144734 H          1 MOL1         0.0976
      13    H9      20.071500   20.319149   23.867978 H          1 MOL1         0.0976
      14    C4      18.276960   19.948370   22.720948 C.3        1 MOL1        -0.1375
      15    H10     17.696685   19.167790   23.231995 H          1 MOL1         0.0976
      16    H11     17.975594   20.895270   23.190045 H          1 MOL1         0.0976
      17    C5      17.873120   20.020458   21.225982 C.3        1 MOL1        -0.1350
      18    H12     18.382205   20.868772   20.747473 H          1 MOL1         0.0976
      19    H13     16.797643   20.238458   21.165661 H          1 MOL1         0.0976
      20    C6      18.162383   18.731996   20.425216 C.3        1 MOL1        -0.2365
      21    H14     17.715194   17.854914   20.910586 H          1 MOL1         0.0987
      22    H15     19.240894   18.562080   20.319302 H          1 MOL1         0.0987
      23    H16     17.741966   18.806643   19.413996 H          1 MOL1         0.0987
@<TRIPOS>BOND
    1     1     2    1
    2     1     3    1
    3     1     4    1
    4     1     5    1
    5     5     6    1
    6     5     7    1
    7     5     8    1
    8     8     9    1
    9     8    10    1
   10     8    11    1
   11    11    12    1
   12    11    13    1
   13    11    14    1
   14    14    15    1
   15    14    16    1
   16    14    17    1
   17    17    18    1
   18    17    19    1
   19    17    20    1
   20    20    21    1
   21    20    22    1
   22    20    23    1
@<TRIPOS>SUBSTRUCTURE
       1 MOL1            1 RESIDUE      1      MOL     
@<SCITEGIC>MOL_PROPERTY
VConf Rank
SciTegic.value.IntegerValue
936

@<SCITEGIC>MOL_PROPERTY
Conf_Id
SciTegic.value.IntegerValue
55

@<SCITEGIC>MOL_PROPERTY
Delta U+W
SciTegic.value.DoubleValue
3.232

@<SCITEGIC>MOL_PROPERTY
U+W
SciTegic.value.DoubleValue
-5.150

@<SCITEGIC>MOL_PROPERTY
Grad RMS
SciTegic.value.DoubleValue
0.000000

@<SCITEGIC>MOL_PROPERTY
U
SciTegic.value.DoubleValue
50.625

@<SCITEGIC>MOL_PROPERTY
W
SciTegic.value.DoubleValue
-55.776

@<SCITEGIC>MOL_PROPERTY
W(PB)
SciTegic.value.DoubleValue
-57.839

@<SCITEGIC>MOL_PROPERTY
W(SA)
SciTegic.value.DoubleValue
2.064

@<SCITEGIC>MOL_PROPERTY
Valence
SciTegic.value.DoubleValue
4.837

@<SCITEGIC>MOL_PROPERTY
Coulomb
SciTegic.value.DoubleValue
45.097

@<SCITEGIC>MOL_PROPERTY
VdW
SciTegic.value.DoubleValue
0.692

@<SCITEGIC>MOL_PROPERTY
VdW6
SciTegic.value.DoubleValue
-6.655

@<SCITEGIC>MOL_PROPERTY
VdW12
SciTegic.value.DoubleValue
7.347

@<SCITEGIC>MOL_PROPERTY
Bond
SciTegic.value.DoubleValue
0.223

@<SCITEGIC>MOL_PROPERTY
Angle
SciTegic.value.DoubleValue
1.167

@<SCITEGIC>MOL_PROPERTY
Pdih
SciTegic.value.DoubleValue
3.447

@<SCITEGIC>MOL_PROPERTY
Idih
SciTegic.value.DoubleValue
0.000

@<SCITEGIC>MOL_PROPERTY
Tether
SciTegic.value.DoubleValue
0.000

@<TRIPOS>MOLECULE
guest-2_confgen4.mol2 : confsearch ligand conformer 937
          23          22           1
SMALL
USER_CHARGES
 
@<TRIPOS>ATOM
       1    N1      18.791795   16.148752   23.283135 N.4        1 MOL1        -0.5940
       2    H1      19.051534   15.326483   22.728844 H          1 MOL1         0.3649
       3    H2      17.824179   16.005975   23.591894 H          1 MOL1         0.3649
       4    H3      19.377283   16.142119   24.124513 H          1 MOL1         0.3649
       5    C1      18.947889   17.433531   22.495337 C.3        1 MOL1         0.0207
       6    H4      18.620695   18.257091   23.132544 H          1 MOL1         0.0950
       7    H5      18.277239   17.382644   21.633340 H          1 MOL1         0.0950
       8    C2      20.391806   17.671827   22.011494 C.3        1 MOL1        -0.1415
       9    H6      21.084246   17.679008   22.863748 H          1 MOL1         0.0976
      10    H7      20.684366   16.821121   21.381631 H          1 MOL1         0.0976
      11    C3      20.549544   18.973560   21.185617 C.3        1 MOL1        -0.1375
      12    H8      19.664193   19.127674   20.553157 H          1 MOL1         0.0976
      13    H9      21.390250   18.837570   20.491197 H          1 MOL1         0.0976
      14    C4      20.835995   20.248197   22.021511 C.3        1 MOL1        -0.1375
      15    H10     21.779923   20.121944   22.569557 H          1 MOL1         0.0976
      16    H11     20.997534   21.083455   21.326033 H          1 MOL1         0.0976
      17    C5      19.714645   20.633172   23.013917 C.3        1 MOL1        -0.1350
      18    H12     19.645496   19.880762   23.810166 H          1 MOL1         0.0976
      19    H13     18.745856   20.649877   22.495414 H          1 MOL1         0.0976
      20    C6      19.973823   22.011392   23.658911 C.3        1 MOL1        -0.2365
      21    H14     20.011485   22.802874   22.899074 H          1 MOL1         0.0987
      22    H15     20.925085   22.017888   24.206915 H          1 MOL1         0.0987
      23    H16     19.174778   22.263871   24.368003 H          1 MOL1         0.0987
@<TRIPOS>BOND
    1     1     2    1
    2     1     3    1
    3     1     4    1
    4     1     5    1
    5     5     6    1
    6     5     7    1
    7     5     8    1
    8     8     9    1
    9     8    10    1
   10     8    11    1
   11    11    12    1
   12    11    13    1
   13    11    14    1
   14    14    15    1
   15    14    16    1
   16    14    17    1
   17    17    18    1
   18    17    19    1
   19    17    20    1
   20    20    21    1
   21    20    22    1
   22    20    23    1
@<TRIPOS>SUBSTRUCTURE
       1 MOL1            1 RESIDUE      1      MOL     
@<SCITEGIC>MOL_PROPERTY
VConf Rank
SciTegic.value.IntegerValue
937

@<SCITEGIC>MOL_PROPERTY
Conf_Id
SciTegic.value.IntegerValue
93

@<SCITEGIC>MOL_PROPERTY
Delta U+W
SciTegic.value.DoubleValue
2.589

@<SCITEGIC>MOL_PROPERTY
U+W
SciTegic.value.DoubleValue
-5.793

@<SCITEGIC>MOL_PROPERTY
Grad RMS
SciTegic.value.DoubleValue
0.000000

@<SCITEGIC>MOL_PROPERTY
U
SciTegic.value.DoubleValue
50.122

@<SCITEGIC>MOL_PROPERTY
W
SciTegic.value.DoubleValue
-55.915

@<SCITEGIC>MOL_PROPERTY
W(PB)
SciTegic.value.DoubleValue
-58.031

@<SCITEGIC>MOL_PROPERTY
W(SA)
SciTegic.value.DoubleValue
2.115

@<SCITEGIC>MOL_PROPERTY
Valence
SciTegic.value.DoubleValue
4.132

@<SCITEGIC>MOL_PROPERTY
Coulomb
SciTegic.value.DoubleValue
45.536

@<SCITEGIC>MOL_PROPERTY
VdW
SciTegic.value.DoubleValue
0.454

@<SCITEGIC>MOL_PROPERTY
VdW6
SciTegic.value.DoubleValue
-6.262

@<SCITEGIC>MOL_PROPERTY
VdW12
SciTegic.value.DoubleValue
6.715

@<SCITEGIC>MOL_PROPERTY
Bond
SciTegic.value.DoubleValue
0.182

@<SCITEGIC>MOL_PROPERTY
Angle
SciTegic.value.DoubleValue
1.157

@<SCITEGIC>MOL_PROPERTY
Pdih
SciTegic.value.DoubleValue
2.794

@<SCITEGIC>MOL_PROPERTY
Idih
SciTegic.value.DoubleValue
0.000

@<SCITEGIC>MOL_PROPERTY
Tether
SciTegic.value.DoubleValue
0.000

@<TRIPOS>MOLECULE
guest-2_confgen4.mol2 : confsearch ligand conformer 938
          23          22           1
SMALL
USER_CHARGES
 
@<TRIPOS>ATOM
       1    N1      18.966110   16.873466   20.380550 N.4        1 MOL1        -0.5940
       2    H1      18.153909   16.585765   20.935809 H          1 MOL1         0.3649
       3    H2      19.541330   16.036411   20.237511 H          1 MOL1         0.3649
       4    H3      18.616548   17.155190   19.458993 H          1 MOL1         0.3649
       5    C1      19.746176   17.984804   21.052913 C.3        1 MOL1         0.0207
       6    H4      20.608392   18.218903   20.422690 H          1 MOL1         0.0950
       7    H5      20.115607   17.603069   22.006401 H          1 MOL1         0.0950
       8    C2      18.908746   19.259669   21.274761 C.3        1 MOL1        -0.1415
       9    H6      18.551483   19.606700   20.296011 H          1 MOL1         0.0976
      10    H7      18.013531   19.030537   21.868015 H          1 MOL1         0.0976
      11    C3      19.710805   20.405963   21.941227 C.3        1 MOL1        -0.1375
      12    H8      19.268632   21.360882   21.624824 H          1 MOL1         0.0976
      13    H9      20.741411   20.415373   21.559958 H          1 MOL1         0.0976
      14    C4      19.716270   20.385144   23.492037 C.3        1 MOL1        -0.1375
      15    H10     20.251164   21.278291   23.843628 H          1 MOL1         0.0976
      16    H11     18.686519   20.481739   23.862946 H          1 MOL1         0.0976
      17    C5      20.370745   19.131569   24.117109 C.3        1 MOL1        -0.1350
      18    H12     21.358563   18.961412   23.666621 H          1 MOL1         0.0976
      19    H13     19.758676   18.245304   23.905396 H          1 MOL1         0.0976
      20    C6      20.523059   19.271790   25.646756 C.3        1 MOL1        -0.2365
      21    H14     20.978742   18.369660   26.075176 H          1 MOL1         0.0987
      22    H15     19.547494   19.417850   26.128616 H          1 MOL1         0.0987
      23    H16     21.162784   20.126112   25.903855 H          1 MOL1         0.0987
@<TRIPOS>BOND
    1     1     2    1
    2     1     3    1
    3     1     4    1
    4     1     5    1
    5     5     6    1
    6     5     7    1
    7     5     8    1
    8     8     9    1
    9     8    10    1
   10     8    11    1
   11    11    12    1
   12    11    13    1
   13    11    14    1
   14    14    15    1
   15    14    16    1
   16    14    17    1
   17    17    18    1
   18    17    19    1
   19    17    20    1
   20    20    21    1
   21    20    22    1
   22    20    23    1
@<TRIPOS>SUBSTRUCTURE
       1 MOL1            1 RESIDUE      1      MOL     
@<SCITEGIC>MOL_PROPERTY
VConf Rank
SciTegic.value.IntegerValue
938

@<SCITEGIC>MOL_PROPERTY
Conf_Id
SciTegic.value.IntegerValue
70

@<SCITEGIC>MOL_PROPERTY
Delta U+W
SciTegic.value.DoubleValue
2.599

@<SCITEGIC>MOL_PROPERTY
U+W
SciTegic.value.DoubleValue
-5.783

@<SCITEGIC>MOL_PROPERTY
Grad RMS
SciTegic.value.DoubleValue
0.000000

@<SCITEGIC>MOL_PROPERTY
U
SciTegic.value.DoubleValue
50.122

@<SCITEGIC>MOL_PROPERTY
W
SciTegic.value.DoubleValue
-55.906

@<SCITEGIC>MOL_PROPERTY
W(PB)
SciTegic.value.DoubleValue
-58.010

@<SCITEGIC>MOL_PROPERTY
W(SA)
SciTegic.value.DoubleValue
2.105

@<SCITEGIC>MOL_PROPERTY
Valence
SciTegic.value.DoubleValue
4.132

@<SCITEGIC>MOL_PROPERTY
Coulomb
SciTegic.value.DoubleValue
45.536

@<SCITEGIC>MOL_PROPERTY
VdW
SciTegic.value.DoubleValue
0.454

@<SCITEGIC>MOL_PROPERTY
VdW6
SciTegic.value.DoubleValue
-6.262

@<SCITEGIC>MOL_PROPERTY
VdW12
SciTegic.value.DoubleValue
6.715

@<SCITEGIC>MOL_PROPERTY
Bond
SciTegic.value.DoubleValue
0.182

@<SCITEGIC>MOL_PROPERTY
Angle
SciTegic.value.DoubleValue
1.157

@<SCITEGIC>MOL_PROPERTY
Pdih
SciTegic.value.DoubleValue
2.794

@<SCITEGIC>MOL_PROPERTY
Idih
SciTegic.value.DoubleValue
0.000

@<SCITEGIC>MOL_PROPERTY
Tether
SciTegic.value.DoubleValue
0.000

@<TRIPOS>MOLECULE
guest-2_confgen4.mol2 : confsearch ligand conformer 939
          23          22           1
SMALL
USER_CHARGES
 
@<TRIPOS>ATOM
       1    N1      20.176113   16.419167   23.754962 N.4        1 MOL1        -0.5940
       2    H1      20.761563   15.677442   23.357972 H          1 MOL1         0.3649
       3    H2      19.614660   15.991380   24.498959 H          1 MOL1         0.3649
       4    H3      20.804040   17.094247   24.201549 H          1 MOL1         0.3649
       5    C1      19.307731   17.075920   22.700058 C.3        1 MOL1         0.0207
       6    H4      18.687435   17.829803   23.191829 H          1 MOL1         0.0950
       7    H5      18.646819   16.308659   22.287746 H          1 MOL1         0.0950
       8    C2      20.111098   17.728344   21.556936 C.3        1 MOL1        -0.1415
       9    H6      20.703528   16.956221   21.048440 H          1 MOL1         0.0976
      10    H7      19.409697   18.110459   20.804313 H          1 MOL1         0.0976
      11    C3      21.053108   18.870557   22.020586 C.3        1 MOL1        -0.1375
      12    H8      21.549937   19.299220   21.139330 H          1 MOL1         0.0976
      13    H9      21.857361   18.448360   22.637967 H          1 MOL1         0.0976
      14    C4      20.358855   20.008392   22.813142 C.3        1 MOL1        -0.1375
      15    H10     19.936538   19.614103   23.746993 H          1 MOL1         0.0976
      16    H11     21.123602   20.738642   23.111862 H          1 MOL1         0.0976
      17    C5      19.255832   20.737082   22.009871 C.3        1 MOL1        -0.1350
      18    H12     18.444804   20.039671   21.761291 H          1 MOL1         0.0976
      19    H13     19.668149   21.099102   21.057690 H          1 MOL1         0.0976
      20    C6      18.668869   21.926720   22.798932 C.3        1 MOL1        -0.2365
      21    H14     17.886783   22.430338   22.216073 H          1 MOL1         0.0987
      22    H15     19.444672   22.667685   23.031943 H          1 MOL1         0.0987
      23    H16     18.221622   21.591241   23.743721 H          1 MOL1         0.0987
@<TRIPOS>BOND
    1     1     2    1
    2     1     3    1
    3     1     4    1
    4     1     5    1
    5     5     6    1
    6     5     7    1
    7     5     8    1
    8     8     9    1
    9     8    10    1
   10     8    11    1
   11    11    12    1
   12    11    13    1
   13    11    14    1
   14    14    15    1
   15    14    16    1
   16    14    17    1
   17    17    18    1
   18    17    19    1
   19    17    20    1
   20    20    21    1
   21    20    22    1
   22    20    23    1
@<TRIPOS>SUBSTRUCTURE
       1 MOL1            1 RESIDUE      1      MOL     
@<SCITEGIC>MOL_PROPERTY
VConf Rank
SciTegic.value.IntegerValue
939

@<SCITEGIC>MOL_PROPERTY
Conf_Id
SciTegic.value.IntegerValue
72

@<SCITEGIC>MOL_PROPERTY
Delta U+W
SciTegic.value.DoubleValue
1.051

@<SCITEGIC>MOL_PROPERTY
U+W
SciTegic.value.DoubleValue
-7.331

@<SCITEGIC>MOL_PROPERTY
Grad RMS
SciTegic.value.DoubleValue
0.000000

@<SCITEGIC>MOL_PROPERTY
U
SciTegic.value.DoubleValue
48.590

@<SCITEGIC>MOL_PROPERTY
W
SciTegic.value.DoubleValue
-55.922

@<SCITEGIC>MOL_PROPERTY
W(PB)
SciTegic.value.DoubleValue
-58.012

@<SCITEGIC>MOL_PROPERTY
W(SA)
SciTegic.value.DoubleValue
2.090

@<SCITEGIC>MOL_PROPERTY
Valence
SciTegic.value.DoubleValue
2.601

@<SCITEGIC>MOL_PROPERTY
Coulomb
SciTegic.value.DoubleValue
45.520

@<SCITEGIC>MOL_PROPERTY
VdW
SciTegic.value.DoubleValue
0.469

@<SCITEGIC>MOL_PROPERTY
VdW6
SciTegic.value.DoubleValue
-6.867

@<SCITEGIC>MOL_PROPERTY
VdW12
SciTegic.value.DoubleValue
7.336

@<SCITEGIC>MOL_PROPERTY
Bond
SciTegic.value.DoubleValue
0.205

@<SCITEGIC>MOL_PROPERTY
Angle
SciTegic.value.DoubleValue
0.962

@<SCITEGIC>MOL_PROPERTY
Pdih
SciTegic.value.DoubleValue
1.434

@<SCITEGIC>MOL_PROPERTY
Idih
SciTegic.value.DoubleValue
0.000

@<SCITEGIC>MOL_PROPERTY
Tether
SciTegic.value.DoubleValue
0.000

@<TRIPOS>MOLECULE
guest-2_confgen4.mol2 : confsearch ligand conformer 940
          23          22           1
SMALL
USER_CHARGES
 
@<TRIPOS>ATOM
       1    N1      17.566579   18.289620   20.470144 N.4        1 MOL1        -0.5940
       2    H1      17.288206   17.384802   20.075467 H          1 MOL1         0.3649
       3    H2      17.459910   18.984962   19.724553 H          1 MOL1         0.3649
       4    H3      16.882737   18.520491   21.197963 H          1 MOL1         0.3649
       5    C1      18.980776   18.255753   21.012858 C.3        1 MOL1         0.0207
       6    H4      19.650249   17.976761   20.194739 H          1 MOL1         0.0950
       7    H5      19.028486   17.476275   21.777758 H          1 MOL1         0.0950
       8    C2      19.429688   19.600914   21.613555 C.3        1 MOL1        -0.1415
       9    H6      19.342329   20.383239   20.848006 H          1 MOL1         0.0976
      10    H7      18.750691   19.888369   22.426429 H          1 MOL1         0.0976
      11    C3      20.889657   19.567431   22.129723 C.3        1 MOL1        -0.1375
      12    H8      21.154208   20.558034   22.523000 H          1 MOL1         0.0976
      13    H9      21.563065   19.397877   21.278203 H          1 MOL1         0.0976
      14    C4      21.174707   18.487760   23.208526 C.3        1 MOL1        -0.1375
      15    H10     21.068790   17.489603   22.762695 H          1 MOL1         0.0976
      16    H11     22.227978   18.564746   23.511618 H          1 MOL1         0.0976
      17    C5      20.283508   18.568649   24.474006 C.3        1 MOL1        -0.1350
      18    H12     20.566454   17.753165   25.154166 H          1 MOL1         0.0976
      19    H13     19.232563   18.389026   24.210626 H          1 MOL1         0.0976
      20    C6      20.410352   19.911678   25.228129 C.3        1 MOL1        -0.2365
      21    H14     21.455704   20.119021   25.491162 H          1 MOL1         0.0987
      22    H15     19.828471   19.886870   26.158528 H          1 MOL1         0.0987
      23    H16     20.035056   20.748298   24.625818 H          1 MOL1         0.0987
@<TRIPOS>BOND
    1     1     2    1
    2     1     3    1
    3     1     4    1
    4     1     5    1
    5     5     6    1
    6     5     7    1
    7     5     8    1
    8     8     9    1
    9     8    10    1
   10     8    11    1
   11    11    12    1
   12    11    13    1
   13    11    14    1
   14    14    15    1
   15    14    16    1
   16    14    17    1
   17    17    18    1
   18    17    19    1
   19    17    20    1
   20    20    21    1
   21    20    22    1
   22    20    23    1
@<TRIPOS>SUBSTRUCTURE
       1 MOL1            1 RESIDUE      1      MOL     
@<SCITEGIC>MOL_PROPERTY
VConf Rank
SciTegic.value.IntegerValue
940

@<SCITEGIC>MOL_PROPERTY
Conf_Id
SciTegic.value.IntegerValue
26

@<SCITEGIC>MOL_PROPERTY
Delta U+W
SciTegic.value.DoubleValue
1.076

@<SCITEGIC>MOL_PROPERTY
U+W
SciTegic.value.DoubleValue
-7.306

@<SCITEGIC>MOL_PROPERTY
Grad RMS
SciTegic.value.DoubleValue
0.000000

@<SCITEGIC>MOL_PROPERTY
U
SciTegic.value.DoubleValue
48.641

@<SCITEGIC>MOL_PROPERTY
W
SciTegic.value.DoubleValue
-55.947

@<SCITEGIC>MOL_PROPERTY
W(PB)
SciTegic.value.DoubleValue
-58.031

@<SCITEGIC>MOL_PROPERTY
W(SA)
SciTegic.value.DoubleValue
2.084

@<SCITEGIC>MOL_PROPERTY
Valence
SciTegic.value.DoubleValue
2.922

@<SCITEGIC>MOL_PROPERTY
Coulomb
SciTegic.value.DoubleValue
45.269

@<SCITEGIC>MOL_PROPERTY
VdW
SciTegic.value.DoubleValue
0.449

@<SCITEGIC>MOL_PROPERTY
VdW6
SciTegic.value.DoubleValue
-7.045

@<SCITEGIC>MOL_PROPERTY
VdW12
SciTegic.value.DoubleValue
7.494

@<SCITEGIC>MOL_PROPERTY
Bond
SciTegic.value.DoubleValue
0.220

@<SCITEGIC>MOL_PROPERTY
Angle
SciTegic.value.DoubleValue
1.205

@<SCITEGIC>MOL_PROPERTY
Pdih
SciTegic.value.DoubleValue
1.497

@<SCITEGIC>MOL_PROPERTY
Idih
SciTegic.value.DoubleValue
0.000

@<SCITEGIC>MOL_PROPERTY
Tether
SciTegic.value.DoubleValue
0.000

@<TRIPOS>MOLECULE
guest-2_confgen4.mol2 : confsearch ligand conformer 941
          23          22           1
SMALL
USER_CHARGES
 
@<TRIPOS>ATOM
       1    N1      22.533094   19.811617   21.289335 N.4        1 MOL1        -0.5940
       2    H1      23.355382   19.307904   21.637040 H          1 MOL1         0.3649
       3    H2      22.859717   20.729577   20.968980 H          1 MOL1         0.3649
       4    H3      22.198996   19.308374   20.461212 H          1 MOL1         0.3649
       5    C1      21.456843   19.935407   22.348577 C.3        1 MOL1         0.0207
       6    H4      20.628374   20.505889   21.920648 H          1 MOL1         0.0950
       7    H5      21.870319   20.504136   23.185795 H          1 MOL1         0.0950
       8    C2      20.944203   18.572860   22.851056 C.3        1 MOL1        -0.1415
       9    H6      20.540759   17.995767   22.009254 H          1 MOL1         0.0976
      10    H7      21.790061   17.993614   23.244409 H          1 MOL1         0.0976
      11    C3      19.872825   18.709849   23.961212 C.3        1 MOL1        -0.1375
      12    H8      20.331791   19.182344   24.840650 H          1 MOL1         0.0976
      13    H9      19.566550   17.707884   24.290169 H          1 MOL1         0.0976
      14    C4      18.617595   19.529779   23.557641 C.3        1 MOL1        -0.1375
      15    H10     17.922727   19.548396   24.408511 H          1 MOL1         0.0976
      16    H11     18.904303   20.576461   23.388651 H          1 MOL1         0.0976
      17    C5      17.863324   19.008642   22.307955 C.3        1 MOL1        -0.1350
      18    H12     18.505459   19.079229   21.419811 H          1 MOL1         0.0976
      19    H13     17.008064   19.670860   22.113816 H          1 MOL1         0.0976
      20    C6      17.345734   17.560793   22.464009 C.3        1 MOL1        -0.2365
      21    H14     18.172642   16.845149   22.551396 H          1 MOL1         0.0987
      22    H15     16.747559   17.269903   21.590848 H          1 MOL1         0.0987
      23    H16     16.710654   17.462832   23.353963 H          1 MOL1         0.0987
@<TRIPOS>BOND
    1     1     2    1
    2     1     3    1
    3     1     4    1
    4     1     5    1
    5     5     6    1
    6     5     7    1
    7     5     8    1
    8     8     9    1
    9     8    10    1
   10     8    11    1
   11    11    12    1
   12    11    13    1
   13    11    14    1
   14    14    15    1
   15    14    16    1
   16    14    17    1
   17    17    18    1
   18    17    19    1
   19    17    20    1
   20    20    21    1
   21    20    22    1
   22    20    23    1
@<TRIPOS>SUBSTRUCTURE
       1 MOL1            1 RESIDUE      1      MOL     
@<SCITEGIC>MOL_PROPERTY
VConf Rank
SciTegic.value.IntegerValue
941

@<SCITEGIC>MOL_PROPERTY
Conf_Id
SciTegic.value.IntegerValue
90

@<SCITEGIC>MOL_PROPERTY
Delta U+W
SciTegic.value.DoubleValue
1.131

@<SCITEGIC>MOL_PROPERTY
U+W
SciTegic.value.DoubleValue
-7.251

@<SCITEGIC>MOL_PROPERTY
Grad RMS
SciTegic.value.DoubleValue
0.000000

@<SCITEGIC>MOL_PROPERTY
U
SciTegic.value.DoubleValue
48.641

@<SCITEGIC>MOL_PROPERTY
W
SciTegic.value.DoubleValue
-55.892

@<SCITEGIC>MOL_PROPERTY
W(PB)
SciTegic.value.DoubleValue
-57.962

@<SCITEGIC>MOL_PROPERTY
W(SA)
SciTegic.value.DoubleValue
2.070

@<SCITEGIC>MOL_PROPERTY
Valence
SciTegic.value.DoubleValue
2.922

@<SCITEGIC>MOL_PROPERTY
Coulomb
SciTegic.value.DoubleValue
45.269

@<SCITEGIC>MOL_PROPERTY
VdW
SciTegic.value.DoubleValue
0.450

@<SCITEGIC>MOL_PROPERTY
VdW6
SciTegic.value.DoubleValue
-7.045

@<SCITEGIC>MOL_PROPERTY
VdW12
SciTegic.value.DoubleValue
7.495

@<SCITEGIC>MOL_PROPERTY
Bond
SciTegic.value.DoubleValue
0.220

@<SCITEGIC>MOL_PROPERTY
Angle
SciTegic.value.DoubleValue
1.205

@<SCITEGIC>MOL_PROPERTY
Pdih
SciTegic.value.DoubleValue
1.497

@<SCITEGIC>MOL_PROPERTY
Idih
SciTegic.value.DoubleValue
0.000

@<SCITEGIC>MOL_PROPERTY
Tether
SciTegic.value.DoubleValue
0.000

@<TRIPOS>MOLECULE
guest-2_confgen4.mol2 : confsearch ligand conformer 942
          23          22           1
SMALL
USER_CHARGES
 
@<TRIPOS>ATOM
       1    N1      18.473412   18.891607   20.303753 N.4        1 MOL1        -0.5940
       2    H1      18.706301   18.935791   19.305924 H          1 MOL1         0.3649
       3    H2      18.893066   19.714002   20.747801 H          1 MOL1         0.3649
       4    H3      17.456092   18.992063   20.378196 H          1 MOL1         0.3649
       5    C1      18.959861   17.604017   20.939264 C.3        1 MOL1         0.0207
       6    H4      20.042144   17.544374   20.798472 H          1 MOL1         0.0950
       7    H5      18.501451   16.771727   20.398272 H          1 MOL1         0.0950
       8    C2      18.621879   17.487164   22.439599 C.3        1 MOL1        -0.1415
       9    H6      17.531027   17.500677   22.564697 H          1 MOL1         0.0976
      10    H7      18.958835   16.506514   22.801026 H          1 MOL1         0.0976
      11    C3      19.252135   18.598924   23.315583 C.3        1 MOL1        -0.1375
      12    H8      18.943715   18.440064   24.358057 H          1 MOL1         0.0976
      13    H9      18.842818   19.573396   23.020680 H          1 MOL1         0.0976
      14    C4      20.799845   18.624903   23.242143 C.3        1 MOL1        -0.1375
      15    H10     21.185639   17.618886   23.457456 H          1 MOL1         0.0976
      16    H11     21.126923   18.870282   22.222957 H          1 MOL1         0.0976
      17    C5      21.444515   19.621562   24.235351 C.3        1 MOL1        -0.1350
      18    H12     22.536311   19.501994   24.196353 H          1 MOL1         0.0976
      19    H13     21.144639   19.370108   25.262301 H          1 MOL1         0.0976
      20    C6      21.094085   21.097283   23.937723 C.3        1 MOL1        -0.2365
      21    H14     21.360161   21.366493   22.907351 H          1 MOL1         0.0987
      22    H15     21.644963   21.766006   24.611724 H          1 MOL1         0.0987
      23    H16     20.024426   21.294570   24.080266 H          1 MOL1         0.0987
@<TRIPOS>BOND
    1     1     2    1
    2     1     3    1
    3     1     4    1
    4     1     5    1
    5     5     6    1
    6     5     7    1
    7     5     8    1
    8     8     9    1
    9     8    10    1
   10     8    11    1
   11    11    12    1
   12    11    13    1
   13    11    14    1
   14    14    15    1
   15    14    16    1
   16    14    17    1
   17    17    18    1
   18    17    19    1
   19    17    20    1
   20    20    21    1
   21    20    22    1
   22    20    23    1
@<TRIPOS>SUBSTRUCTURE
       1 MOL1            1 RESIDUE      1      MOL     
@<SCITEGIC>MOL_PROPERTY
VConf Rank
SciTegic.value.IntegerValue
942

@<SCITEGIC>MOL_PROPERTY
Conf_Id
SciTegic.value.IntegerValue
85

@<SCITEGIC>MOL_PROPERTY
Delta U+W
SciTegic.value.DoubleValue
1.193

@<SCITEGIC>MOL_PROPERTY
U+W
SciTegic.value.DoubleValue
-7.189

@<SCITEGIC>MOL_PROPERTY
Grad RMS
SciTegic.value.DoubleValue
0.000000

@<SCITEGIC>MOL_PROPERTY
U
SciTegic.value.DoubleValue
48.775

@<SCITEGIC>MOL_PROPERTY
W
SciTegic.value.DoubleValue
-55.965

@<SCITEGIC>MOL_PROPERTY
W(PB)
SciTegic.value.DoubleValue
-58.038

@<SCITEGIC>MOL_PROPERTY
W(SA)
SciTegic.value.DoubleValue
2.073

@<SCITEGIC>MOL_PROPERTY
Valence
SciTegic.value.DoubleValue
2.602

@<SCITEGIC>MOL_PROPERTY
Coulomb
SciTegic.value.DoubleValue
45.581

@<SCITEGIC>MOL_PROPERTY
VdW
SciTegic.value.DoubleValue
0.592

@<SCITEGIC>MOL_PROPERTY
VdW6
SciTegic.value.DoubleValue
-6.616

@<SCITEGIC>MOL_PROPERTY
VdW12
SciTegic.value.DoubleValue
7.208

@<SCITEGIC>MOL_PROPERTY
Bond
SciTegic.value.DoubleValue
0.196

@<SCITEGIC>MOL_PROPERTY
Angle
SciTegic.value.DoubleValue
0.832

@<SCITEGIC>MOL_PROPERTY
Pdih
SciTegic.value.DoubleValue
1.574

@<SCITEGIC>MOL_PROPERTY
Idih
SciTegic.value.DoubleValue
0.000

@<SCITEGIC>MOL_PROPERTY
Tether
SciTegic.value.DoubleValue
0.000

@<TRIPOS>MOLECULE
guest-2_confgen4.mol2 : confsearch ligand conformer 943
          23          22           1
SMALL
USER_CHARGES
 
@<TRIPOS>ATOM
       1    N1      21.583407   19.069295   23.459386 N.4        1 MOL1        -0.5940
       2    H1      21.239728   19.024601   22.494732 H          1 MOL1         0.3649
       3    H2      22.365094   18.409705   23.538191 H          1 MOL1         0.3649
       4    H3      21.969195   20.008113   23.603618 H          1 MOL1         0.3649
       5    C1      20.481116   18.757202   24.452973 C.3        1 MOL1         0.0207
       6    H4      20.922082   18.826079   25.451129 H          1 MOL1         0.0950
       7    H5      20.151516   17.726400   24.298248 H          1 MOL1         0.0950
       8    C2      19.272743   19.711980   24.369610 C.3        1 MOL1        -0.1415
       9    H6      18.748611   19.671792   25.333720 H          1 MOL1         0.0976
      10    H7      19.624207   20.746970   24.264051 H          1 MOL1         0.0976
      11    C3      18.242627   19.381012   23.256312 C.3        1 MOL1        -0.1375
      12    H8      17.416831   20.100039   23.348870 H          1 MOL1         0.0976
      13    H9      17.794752   18.394719   23.440982 H          1 MOL1         0.0976
      14    C4      18.785565   19.458027   21.806296 C.3        1 MOL1        -0.1375
      15    H10     17.990787   19.850373   21.156580 H          1 MOL1         0.0976
      16    H11     19.603443   20.188203   21.745923 H          1 MOL1         0.0976
      17    C5      19.222032   18.082675   21.245045 C.3        1 MOL1        -0.1350
      18    H12     18.341924   17.429396   21.162758 H          1 MOL1         0.0976
      19    H13     19.910729   17.575979   21.931509 H          1 MOL1         0.0976
      20    C6      19.885042   18.216755   19.857865 C.3        1 MOL1        -0.2365
      21    H14     19.196495   18.673622   19.134993 H          1 MOL1         0.0987
      22    H15     20.173942   17.231354   19.469663 H          1 MOL1         0.0987
      23    H16     20.788936   18.837547   19.906439 H          1 MOL1         0.0987
@<TRIPOS>BOND
    1     1     2    1
    2     1     3    1
    3     1     4    1
    4     1     5    1
    5     5     6    1
    6     5     7    1
    7     5     8    1
    8     8     9    1
    9     8    10    1
   10     8    11    1
   11    11    12    1
   12    11    13    1
   13    11    14    1
   14    14    15    1
   15    14    16    1
   16    14    17    1
   17    17    18    1
   18    17    19    1
   19    17    20    1
   20    20    21    1
   21    20    22    1
   22    20    23    1
@<TRIPOS>SUBSTRUCTURE
       1 MOL1            1 RESIDUE      1      MOL     
@<SCITEGIC>MOL_PROPERTY
VConf Rank
SciTegic.value.IntegerValue
943

@<SCITEGIC>MOL_PROPERTY
Conf_Id
SciTegic.value.IntegerValue
82

@<SCITEGIC>MOL_PROPERTY
Delta U+W
SciTegic.value.DoubleValue
5.994

@<SCITEGIC>MOL_PROPERTY
U+W
SciTegic.value.DoubleValue
-2.388

@<SCITEGIC>MOL_PROPERTY
Grad RMS
SciTegic.value.DoubleValue
0.000000

@<SCITEGIC>MOL_PROPERTY
U
SciTegic.value.DoubleValue
52.836

@<SCITEGIC>MOL_PROPERTY
W
SciTegic.value.DoubleValue
-55.224

@<SCITEGIC>MOL_PROPERTY
W(PB)
SciTegic.value.DoubleValue
-57.261

@<SCITEGIC>MOL_PROPERTY
W(SA)
SciTegic.value.DoubleValue
2.037

@<SCITEGIC>MOL_PROPERTY
Valence
SciTegic.value.DoubleValue
5.785

@<SCITEGIC>MOL_PROPERTY
Coulomb
SciTegic.value.DoubleValue
46.744

@<SCITEGIC>MOL_PROPERTY
VdW
SciTegic.value.DoubleValue
0.307

@<SCITEGIC>MOL_PROPERTY
VdW6
SciTegic.value.DoubleValue
-7.672

@<SCITEGIC>MOL_PROPERTY
VdW12
SciTegic.value.DoubleValue
7.979

@<SCITEGIC>MOL_PROPERTY
Bond
SciTegic.value.DoubleValue
0.217

@<SCITEGIC>MOL_PROPERTY
Angle
SciTegic.value.DoubleValue
1.470

@<SCITEGIC>MOL_PROPERTY
Pdih
SciTegic.value.DoubleValue
4.098

@<SCITEGIC>MOL_PROPERTY
Idih
SciTegic.value.DoubleValue
0.000

@<SCITEGIC>MOL_PROPERTY
Tether
SciTegic.value.DoubleValue
0.000

@<TRIPOS>MOLECULE
guest-2_confgen4.mol2 : confsearch ligand conformer 944
          23          22           1
SMALL
USER_CHARGES
 
@<TRIPOS>ATOM
       1    N1      19.854459   19.814192   20.661901 N.4        1 MOL1        -0.5940
       2    H1      19.548966   20.788770   20.573099 H          1 MOL1         0.3649
       3    H2      20.369088   19.583143   19.805119 H          1 MOL1         0.3649
       4    H3      20.519545   19.771770   21.440705 H          1 MOL1         0.3649
       5    C1      18.683013   18.877375   20.884939 C.3        1 MOL1         0.0207
       6    H4      19.055472   17.849801   20.907167 H          1 MOL1         0.0950
       7    H5      18.022720   18.980154   20.019514 H          1 MOL1         0.0950
       8    C2      17.880043   19.171727   22.168416 C.3        1 MOL1        -0.1415
       9    H6      17.729703   20.254576   22.271899 H          1 MOL1         0.0976
      10    H7      16.877520   18.742233   22.040665 H          1 MOL1         0.0976
      11    C3      18.482314   18.588325   23.474948 C.3        1 MOL1        -0.1375
      12    H8      18.508161   17.491218   23.418750 H          1 MOL1         0.0976
      13    H9      17.785525   18.823797   24.291368 H          1 MOL1         0.0976
      14    C4      19.879443   19.136285   23.863579 C.3        1 MOL1        -0.1375
      15    H10     20.004546   20.159117   23.484253 H          1 MOL1         0.0976
      16    H11     19.929554   19.219059   24.958282 H          1 MOL1         0.0976
      17    C5      21.041959   18.223467   23.402685 C.3        1 MOL1        -0.1350
      18    H12     20.959060   17.986086   22.335416 H          1 MOL1         0.0976
      19    H13     20.979229   17.262235   23.932053 H          1 MOL1         0.0976
      20    C6      22.417114   18.866393   23.680934 C.3        1 MOL1        -0.2365
      21    H14     22.529939   19.815454   23.141191 H          1 MOL1         0.0987
      22    H15     23.228421   18.199201   23.361853 H          1 MOL1         0.0987
      23    H16     22.548649   19.066208   24.752447 H          1 MOL1         0.0987
@<TRIPOS>BOND
    1     1     2    1
    2     1     3    1
    3     1     4    1
    4     1     5    1
    5     5     6    1
    6     5     7    1
    7     5     8    1
    8     8     9    1
    9     8    10    1
   10     8    11    1
   11    11    12    1
   12    11    13    1
   13    11    14    1
   14    14    15    1
   15    14    16    1
   16    14    17    1
   17    17    18    1
   18    17    19    1
   19    17    20    1
   20    20    21    1
   21    20    22    1
   22    20    23    1
@<TRIPOS>SUBSTRUCTURE
       1 MOL1            1 RESIDUE      1      MOL     
@<SCITEGIC>MOL_PROPERTY
VConf Rank
SciTegic.value.IntegerValue
944

@<SCITEGIC>MOL_PROPERTY
Conf_Id
SciTegic.value.IntegerValue
5

@<SCITEGIC>MOL_PROPERTY
Delta U+W
SciTegic.value.DoubleValue
6.087

@<SCITEGIC>MOL_PROPERTY
U+W
SciTegic.value.DoubleValue
-2.295

@<SCITEGIC>MOL_PROPERTY
Grad RMS
SciTegic.value.DoubleValue
0.000000

@<SCITEGIC>MOL_PROPERTY
U
SciTegic.value.DoubleValue
52.836

@<SCITEGIC>MOL_PROPERTY
W
SciTegic.value.DoubleValue
-55.131

@<SCITEGIC>MOL_PROPERTY
W(PB)
SciTegic.value.DoubleValue
-57.202

@<SCITEGIC>MOL_PROPERTY
W(SA)
SciTegic.value.DoubleValue
2.071

@<SCITEGIC>MOL_PROPERTY
Valence
SciTegic.value.DoubleValue
5.785

@<SCITEGIC>MOL_PROPERTY
Coulomb
SciTegic.value.DoubleValue
46.744

@<SCITEGIC>MOL_PROPERTY
VdW
SciTegic.value.DoubleValue
0.307

@<SCITEGIC>MOL_PROPERTY
VdW6
SciTegic.value.DoubleValue
-7.672

@<SCITEGIC>MOL_PROPERTY
VdW12
SciTegic.value.DoubleValue
7.980

@<SCITEGIC>MOL_PROPERTY
Bond
SciTegic.value.DoubleValue
0.217

@<SCITEGIC>MOL_PROPERTY
Angle
SciTegic.value.DoubleValue
1.470

@<SCITEGIC>MOL_PROPERTY
Pdih
SciTegic.value.DoubleValue
4.098

@<SCITEGIC>MOL_PROPERTY
Idih
SciTegic.value.DoubleValue
0.000

@<SCITEGIC>MOL_PROPERTY
Tether
SciTegic.value.DoubleValue
0.000

@<TRIPOS>MOLECULE
guest-2_confgen4.mol2 : confsearch ligand conformer 945
          23          22           1
SMALL
USER_CHARGES
 
@<TRIPOS>ATOM
       1    N1      18.603374   21.367304   19.802551 N.4        1 MOL1        -0.5940
       2    H1      17.641558   21.477975   20.139516 H          1 MOL1         0.3649
       3    H2      18.567129   21.411472   18.778428 H          1 MOL1         0.3649
       4    H3      19.129653   22.188716   20.117504 H          1 MOL1         0.3649
       5    C1      19.227771   20.075024   20.288389 C.3        1 MOL1         0.0207
       6    H4      20.235577   20.008796   19.869536 H          1 MOL1         0.0950
       7    H5      18.636091   19.244846   19.893149 H          1 MOL1         0.0950
       8    C2      19.297030   19.977437   21.822748 C.3        1 MOL1        -0.1415
       9    H6      19.878363   20.821983   22.216316 H          1 MOL1         0.0976
      10    H7      18.284521   20.060839   22.239843 H          1 MOL1         0.0976
      11    C3      19.938793   18.647581   22.276406 C.3        1 MOL1        -0.1375
      12    H8      20.949522   18.565503   21.852740 H          1 MOL1         0.0976
      13    H9      19.357347   17.805189   21.876283 H          1 MOL1         0.0976
      14    C4      20.013461   18.538902   23.816411 C.3        1 MOL1        -0.1375
      15    H10     20.594936   19.381055   24.216634 H          1 MOL1         0.0976
      16    H11     19.002917   18.620934   24.240186 H          1 MOL1         0.0976
      17    C5      20.655258   17.208746   24.269777 C.3        1 MOL1        -0.1350
      18    H12     21.667523   17.123052   23.850313 H          1 MOL1         0.0976
      19    H13     20.075639   16.363005   23.873876 H          1 MOL1         0.0976
      20    C6      20.728111   17.103845   25.808021 C.3        1 MOL1        -0.2365
      21    H14     21.186433   16.153318   26.110488 H          1 MOL1         0.0987
      22    H15     19.726512   17.152051   26.254904 H          1 MOL1         0.0987
      23    H16     21.330810   17.918053   26.231162 H          1 MOL1         0.0987
@<TRIPOS>BOND
    1     1     2    1
    2     1     3    1
    3     1     4    1
    4     1     5    1
    5     5     6    1
    6     5     7    1
    7     5     8    1
    8     8     9    1
    9     8    10    1
   10     8    11    1
   11    11    12    1
   12    11    13    1
   13    11    14    1
   14    14    15    1
   15    14    16    1
   16    14    17    1
   17    17    18    1
   18    17    19    1
   19    17    20    1
   20    20    21    1
   21    20    22    1
   22    20    23    1
@<TRIPOS>SUBSTRUCTURE
       1 MOL1            1 RESIDUE      1      MOL     
@<SCITEGIC>MOL_PROPERTY
VConf Rank
SciTegic.value.IntegerValue
945

@<SCITEGIC>MOL_PROPERTY
Conf_Id
SciTegic.value.IntegerValue
40

@<SCITEGIC>MOL_PROPERTY
Delta U+W
SciTegic.value.DoubleValue
0.000

@<SCITEGIC>MOL_PROPERTY
U+W
SciTegic.value.DoubleValue
-8.382

@<SCITEGIC>MOL_PROPERTY
Grad RMS
SciTegic.value.DoubleValue
0.000000

@<SCITEGIC>MOL_PROPERTY
U
SciTegic.value.DoubleValue
46.604

@<SCITEGIC>MOL_PROPERTY
W
SciTegic.value.DoubleValue
-54.986

@<SCITEGIC>MOL_PROPERTY
W(PB)
SciTegic.value.DoubleValue
-57.162

@<SCITEGIC>MOL_PROPERTY
W(SA)
SciTegic.value.DoubleValue
2.176

@<SCITEGIC>MOL_PROPERTY
Valence
SciTegic.value.DoubleValue
1.727

@<SCITEGIC>MOL_PROPERTY
Coulomb
SciTegic.value.DoubleValue
44.434

@<SCITEGIC>MOL_PROPERTY
VdW
SciTegic.value.DoubleValue
0.443

@<SCITEGIC>MOL_PROPERTY
VdW6
SciTegic.value.DoubleValue
-4.623

@<SCITEGIC>MOL_PROPERTY
VdW12
SciTegic.value.DoubleValue
5.066

@<SCITEGIC>MOL_PROPERTY
Bond
SciTegic.value.DoubleValue
0.112

@<SCITEGIC>MOL_PROPERTY
Angle
SciTegic.value.DoubleValue
0.386

@<SCITEGIC>MOL_PROPERTY
Pdih
SciTegic.value.DoubleValue
1.228

@<SCITEGIC>MOL_PROPERTY
Idih
SciTegic.value.DoubleValue
0.000

@<SCITEGIC>MOL_PROPERTY
Tether
SciTegic.value.DoubleValue
0.000

@<TRIPOS>MOLECULE
guest-2_confgen4.mol2 : confsearch ligand conformer 946
          23          22           1
SMALL
USER_CHARGES
 
@<TRIPOS>ATOM
       1    N1      17.272393   16.576560   21.838618 N.4        1 MOL1        -0.5940
       2    H1      17.527510   15.668355   22.239765 H          1 MOL1         0.3649
       3    H2      17.456881   16.523877   20.831632 H          1 MOL1         0.3649
       4    H3      16.257865   16.677316   21.950915 H          1 MOL1         0.3649
       5    C1      18.027195   17.715804   22.492973 C.3        1 MOL1         0.0207
       6    H4      17.762788   17.730537   23.553766 H          1 MOL1         0.0950
       7    H5      17.683634   18.649014   22.039537 H          1 MOL1         0.0950
       8    C2      19.555289   17.592664   22.341655 C.3        1 MOL1        -0.1415
       9    H6      19.879190   16.629781   22.758659 H          1 MOL1         0.0976
      10    H7      19.821558   17.579034   21.276339 H          1 MOL1         0.0976
      11    C3      20.322939   18.730820   23.055052 C.3        1 MOL1        -0.1375
      12    H8      21.396488   18.508992   22.998073 H          1 MOL1         0.0976
      13    H9      20.061920   18.735802   24.122393 H          1 MOL1         0.0976
      14    C4      20.047462   20.127581   22.442073 C.3        1 MOL1        -0.1375
      15    H10     20.328182   20.127954   21.379803 H          1 MOL1         0.0976
      16    H11     18.970468   20.338224   22.476997 H          1 MOL1         0.0976
      17    C5      20.785813   21.276536   23.170954 C.3        1 MOL1        -0.1350
      18    H12     20.500679   21.287594   24.232262 H          1 MOL1         0.0976
      19    H13     20.446399   22.234259   22.752101 H          1 MOL1         0.0976
      20    C6      22.324545   21.198106   23.046282 C.3        1 MOL1        -0.2365
      21    H14     22.727426   20.317832   23.562092 H          1 MOL1         0.0987
      22    H15     22.791544   22.084474   23.494849 H          1 MOL1         0.0987
      23    H16     22.633829   21.152558   21.994009 H          1 MOL1         0.0987
@<TRIPOS>BOND
    1     1     2    1
    2     1     3    1
    3     1     4    1
    4     1     5    1
    5     5     6    1
    6     5     7    1
    7     5     8    1
    8     8     9    1
    9     8    10    1
   10     8    11    1
   11    11    12    1
   12    11    13    1
   13    11    14    1
   14    14    15    1
   15    14    16    1
   16    14    17    1
   17    17    18    1
   18    17    19    1
   19    17    20    1
   20    20    21    1
   21    20    22    1
   22    20    23    1
@<TRIPOS>SUBSTRUCTURE
       1 MOL1            1 RESIDUE      1      MOL     
@<SCITEGIC>MOL_PROPERTY
VConf Rank
SciTegic.value.IntegerValue
946

@<SCITEGIC>MOL_PROPERTY
Conf_Id
SciTegic.value.IntegerValue
65

@<SCITEGIC>MOL_PROPERTY
Delta U+W
SciTegic.value.DoubleValue
1.004

@<SCITEGIC>MOL_PROPERTY
U+W
SciTegic.value.DoubleValue
-7.378

@<SCITEGIC>MOL_PROPERTY
Grad RMS
SciTegic.value.DoubleValue
0.000000

@<SCITEGIC>MOL_PROPERTY
U
SciTegic.value.DoubleValue
48.047

@<SCITEGIC>MOL_PROPERTY
W
SciTegic.value.DoubleValue
-55.425

@<SCITEGIC>MOL_PROPERTY
W(PB)
SciTegic.value.DoubleValue
-57.542

@<SCITEGIC>MOL_PROPERTY
W(SA)
SciTegic.value.DoubleValue
2.116

@<SCITEGIC>MOL_PROPERTY
Valence
SciTegic.value.DoubleValue
2.583

@<SCITEGIC>MOL_PROPERTY
Coulomb
SciTegic.value.DoubleValue
44.791

@<SCITEGIC>MOL_PROPERTY
VdW
SciTegic.value.DoubleValue
0.673

@<SCITEGIC>MOL_PROPERTY
VdW6
SciTegic.value.DoubleValue
-5.788

@<SCITEGIC>MOL_PROPERTY
VdW12
SciTegic.value.DoubleValue
6.462

@<SCITEGIC>MOL_PROPERTY
Bond
SciTegic.value.DoubleValue
0.177

@<SCITEGIC>MOL_PROPERTY
Angle
SciTegic.value.DoubleValue
0.787

@<SCITEGIC>MOL_PROPERTY
Pdih
SciTegic.value.DoubleValue
1.619

@<SCITEGIC>MOL_PROPERTY
Idih
SciTegic.value.DoubleValue
0.000

@<SCITEGIC>MOL_PROPERTY
Tether
SciTegic.value.DoubleValue
0.000

@<TRIPOS>MOLECULE
guest-2_confgen4.mol2 : confsearch ligand conformer 947
          23          22           1
SMALL
USER_CHARGES
 
@<TRIPOS>ATOM
       1    N1      18.359604   17.131095   19.923185 N.4        1 MOL1        -0.5940
       2    H1      17.458631   17.530032   19.640456 H          1 MOL1         0.3649
       3    H2      18.262061   16.111210   19.874737 H          1 MOL1         0.3649
       4    H3      19.045141   17.399026   19.209682 H          1 MOL1         0.3649
       5    C1      18.773101   17.592098   21.306034 C.3        1 MOL1         0.0207
       6    H4      19.720554   17.105727   21.551585 H          1 MOL1         0.0950
       7    H5      18.015862   17.249567   22.016437 H          1 MOL1         0.0950
       8    C2      18.927866   19.121201   21.411025 C.3        1 MOL1        -0.1415
       9    H6      19.689210   19.465677   20.698510 H          1 MOL1         0.0976
      10    H7      17.983238   19.597052   21.115743 H          1 MOL1         0.0976
      11    C3      19.300367   19.590450   22.837441 C.3        1 MOL1        -0.1375
      12    H8      18.531875   19.252807   23.546516 H          1 MOL1         0.0976
      13    H9      19.278973   20.687820   22.854280 H          1 MOL1         0.0976
      14    C4      20.693476   19.090521   23.297759 C.3        1 MOL1        -0.1375
      15    H10     20.722118   17.993694   23.257057 H          1 MOL1         0.0976
      16    H11     21.463946   19.445941   22.599709 H          1 MOL1         0.0976
      17    C5      21.060163   19.527821   24.736796 C.3        1 MOL1        -0.1350
      18    H12     22.000984   19.037860   25.024312 H          1 MOL1         0.0976
      19    H13     20.298068   19.165872   25.441071 H          1 MOL1         0.0976
      20    C6      21.229008   21.056377   24.892994 C.3        1 MOL1        -0.2365
      21    H14     20.280553   21.585525   24.739071 H          1 MOL1         0.0987
      22    H15     21.962472   21.448095   24.176337 H          1 MOL1         0.0987
      23    H16     21.582620   21.302186   25.902688 H          1 MOL1         0.0987
@<TRIPOS>BOND
    1     1     2    1
    2     1     3    1
    3     1     4    1
    4     1     5    1
    5     5     6    1
    6     5     7    1
    7     5     8    1
    8     8     9    1
    9     8    10    1
   10     8    11    1
   11    11    12    1
   12    11    13    1
   13    11    14    1
   14    14    15    1
   15    14    16    1
   16    14    17    1
   17    17    18    1
   18    17    19    1
   19    17    20    1
   20    20    21    1
   21    20    22    1
   22    20    23    1
@<TRIPOS>SUBSTRUCTURE
       1 MOL1            1 RESIDUE      1      MOL     
@<SCITEGIC>MOL_PROPERTY
VConf Rank
SciTegic.value.IntegerValue
947

@<SCITEGIC>MOL_PROPERTY
Conf_Id
SciTegic.value.IntegerValue
92

@<SCITEGIC>MOL_PROPERTY
Delta U+W
SciTegic.value.DoubleValue
0.973

@<SCITEGIC>MOL_PROPERTY
U+W
SciTegic.value.DoubleValue
-7.409

@<SCITEGIC>MOL_PROPERTY
Grad RMS
SciTegic.value.DoubleValue
0.000000

@<SCITEGIC>MOL_PROPERTY
U
SciTegic.value.DoubleValue
48.047

@<SCITEGIC>MOL_PROPERTY
W
SciTegic.value.DoubleValue
-55.456

@<SCITEGIC>MOL_PROPERTY
W(PB)
SciTegic.value.DoubleValue
-57.595

@<SCITEGIC>MOL_PROPERTY
W(SA)
SciTegic.value.DoubleValue
2.138

@<SCITEGIC>MOL_PROPERTY
Valence
SciTegic.value.DoubleValue
2.583

@<SCITEGIC>MOL_PROPERTY
Coulomb
SciTegic.value.DoubleValue
44.791

@<SCITEGIC>MOL_PROPERTY
VdW
SciTegic.value.DoubleValue
0.674

@<SCITEGIC>MOL_PROPERTY
VdW6
SciTegic.value.DoubleValue
-5.789

@<SCITEGIC>MOL_PROPERTY
VdW12
SciTegic.value.DoubleValue
6.462

@<SCITEGIC>MOL_PROPERTY
Bond
SciTegic.value.DoubleValue
0.177

@<SCITEGIC>MOL_PROPERTY
Angle
SciTegic.value.DoubleValue
0.787

@<SCITEGIC>MOL_PROPERTY
Pdih
SciTegic.value.DoubleValue
1.619

@<SCITEGIC>MOL_PROPERTY
Idih
SciTegic.value.DoubleValue
0.000

@<SCITEGIC>MOL_PROPERTY
Tether
SciTegic.value.DoubleValue
0.000

@<TRIPOS>MOLECULE
guest-2_confgen4.mol2 : confsearch ligand conformer 948
          23          22           1
SMALL
USER_CHARGES
 
@<TRIPOS>ATOM
       1    N1      17.665438   16.749690   24.398308 N.4        1 MOL1        -0.5940
       2    H1      16.754470   17.050600   24.761107 H          1 MOL1         0.3649
       3    H2      18.115907   16.204364   25.140299 H          1 MOL1         0.3649
       4    H3      17.479265   16.106464   23.622138 H          1 MOL1         0.3649
       5    C1      18.515964   17.926696   23.965832 C.3        1 MOL1         0.0207
       6    H4      18.650005   18.582155   24.830601 H          1 MOL1         0.0950
       7    H5      17.962935   18.476241   23.199769 H          1 MOL1         0.0950
       8    C2      19.892188   17.506904   23.415705 C.3        1 MOL1        -0.1415
       9    H6      20.418911   16.918122   24.178493 H          1 MOL1         0.0976
      10    H7      19.757468   16.847887   22.547636 H          1 MOL1         0.0976
      11    C3      20.771871   18.715977   23.019052 C.3        1 MOL1        -0.1375
      12    H8      21.764828   18.347851   22.725846 H          1 MOL1         0.0976
      13    H9      20.926146   19.360117   23.895939 H          1 MOL1         0.0976
      14    C4      20.174669   19.547774   21.858481 C.3        1 MOL1        -0.1375
      15    H10     19.990940   18.893974   20.994648 H          1 MOL1         0.0976
      16    H11     19.202505   19.963307   22.155614 H          1 MOL1         0.0976
      17    C5      21.111523   20.702311   21.438813 C.3        1 MOL1        -0.1350
      18    H12     22.085735   20.297122   21.131089 H          1 MOL1         0.0976
      19    H13     21.299278   21.359300   22.299680 H          1 MOL1         0.0976
      20    C6      20.514358   21.532006   20.282283 C.3        1 MOL1        -0.2365
      21    H14     20.346529   20.908262   19.394587 H          1 MOL1         0.0987
      22    H15     21.193717   22.346155   19.998247 H          1 MOL1         0.0987
      23    H16     19.554748   21.979750   20.571930 H          1 MOL1         0.0987
@<TRIPOS>BOND
    1     1     2    1
    2     1     3    1
    3     1     4    1
    4     1     5    1
    5     5     6    1
    6     5     7    1
    7     5     8    1
    8     8     9    1
    9     8    10    1
   10     8    11    1
   11    11    12    1
   12    11    13    1
   13    11    14    1
   14    14    15    1
   15    14    16    1
   16    14    17    1
   17    17    18    1
   18    17    19    1
   19    17    20    1
   20    20    21    1
   21    20    22    1
   22    20    23    1
@<TRIPOS>SUBSTRUCTURE
       1 MOL1            1 RESIDUE      1      MOL     
@<SCITEGIC>MOL_PROPERTY
VConf Rank
SciTegic.value.IntegerValue
948

@<SCITEGIC>MOL_PROPERTY
Conf_Id
SciTegic.value.IntegerValue
42

@<SCITEGIC>MOL_PROPERTY
Delta U+W
SciTegic.value.DoubleValue
0.365

@<SCITEGIC>MOL_PROPERTY
U+W
SciTegic.value.DoubleValue
-8.017

@<SCITEGIC>MOL_PROPERTY
Grad RMS
SciTegic.value.DoubleValue
0.000000

@<SCITEGIC>MOL_PROPERTY
U
SciTegic.value.DoubleValue
47.375

@<SCITEGIC>MOL_PROPERTY
W
SciTegic.value.DoubleValue
-55.392

@<SCITEGIC>MOL_PROPERTY
W(PB)
SciTegic.value.DoubleValue
-57.543

@<SCITEGIC>MOL_PROPERTY
W(SA)
SciTegic.value.DoubleValue
2.152

@<SCITEGIC>MOL_PROPERTY
Valence
SciTegic.value.DoubleValue
2.032

@<SCITEGIC>MOL_PROPERTY
Coulomb
SciTegic.value.DoubleValue
44.843

@<SCITEGIC>MOL_PROPERTY
VdW
SciTegic.value.DoubleValue
0.499

@<SCITEGIC>MOL_PROPERTY
VdW6
SciTegic.value.DoubleValue
-5.218

@<SCITEGIC>MOL_PROPERTY
VdW12
SciTegic.value.DoubleValue
5.717

@<SCITEGIC>MOL_PROPERTY
Bond
SciTegic.value.DoubleValue
0.135

@<SCITEGIC>MOL_PROPERTY
Angle
SciTegic.value.DoubleValue
0.514

@<SCITEGIC>MOL_PROPERTY
Pdih
SciTegic.value.DoubleValue
1.383

@<SCITEGIC>MOL_PROPERTY
Idih
SciTegic.value.DoubleValue
0.000

@<SCITEGIC>MOL_PROPERTY
Tether
SciTegic.value.DoubleValue
0.000

@<TRIPOS>MOLECULE
guest-2_confgen4.mol2 : confsearch ligand conformer 949
          23          22           1
SMALL
USER_CHARGES
 
@<TRIPOS>ATOM
       1    N1      21.039071   19.071136   19.715654 N.4        1 MOL1        -0.5940
       2    H1      20.608554   18.184194   19.435258 H          1 MOL1         0.3649
       3    H2      21.790550   19.263753   19.044739 H          1 MOL1         0.3649
       4    H3      20.333021   19.802966   19.591883 H          1 MOL1         0.3649
       5    C1      21.556029   19.021395   21.140387 C.3        1 MOL1         0.0207
       6    H4      22.021670   19.984278   21.367224 H          1 MOL1         0.0950
       7    H5      22.330218   18.250468   21.183684 H          1 MOL1         0.0950
       8    C2      20.468974   18.710890   22.187826 C.3        1 MOL1        -0.1415
       9    H6      19.983987   17.756875   21.942279 H          1 MOL1         0.0976
      10    H7      20.965640   18.577772   23.156702 H          1 MOL1         0.0976
      11    C3      19.409965   19.834345   22.302527 C.3        1 MOL1        -0.1375
      12    H8      18.986387   20.039716   21.310693 H          1 MOL1         0.0976
      13    H9      19.899370   20.764112   22.624122 H          1 MOL1         0.0976
      14    C4      18.236714   19.511337   23.263883 C.3        1 MOL1        -0.1375
      15    H10     17.536400   20.357257   23.225587 H          1 MOL1         0.0976
      16    H11     17.672470   18.644512   22.893115 H          1 MOL1         0.0976
      17    C5      18.646350   19.291870   24.743232 C.3        1 MOL1        -0.1350
      18    H12     17.857894   19.702689   25.389403 H          1 MOL1         0.0976
      19    H13     19.555659   19.862890   24.977094 H          1 MOL1         0.0976
      20    C6      18.836184   17.802053   25.112920 C.3        1 MOL1        -0.2365
      21    H14     17.908047   17.237927   24.953604 H          1 MOL1         0.0987
      22    H15     19.109061   17.700915   26.171326 H          1 MOL1         0.0987
      23    H16     19.625039   17.326469   24.519921 H          1 MOL1         0.0987
@<TRIPOS>BOND
    1     1     2    1
    2     1     3    1
    3     1     4    1
    4     1     5    1
    5     5     6    1
    6     5     7    1
    7     5     8    1
    8     8     9    1
    9     8    10    1
   10     8    11    1
   11    11    12    1
   12    11    13    1
   13    11    14    1
   14    14    15    1
   15    14    16    1
   16    14    17    1
   17    17    18    1
   18    17    19    1
   19    17    20    1
   20    20    21    1
   21    20    22    1
   22    20    23    1
@<TRIPOS>SUBSTRUCTURE
       1 MOL1            1 RESIDUE      1      MOL     
@<SCITEGIC>MOL_PROPERTY
VConf Rank
SciTegic.value.IntegerValue
949

@<SCITEGIC>MOL_PROPERTY
Conf_Id
SciTegic.value.IntegerValue
3

@<SCITEGIC>MOL_PROPERTY
Delta U+W
SciTegic.value.DoubleValue
3.283

@<SCITEGIC>MOL_PROPERTY
U+W
SciTegic.value.DoubleValue
-5.099

@<SCITEGIC>MOL_PROPERTY
Grad RMS
SciTegic.value.DoubleValue
0.000000

@<SCITEGIC>MOL_PROPERTY
U
SciTegic.value.DoubleValue
50.701

@<SCITEGIC>MOL_PROPERTY
W
SciTegic.value.DoubleValue
-55.800

@<SCITEGIC>MOL_PROPERTY
W(PB)
SciTegic.value.DoubleValue
-57.867

@<SCITEGIC>MOL_PROPERTY
W(SA)
SciTegic.value.DoubleValue
2.067

@<SCITEGIC>MOL_PROPERTY
Valence
SciTegic.value.DoubleValue
4.880

@<SCITEGIC>MOL_PROPERTY
Coulomb
SciTegic.value.DoubleValue
45.095

@<SCITEGIC>MOL_PROPERTY
VdW
SciTegic.value.DoubleValue
0.726

@<SCITEGIC>MOL_PROPERTY
VdW6
SciTegic.value.DoubleValue
-6.620

@<SCITEGIC>MOL_PROPERTY
VdW12
SciTegic.value.DoubleValue
7.346

@<SCITEGIC>MOL_PROPERTY
Bond
SciTegic.value.DoubleValue
0.222

@<SCITEGIC>MOL_PROPERTY
Angle
SciTegic.value.DoubleValue
1.260

@<SCITEGIC>MOL_PROPERTY
Pdih
SciTegic.value.DoubleValue
3.398

@<SCITEGIC>MOL_PROPERTY
Idih
SciTegic.value.DoubleValue
0.000

@<SCITEGIC>MOL_PROPERTY
Tether
SciTegic.value.DoubleValue
0.000

@<TRIPOS>MOLECULE
guest-2_confgen4.mol2 : confsearch ligand conformer 950
          23          22           1
SMALL
USER_CHARGES
 
@<TRIPOS>ATOM
       1    N1      20.607216   21.852495   22.435045 N.4        1 MOL1        -0.5940
       2    H1      21.618968   21.990198   22.524208 H          1 MOL1         0.3649
       3    H2      20.192332   22.776672   22.275037 H          1 MOL1         0.3649
       4    H3      20.449790   21.300944   21.586159 H          1 MOL1         0.3649
       5    C1      20.021074   21.175885   23.658536 C.3        1 MOL1         0.0207
       6    H4      18.941507   21.087611   23.512820 H          1 MOL1         0.0950
       7    H5      20.193923   21.831754   24.516140 H          1 MOL1         0.0950
       8    C2      20.625245   19.786473   23.947998 C.3        1 MOL1        -0.1415
       9    H6      21.700157   19.897439   24.143076 H          1 MOL1         0.0976
      10    H7      20.185153   19.397291   24.875745 H          1 MOL1         0.0976
      11    C3      20.416210   18.753767   22.811569 C.3        1 MOL1        -0.1375
      12    H8      20.917438   17.821744   23.103078 H          1 MOL1         0.0976
      13    H9      20.917704   19.097255   21.897092 H          1 MOL1         0.0976
      14    C4      18.922116   18.467475   22.514675 C.3        1 MOL1        -0.1375
      15    H10     18.428284   18.097567   23.423777 H          1 MOL1         0.0976
      16    H11     18.414417   19.403254   22.246507 H          1 MOL1         0.0976
      17    C5      18.705737   17.456650   21.362347 C.3        1 MOL1        -0.1350
      18    H12     19.188473   17.826737   20.447073 H          1 MOL1         0.0976
      19    H13     17.630684   17.400648   21.141014 H          1 MOL1         0.0976
      20    C6      19.220608   16.035057   21.683795 C.3        1 MOL1        -0.2365
      21    H14     18.777558   15.655318   22.613586 H          1 MOL1         0.0987
      22    H15     20.312279   16.014839   21.789115 H          1 MOL1         0.0987
      23    H16     18.955084   15.339294   20.877355 H          1 MOL1         0.0987
@<TRIPOS>BOND
    1     1     2    1
    2     1     3    1
    3     1     4    1
    4     1     5    1
    5     5     6    1
    6     5     7    1
    7     5     8    1
    8     8     9    1
    9     8    10    1
   10     8    11    1
   11    11    12    1
   12    11    13    1
   13    11    14    1
   14    14    15    1
   15    14    16    1
   16    14    17    1
   17    17    18    1
   18    17    19    1
   19    17    20    1
   20    20    21    1
   21    20    22    1
   22    20    23    1
@<TRIPOS>SUBSTRUCTURE
       1 MOL1            1 RESIDUE      1      MOL     
@<SCITEGIC>MOL_PROPERTY
VConf Rank
SciTegic.value.IntegerValue
950

@<SCITEGIC>MOL_PROPERTY
Conf_Id
SciTegic.value.IntegerValue
83

@<SCITEGIC>MOL_PROPERTY
Delta U+W
SciTegic.value.DoubleValue
1.229

@<SCITEGIC>MOL_PROPERTY
U+W
SciTegic.value.DoubleValue
-7.154

@<SCITEGIC>MOL_PROPERTY
Grad RMS
SciTegic.value.DoubleValue
0.000000

@<SCITEGIC>MOL_PROPERTY
U
SciTegic.value.DoubleValue
48.727

@<SCITEGIC>MOL_PROPERTY
W
SciTegic.value.DoubleValue
-55.880

@<SCITEGIC>MOL_PROPERTY
W(PB)
SciTegic.value.DoubleValue
-57.960

@<SCITEGIC>MOL_PROPERTY
W(SA)
SciTegic.value.DoubleValue
2.080

@<SCITEGIC>MOL_PROPERTY
Valence
SciTegic.value.DoubleValue
2.671

@<SCITEGIC>MOL_PROPERTY
Coulomb
SciTegic.value.DoubleValue
45.371

@<SCITEGIC>MOL_PROPERTY
VdW
SciTegic.value.DoubleValue
0.684

@<SCITEGIC>MOL_PROPERTY
VdW6
SciTegic.value.DoubleValue
-6.511

@<SCITEGIC>MOL_PROPERTY
VdW12
SciTegic.value.DoubleValue
7.195

@<SCITEGIC>MOL_PROPERTY
Bond
SciTegic.value.DoubleValue
0.203

@<SCITEGIC>MOL_PROPERTY
Angle
SciTegic.value.DoubleValue
0.915

@<SCITEGIC>MOL_PROPERTY
Pdih
SciTegic.value.DoubleValue
1.554

@<SCITEGIC>MOL_PROPERTY
Idih
SciTegic.value.DoubleValue
0.000

@<SCITEGIC>MOL_PROPERTY
Tether
SciTegic.value.DoubleValue
0.000

@<TRIPOS>MOLECULE
guest-2_confgen4.mol2 : confsearch ligand conformer 951
          23          22           1
SMALL
USER_CHARGES
 
@<TRIPOS>ATOM
       1    N1      21.010112   18.840494   19.981934 N.4        1 MOL1        -0.5940
       2    H1      21.826958   18.221397   19.976076 H          1 MOL1         0.3649
       3    H2      21.218584   19.611696   20.623329 H          1 MOL1         0.3649
       4    H3      20.932949   19.243079   19.041825 H          1 MOL1         0.3649
       5    C1      19.747957   18.103563   20.384664 C.3        1 MOL1         0.0207
       6    H4      19.568149   17.321480   19.642005 H          1 MOL1         0.0950
       7    H5      18.914535   18.809235   20.340803 H          1 MOL1         0.0950
       8    C2      19.822005   17.468011   21.788184 C.3        1 MOL1        -0.1415
       9    H6      18.892823   16.912713   21.972913 H          1 MOL1         0.0976
      10    H7      20.629925   16.724452   21.801952 H          1 MOL1         0.0976
      11    C3      20.044898   18.485876   22.935319 C.3        1 MOL1        -0.1375
      12    H8      21.008933   18.994435   22.802078 H          1 MOL1         0.0976
      13    H9      20.122535   17.925787   23.876142 H          1 MOL1         0.0976
      14    C4      18.909606   19.534961   23.049180 C.3        1 MOL1        -0.1375
      15    H10     18.815010   20.079151   22.100358 H          1 MOL1         0.0976
      16    H11     17.949551   19.025524   23.210236 H          1 MOL1         0.0976
      17    C5      19.139202   20.571214   24.176082 C.3        1 MOL1        -0.1350
      18    H12     18.355949   21.339518   24.112150 H          1 MOL1         0.0976
      19    H13     20.093432   21.091774   24.014249 H          1 MOL1         0.0976
      20    C6      19.116004   19.956140   25.593999 C.3        1 MOL1        -0.2365
      21    H14     18.184973   19.401491   25.768798 H          1 MOL1         0.0987
      22    H15     19.184785   20.744013   26.355222 H          1 MOL1         0.0987
      23    H16     19.959063   19.272311   25.751708 H          1 MOL1         0.0987
@<TRIPOS>BOND
    1     1     2    1
    2     1     3    1
    3     1     4    1
    4     1     5    1
    5     5     6    1
    6     5     7    1
    7     5     8    1
    8     8     9    1
    9     8    10    1
   10     8    11    1
   11    11    12    1
   12    11    13    1
   13    11    14    1
   14    14    15    1
   15    14    16    1
   16    14    17    1
   17    17    18    1
   18    17    19    1
   19    17    20    1
   20    20    21    1
   21    20    22    1
   22    20    23    1
@<TRIPOS>SUBSTRUCTURE
       1 MOL1            1 RESIDUE      1      MOL     
@<SCITEGIC>MOL_PROPERTY
VConf Rank
SciTegic.value.IntegerValue
951

@<SCITEGIC>MOL_PROPERTY
Conf_Id
SciTegic.value.IntegerValue
50

@<SCITEGIC>MOL_PROPERTY
Delta U+W
SciTegic.value.DoubleValue
1.252

@<SCITEGIC>MOL_PROPERTY
U+W
SciTegic.value.DoubleValue
-7.130

@<SCITEGIC>MOL_PROPERTY
Grad RMS
SciTegic.value.DoubleValue
0.000000

@<SCITEGIC>MOL_PROPERTY
U
SciTegic.value.DoubleValue
48.727

@<SCITEGIC>MOL_PROPERTY
W
SciTegic.value.DoubleValue
-55.857

@<SCITEGIC>MOL_PROPERTY
W(PB)
SciTegic.value.DoubleValue
-57.937

@<SCITEGIC>MOL_PROPERTY
W(SA)
SciTegic.value.DoubleValue
2.080

@<SCITEGIC>MOL_PROPERTY
Valence
SciTegic.value.DoubleValue
2.671

@<SCITEGIC>MOL_PROPERTY
Coulomb
SciTegic.value.DoubleValue
45.371

@<SCITEGIC>MOL_PROPERTY
VdW
SciTegic.value.DoubleValue
0.684

@<SCITEGIC>MOL_PROPERTY
VdW6
SciTegic.value.DoubleValue
-6.511

@<SCITEGIC>MOL_PROPERTY
VdW12
SciTegic.value.DoubleValue
7.196

@<SCITEGIC>MOL_PROPERTY
Bond
SciTegic.value.DoubleValue
0.203

@<SCITEGIC>MOL_PROPERTY
Angle
SciTegic.value.DoubleValue
0.915

@<SCITEGIC>MOL_PROPERTY
Pdih
SciTegic.value.DoubleValue
1.554

@<SCITEGIC>MOL_PROPERTY
Idih
SciTegic.value.DoubleValue
0.000

@<SCITEGIC>MOL_PROPERTY
Tether
SciTegic.value.DoubleValue
0.000

@<TRIPOS>MOLECULE
guest-2_confgen4.mol2 : confsearch ligand conformer 952
          23          22           1
SMALL
USER_CHARGES
 
@<TRIPOS>ATOM
       1    N1      19.508978   20.031612   25.644078 N.4        1 MOL1        -0.5940
       2    H1      20.478381   19.702219   25.608136 H          1 MOL1         0.3649
       3    H2      19.156434   19.823041   26.584365 H          1 MOL1         0.3649
       4    H3      19.531984   21.052325   25.553305 H          1 MOL1         0.3649
       5    C1      18.655851   19.388890   24.567825 C.3        1 MOL1         0.0207
       6    H4      17.633025   19.754358   24.693659 H          1 MOL1         0.0950
       7    H5      18.654398   18.308552   24.735993 H          1 MOL1         0.0950
       8    C2      19.132488   19.689446   23.133516 C.3        1 MOL1        -0.1415
       9    H6      18.395867   19.277998   22.434399 H          1 MOL1         0.0976
      10    H7      19.137152   20.775460   22.971285 H          1 MOL1         0.0976
      11    C3      20.537904   19.106786   22.836883 C.3        1 MOL1        -0.1375
      12    H8      20.569268   18.037329   23.087152 H          1 MOL1         0.0976
      13    H9      21.264986   19.595962   23.498735 H          1 MOL1         0.0976
      14    C4      20.996757   19.323150   21.371024 C.3        1 MOL1        -0.1375
      15    H10     20.545695   20.237161   20.960757 H          1 MOL1         0.0976
      16    H11     22.080518   19.504644   21.374847 H          1 MOL1         0.0976
      17    C5      20.728938   18.125042   20.424441 C.3        1 MOL1        -0.1350
      18    H12     21.268409   17.239768   20.789179 H          1 MOL1         0.0976
      19    H13     21.157006   18.356912   19.439146 H          1 MOL1         0.0976
      20    C6      19.235163   17.776411   20.245207 C.3        1 MOL1        -0.2365
      21    H14     18.656907   18.656964   19.936853 H          1 MOL1         0.0987
      22    H15     18.803853   17.381270   21.173167 H          1 MOL1         0.0987
      23    H16     19.111276   17.006349   19.472844 H          1 MOL1         0.0987
@<TRIPOS>BOND
    1     1     2    1
    2     1     3    1
    3     1     4    1
    4     1     5    1
    5     5     6    1
    6     5     7    1
    7     5     8    1
    8     8     9    1
    9     8    10    1
   10     8    11    1
   11    11    12    1
   12    11    13    1
   13    11    14    1
   14    14    15    1
   15    14    16    1
   16    14    17    1
   17    17    18    1
   18    17    19    1
   19    17    20    1
   20    20    21    1
   21    20    22    1
   22    20    23    1
@<TRIPOS>SUBSTRUCTURE
       1 MOL1            1 RESIDUE      1      MOL     
@<SCITEGIC>MOL_PROPERTY
VConf Rank
SciTegic.value.IntegerValue
952

@<SCITEGIC>MOL_PROPERTY
Conf_Id
SciTegic.value.IntegerValue
55

@<SCITEGIC>MOL_PROPERTY
Delta U+W
SciTegic.value.DoubleValue
3.232

@<SCITEGIC>MOL_PROPERTY
U+W
SciTegic.value.DoubleValue
-5.150

@<SCITEGIC>MOL_PROPERTY
Grad RMS
SciTegic.value.DoubleValue
0.000000

@<SCITEGIC>MOL_PROPERTY
U
SciTegic.value.DoubleValue
50.625

@<SCITEGIC>MOL_PROPERTY
W
SciTegic.value.DoubleValue
-55.776

@<SCITEGIC>MOL_PROPERTY
W(PB)
SciTegic.value.DoubleValue
-57.839

@<SCITEGIC>MOL_PROPERTY
W(SA)
SciTegic.value.DoubleValue
2.064

@<SCITEGIC>MOL_PROPERTY
Valence
SciTegic.value.DoubleValue
4.837

@<SCITEGIC>MOL_PROPERTY
Coulomb
SciTegic.value.DoubleValue
45.097

@<SCITEGIC>MOL_PROPERTY
VdW
SciTegic.value.DoubleValue
0.692

@<SCITEGIC>MOL_PROPERTY
VdW6
SciTegic.value.DoubleValue
-6.655

@<SCITEGIC>MOL_PROPERTY
VdW12
SciTegic.value.DoubleValue
7.347

@<SCITEGIC>MOL_PROPERTY
Bond
SciTegic.value.DoubleValue
0.223

@<SCITEGIC>MOL_PROPERTY
Angle
SciTegic.value.DoubleValue
1.167

@<SCITEGIC>MOL_PROPERTY
Pdih
SciTegic.value.DoubleValue
3.447

@<SCITEGIC>MOL_PROPERTY
Idih
SciTegic.value.DoubleValue
0.000

@<SCITEGIC>MOL_PROPERTY
Tether
SciTegic.value.DoubleValue
0.000

@<TRIPOS>MOLECULE
guest-2_confgen4.mol2 : confsearch ligand conformer 953
          23          22           1
SMALL
USER_CHARGES
 
@<TRIPOS>ATOM
       1    N1      17.944848   16.694515   23.496350 N.4        1 MOL1        -0.5940
       2    H1      17.719384   15.906765   22.880359 H          1 MOL1         0.3649
       3    H2      17.103900   16.889303   24.050301 H          1 MOL1         0.3649
       4    H3      18.663997   16.369282   24.150418 H          1 MOL1         0.3649
       5    C1      18.398932   17.910720   22.715132 C.3        1 MOL1         0.0207
       6    H4      18.584927   18.715114   23.429062 H          1 MOL1         0.0950
       7    H5      17.576638   18.217425   22.063086 H          1 MOL1         0.0950
       8    C2      19.658198   17.645993   21.866631 C.3        1 MOL1        -0.1415
       9    H6      20.480330   17.292088   22.502801 H          1 MOL1         0.0976
      10    H7      19.432558   16.828750   21.168621 H          1 MOL1         0.0976
      11    C3      20.111259   18.881684   21.048542 C.3        1 MOL1        -0.1375
      12    H8      19.233992   19.430158   20.678160 H          1 MOL1         0.0976
      13    H9      20.637461   18.523832   20.152690 H          1 MOL1         0.0976
      14    C4      21.066888   19.847310   21.796747 C.3        1 MOL1        -0.1375
      15    H10     21.986832   19.312502   22.070563 H          1 MOL1         0.0976
      16    H11     21.371403   20.637199   21.096185 H          1 MOL1         0.0976
      17    C5      20.460881   20.503980   23.058509 C.3        1 MOL1        -0.1350
      18    H12     20.295118   19.743703   23.832729 H          1 MOL1         0.0976
      19    H13     19.482929   20.943876   22.818136 H          1 MOL1         0.0976
      20    C6      21.387154   21.597694   23.631648 C.3        1 MOL1        -0.2365
      21    H14     21.549054   22.401384   22.901521 H          1 MOL1         0.0987
      22    H15     22.365742   21.182206   23.905484 H          1 MOL1         0.0987
      23    H16     20.947213   22.045306   24.532274 H          1 MOL1         0.0987
@<TRIPOS>BOND
    1     1     2    1
    2     1     3    1
    3     1     4    1
    4     1     5    1
    5     5     6    1
    6     5     7    1
    7     5     8    1
    8     8     9    1
    9     8    10    1
   10     8    11    1
   11    11    12    1
   12    11    13    1
   13    11    14    1
   14    14    15    1
   15    14    16    1
   16    14    17    1
   17    17    18    1
   18    17    19    1
   19    17    20    1
   20    20    21    1
   21    20    22    1
   22    20    23    1
@<TRIPOS>SUBSTRUCTURE
       1 MOL1            1 RESIDUE      1      MOL     
@<SCITEGIC>MOL_PROPERTY
VConf Rank
SciTegic.value.IntegerValue
953

@<SCITEGIC>MOL_PROPERTY
Conf_Id
SciTegic.value.IntegerValue
93

@<SCITEGIC>MOL_PROPERTY
Delta U+W
SciTegic.value.DoubleValue
2.589

@<SCITEGIC>MOL_PROPERTY
U+W
SciTegic.value.DoubleValue
-5.793

@<SCITEGIC>MOL_PROPERTY
Grad RMS
SciTegic.value.DoubleValue
0.000000

@<SCITEGIC>MOL_PROPERTY
U
SciTegic.value.DoubleValue
50.122

@<SCITEGIC>MOL_PROPERTY
W
SciTegic.value.DoubleValue
-55.915

@<SCITEGIC>MOL_PROPERTY
W(PB)
SciTegic.value.DoubleValue
-58.031

@<SCITEGIC>MOL_PROPERTY
W(SA)
SciTegic.value.DoubleValue
2.115

@<SCITEGIC>MOL_PROPERTY
Valence
SciTegic.value.DoubleValue
4.132

@<SCITEGIC>MOL_PROPERTY
Coulomb
SciTegic.value.DoubleValue
45.536

@<SCITEGIC>MOL_PROPERTY
VdW
SciTegic.value.DoubleValue
0.454

@<SCITEGIC>MOL_PROPERTY
VdW6
SciTegic.value.DoubleValue
-6.262

@<SCITEGIC>MOL_PROPERTY
VdW12
SciTegic.value.DoubleValue
6.715

@<SCITEGIC>MOL_PROPERTY
Bond
SciTegic.value.DoubleValue
0.182

@<SCITEGIC>MOL_PROPERTY
Angle
SciTegic.value.DoubleValue
1.157

@<SCITEGIC>MOL_PROPERTY
Pdih
SciTegic.value.DoubleValue
2.794

@<SCITEGIC>MOL_PROPERTY
Idih
SciTegic.value.DoubleValue
0.000

@<SCITEGIC>MOL_PROPERTY
Tether
SciTegic.value.DoubleValue
0.000

@<TRIPOS>MOLECULE
guest-2_confgen4.mol2 : confsearch ligand conformer 954
          23          22           1
SMALL
USER_CHARGES
 
@<TRIPOS>ATOM
       1    N1      20.070236   20.461901   25.327861 N.4        1 MOL1        -0.5940
       2    H1      20.304660   21.319622   24.817845 H          1 MOL1         0.3649
       3    H2      20.866754   20.250847   25.938611 H          1 MOL1         0.3649
       4    H3      19.277048   20.681908   25.938826 H          1 MOL1         0.3649
       5    C1      19.759535   19.313068   24.390155 C.3        1 MOL1         0.0207
       6    H4      19.548353   18.429982   24.999221 H          1 MOL1         0.0950
       7    H5      20.655645   19.112750   23.800071 H          1 MOL1         0.0950
       8    C2      18.561160   19.598774   23.463841 C.3        1 MOL1        -0.1415
       9    H6      17.684767   19.801233   24.093892 H          1 MOL1         0.0976
      10    H7      18.739354   20.510643   22.878516 H          1 MOL1         0.0976
      11    C3      18.226639   18.416291   22.519758 C.3        1 MOL1        -0.1375
      12    H8      17.154694   18.461658   22.282327 H          1 MOL1         0.0976
      13    H9      18.374195   17.462192   23.044664 H          1 MOL1         0.0976
      14    C4      19.002445   18.411447   21.176785 C.3        1 MOL1        -0.1375
      15    H10     18.630104   17.574148   20.570377 H          1 MOL1         0.0976
      16    H11     18.764523   19.324307   20.613428 H          1 MOL1         0.0976
      17    C5      20.536549   18.282450   21.319564 C.3        1 MOL1        -0.1350
      18    H12     20.781126   17.436844   21.977447 H          1 MOL1         0.0976
      19    H13     20.946071   19.187741   21.786100 H          1 MOL1         0.0976
      20    C6      21.220627   18.080479   19.950650 C.3        1 MOL1        -0.2365
      21    H14     22.309116   18.001899   20.069168 H          1 MOL1         0.0987
      22    H15     21.014882   18.923811   19.278557 H          1 MOL1         0.0987
      23    H16     20.868215   17.161608   19.464136 H          1 MOL1         0.0987
@<TRIPOS>BOND
    1     1     2    1
    2     1     3    1
    3     1     4    1
    4     1     5    1
    5     5     6    1
    6     5     7    1
    7     5     8    1
    8     8     9    1
    9     8    10    1
   10     8    11    1
   11    11    12    1
   12    11    13    1
   13    11    14    1
   14    14    15    1
   15    14    16    1
   16    14    17    1
   17    17    18    1
   18    17    19    1
   19    17    20    1
   20    20    21    1
   21    20    22    1
   22    20    23    1
@<TRIPOS>SUBSTRUCTURE
       1 MOL1            1 RESIDUE      1      MOL     
@<SCITEGIC>MOL_PROPERTY
VConf Rank
SciTegic.value.IntegerValue
954

@<SCITEGIC>MOL_PROPERTY
Conf_Id
SciTegic.value.IntegerValue
70

@<SCITEGIC>MOL_PROPERTY
Delta U+W
SciTegic.value.DoubleValue
2.599

@<SCITEGIC>MOL_PROPERTY
U+W
SciTegic.value.DoubleValue
-5.783

@<SCITEGIC>MOL_PROPERTY
Grad RMS
SciTegic.value.DoubleValue
0.000000

@<SCITEGIC>MOL_PROPERTY
U
SciTegic.value.DoubleValue
50.122

@<SCITEGIC>MOL_PROPERTY
W
SciTegic.value.DoubleValue
-55.906

@<SCITEGIC>MOL_PROPERTY
W(PB)
SciTegic.value.DoubleValue
-58.010

@<SCITEGIC>MOL_PROPERTY
W(SA)
SciTegic.value.DoubleValue
2.105

@<SCITEGIC>MOL_PROPERTY
Valence
SciTegic.value.DoubleValue
4.132

@<SCITEGIC>MOL_PROPERTY
Coulomb
SciTegic.value.DoubleValue
45.536

@<SCITEGIC>MOL_PROPERTY
VdW
SciTegic.value.DoubleValue
0.454

@<SCITEGIC>MOL_PROPERTY
VdW6
SciTegic.value.DoubleValue
-6.262

@<SCITEGIC>MOL_PROPERTY
VdW12
SciTegic.value.DoubleValue
6.715

@<SCITEGIC>MOL_PROPERTY
Bond
SciTegic.value.DoubleValue
0.182

@<SCITEGIC>MOL_PROPERTY
Angle
SciTegic.value.DoubleValue
1.157

@<SCITEGIC>MOL_PROPERTY
Pdih
SciTegic.value.DoubleValue
2.794

@<SCITEGIC>MOL_PROPERTY
Idih
SciTegic.value.DoubleValue
0.000

@<SCITEGIC>MOL_PROPERTY
Tether
SciTegic.value.DoubleValue
0.000

@<TRIPOS>MOLECULE
guest-2_confgen4.mol2 : confsearch ligand conformer 955
          23          22           1
SMALL
USER_CHARGES
 
@<TRIPOS>ATOM
       1    N1      17.930836   20.532587   24.051812 N.4        1 MOL1        -0.5940
       2    H1      17.055060   20.167897   24.439787 H          1 MOL1         0.3649
       3    H2      17.882391   21.555169   24.112991 H          1 MOL1         0.3649
       4    H3      18.686833   20.228986   24.672908 H          1 MOL1         0.3649
       5    C1      18.154132   20.062890   22.627818 C.3        1 MOL1         0.0207
       6    H4      19.082010   20.511630   22.263646 H          1 MOL1         0.0950
       7    H5      17.330401   20.444203   22.018258 H          1 MOL1         0.0950
       8    C2      18.228028   18.529059   22.487508 C.3        1 MOL1        -0.1415
       9    H6      17.278533   18.091740   22.823552 H          1 MOL1         0.0976
      10    H7      18.314007   18.274463   21.423457 H          1 MOL1         0.0976
      11    C3      19.395653   17.879491   23.275998 C.3        1 MOL1        -0.1375
      12    H8      19.393002   16.797512   23.084903 H          1 MOL1         0.0976
      13    H9      19.211161   17.990547   24.352967 H          1 MOL1         0.0976
      14    C4      20.800843   18.447507   22.947974 C.3        1 MOL1        -0.1375
      15    H10     20.851412   19.509791   23.221628 H          1 MOL1         0.0976
      16    H11     21.537645   17.936381   23.582962 H          1 MOL1         0.0976
      17    C5      21.207859   18.271802   21.465962 C.3        1 MOL1        -0.1350
      18    H12     20.524479   18.834500   20.816116 H          1 MOL1         0.0976
      19    H13     21.121078   17.214173   21.180300 H          1 MOL1         0.0976
      20    C6      22.651754   18.754144   21.211213 C.3        1 MOL1        -0.2365
      21    H14     22.923022   18.624818   20.155418 H          1 MOL1         0.0987
      22    H15     23.370719   18.185653   21.815448 H          1 MOL1         0.0987
      23    H16     22.761957   19.817814   21.459538 H          1 MOL1         0.0987
@<TRIPOS>BOND
    1     1     2    1
    2     1     3    1
    3     1     4    1
    4     1     5    1
    5     5     6    1
    6     5     7    1
    7     5     8    1
    8     8     9    1
    9     8    10    1
   10     8    11    1
   11    11    12    1
   12    11    13    1
   13    11    14    1
   14    14    15    1
   15    14    16    1
   16    14    17    1
   17    17    18    1
   18    17    19    1
   19    17    20    1
   20    20    21    1
   21    20    22    1
   22    20    23    1
@<TRIPOS>SUBSTRUCTURE
       1 MOL1            1 RESIDUE      1      MOL     
@<SCITEGIC>MOL_PROPERTY
VConf Rank
SciTegic.value.IntegerValue
955

@<SCITEGIC>MOL_PROPERTY
Conf_Id
SciTegic.value.IntegerValue
72

@<SCITEGIC>MOL_PROPERTY
Delta U+W
SciTegic.value.DoubleValue
1.051

@<SCITEGIC>MOL_PROPERTY
U+W
SciTegic.value.DoubleValue
-7.331

@<SCITEGIC>MOL_PROPERTY
Grad RMS
SciTegic.value.DoubleValue
0.000000

@<SCITEGIC>MOL_PROPERTY
U
SciTegic.value.DoubleValue
48.590

@<SCITEGIC>MOL_PROPERTY
W
SciTegic.value.DoubleValue
-55.922

@<SCITEGIC>MOL_PROPERTY
W(PB)
SciTegic.value.DoubleValue
-58.012

@<SCITEGIC>MOL_PROPERTY
W(SA)
SciTegic.value.DoubleValue
2.090

@<SCITEGIC>MOL_PROPERTY
Valence
SciTegic.value.DoubleValue
2.601

@<SCITEGIC>MOL_PROPERTY
Coulomb
SciTegic.value.DoubleValue
45.520

@<SCITEGIC>MOL_PROPERTY
VdW
SciTegic.value.DoubleValue
0.469

@<SCITEGIC>MOL_PROPERTY
VdW6
SciTegic.value.DoubleValue
-6.867

@<SCITEGIC>MOL_PROPERTY
VdW12
SciTegic.value.DoubleValue
7.336

@<SCITEGIC>MOL_PROPERTY
Bond
SciTegic.value.DoubleValue
0.205

@<SCITEGIC>MOL_PROPERTY
Angle
SciTegic.value.DoubleValue
0.962

@<SCITEGIC>MOL_PROPERTY
Pdih
SciTegic.value.DoubleValue
1.434

@<SCITEGIC>MOL_PROPERTY
Idih
SciTegic.value.DoubleValue
0.000

@<SCITEGIC>MOL_PROPERTY
Tether
SciTegic.value.DoubleValue
0.000

@<TRIPOS>MOLECULE
guest-2_confgen4.mol2 : confsearch ligand conformer 956
          23          22           1
SMALL
USER_CHARGES
 
@<TRIPOS>ATOM
       1    N1      19.284941   17.896790   19.704261 N.4        1 MOL1        -0.5940
       2    H1      18.502395   17.358334   19.317422 H          1 MOL1         0.3649
       3    H2      20.130517   17.586119   19.215110 H          1 MOL1         0.3649
       4    H3      19.129552   18.876375   19.445555 H          1 MOL1         0.3649
       5    C1      19.402873   17.719681   21.204383 C.3        1 MOL1         0.0207
       6    H4      19.537557   16.654243   21.409452 H          1 MOL1         0.0950
       7    H5      18.460405   18.040658   21.655670 H          1 MOL1         0.0950
       8    C2      20.569814   18.516505   21.816869 C.3        1 MOL1        -0.1415
       9    H6      21.506362   18.213178   21.330453 H          1 MOL1         0.0976
      10    H7      20.442455   19.584866   21.600503 H          1 MOL1         0.0976
      11    C3      20.706184   18.297915   23.344182 C.3        1 MOL1        -0.1375
      12    H8      21.565698   18.872862   23.713804 H          1 MOL1         0.0976
      13    H9      20.953316   17.243696   23.530890 H          1 MOL1         0.0976
      14    C4      19.443310   18.663782   24.170045 C.3        1 MOL1        -0.1375
      15    H10     18.627606   17.974254   23.914155 H          1 MOL1         0.0976
      16    H11     19.656352   18.486412   25.233212 H          1 MOL1         0.0976
      17    C5      18.941479   20.119987   23.997267 C.3        1 MOL1        -0.1350
      18    H12     18.043006   20.256294   24.615212 H          1 MOL1         0.0976
      19    H13     18.621786   20.291137   22.960627 H          1 MOL1         0.0976
      20    C6      19.989230   21.181441   24.402301 C.3        1 MOL1        -0.2365
      21    H14     20.333514   21.022656   25.432444 H          1 MOL1         0.0987
      22    H15     19.558273   22.189257   24.343775 H          1 MOL1         0.0987
      23    H16     20.863539   21.156899   23.740078 H          1 MOL1         0.0987
@<TRIPOS>BOND
    1     1     2    1
    2     1     3    1
    3     1     4    1
    4     1     5    1
    5     5     6    1
    6     5     7    1
    7     5     8    1
    8     8     9    1
    9     8    10    1
   10     8    11    1
   11    11    12    1
   12    11    13    1
   13    11    14    1
   14    14    15    1
   15    14    16    1
   16    14    17    1
   17    17    18    1
   18    17    19    1
   19    17    20    1
   20    20    21    1
   21    20    22    1
   22    20    23    1
@<TRIPOS>SUBSTRUCTURE
       1 MOL1            1 RESIDUE      1      MOL     
@<SCITEGIC>MOL_PROPERTY
VConf Rank
SciTegic.value.IntegerValue
956

@<SCITEGIC>MOL_PROPERTY
Conf_Id
SciTegic.value.IntegerValue
26

@<SCITEGIC>MOL_PROPERTY
Delta U+W
SciTegic.value.DoubleValue
1.076

@<SCITEGIC>MOL_PROPERTY
U+W
SciTegic.value.DoubleValue
-7.306

@<SCITEGIC>MOL_PROPERTY
Grad RMS
SciTegic.value.DoubleValue
0.000000

@<SCITEGIC>MOL_PROPERTY
U
SciTegic.value.DoubleValue
48.641

@<SCITEGIC>MOL_PROPERTY
W
SciTegic.value.DoubleValue
-55.947

@<SCITEGIC>MOL_PROPERTY
W(PB)
SciTegic.value.DoubleValue
-58.031

@<SCITEGIC>MOL_PROPERTY
W(SA)
SciTegic.value.DoubleValue
2.084

@<SCITEGIC>MOL_PROPERTY
Valence
SciTegic.value.DoubleValue
2.922

@<SCITEGIC>MOL_PROPERTY
Coulomb
SciTegic.value.DoubleValue
45.269

@<SCITEGIC>MOL_PROPERTY
VdW
SciTegic.value.DoubleValue
0.449

@<SCITEGIC>MOL_PROPERTY
VdW6
SciTegic.value.DoubleValue
-7.045

@<SCITEGIC>MOL_PROPERTY
VdW12
SciTegic.value.DoubleValue
7.494

@<SCITEGIC>MOL_PROPERTY
Bond
SciTegic.value.DoubleValue
0.220

@<SCITEGIC>MOL_PROPERTY
Angle
SciTegic.value.DoubleValue
1.205

@<SCITEGIC>MOL_PROPERTY
Pdih
SciTegic.value.DoubleValue
1.497

@<SCITEGIC>MOL_PROPERTY
Idih
SciTegic.value.DoubleValue
0.000

@<SCITEGIC>MOL_PROPERTY
Tether
SciTegic.value.DoubleValue
0.000

@<TRIPOS>MOLECULE
guest-2_confgen4.mol2 : confsearch ligand conformer 957
          23          22           1
SMALL
USER_CHARGES
 
@<TRIPOS>ATOM
       1    N1      17.020696   20.024530   23.587628 N.4        1 MOL1        -0.5940
       2    H1      16.509673   19.381909   24.201368 H          1 MOL1         0.3649
       3    H2      16.318787   20.587862   23.095753 H          1 MOL1         0.3649
       4    H3      17.546565   20.664313   24.191616 H          1 MOL1         0.3649
       5    C1      17.925416   19.285005   22.623149 C.3        1 MOL1         0.0207
       6    H4      18.412300   20.026105   21.983893 H          1 MOL1         0.0950
       7    H5      17.299242   18.646243   21.994470 H          1 MOL1         0.0950
       8    C2      18.992099   18.428964   23.331104 C.3        1 MOL1        -0.1415
       9    H6      19.613052   19.067197   23.972593 H          1 MOL1         0.0976
      10    H7      18.493665   17.713435   23.998421 H          1 MOL1         0.0976
      11    C3      19.886436   17.646542   22.337606 C.3        1 MOL1        -0.1375
      12    H8      19.262512   16.926810   21.789867 H          1 MOL1         0.0976
      13    H9      20.607695   17.041860   22.903376 H          1 MOL1         0.0976
      14    C4      20.643403   18.528882   21.308415 C.3        1 MOL1        -0.1375
      15    H10     21.254542   17.876322   20.669791 H          1 MOL1         0.0976
      16    H11     19.919263   19.006058   20.634450 H          1 MOL1         0.0976
      17    C5      21.554092   19.622992   21.921434 C.3        1 MOL1        -0.1350
      18    H12     20.950311   20.350753   22.479943 H          1 MOL1         0.0976
      19    H13     22.023351   20.186812   21.103146 H          1 MOL1         0.0976
      20    C6      22.664180   19.055483   22.834755 C.3        1 MOL1        -0.2365
      21    H14     22.244428   18.575627   23.727563 H          1 MOL1         0.0987
      22    H15     23.331380   19.858477   23.173704 H          1 MOL1         0.0987
      23    H16     23.273888   18.315085   22.300894 H          1 MOL1         0.0987
@<TRIPOS>BOND
    1     1     2    1
    2     1     3    1
    3     1     4    1
    4     1     5    1
    5     5     6    1
    6     5     7    1
    7     5     8    1
    8     8     9    1
    9     8    10    1
   10     8    11    1
   11    11    12    1
   12    11    13    1
   13    11    14    1
   14    14    15    1
   15    14    16    1
   16    14    17    1
   17    17    18    1
   18    17    19    1
   19    17    20    1
   20    20    21    1
   21    20    22    1
   22    20    23    1
@<TRIPOS>SUBSTRUCTURE
       1 MOL1            1 RESIDUE      1      MOL     
@<SCITEGIC>MOL_PROPERTY
VConf Rank
SciTegic.value.IntegerValue
957

@<SCITEGIC>MOL_PROPERTY
Conf_Id
SciTegic.value.IntegerValue
90

@<SCITEGIC>MOL_PROPERTY
Delta U+W
SciTegic.value.DoubleValue
1.131

@<SCITEGIC>MOL_PROPERTY
U+W
SciTegic.value.DoubleValue
-7.251

@<SCITEGIC>MOL_PROPERTY
Grad RMS
SciTegic.value.DoubleValue
0.000000

@<SCITEGIC>MOL_PROPERTY
U
SciTegic.value.DoubleValue
48.641

@<SCITEGIC>MOL_PROPERTY
W
SciTegic.value.DoubleValue
-55.892

@<SCITEGIC>MOL_PROPERTY
W(PB)
SciTegic.value.DoubleValue
-57.962

@<SCITEGIC>MOL_PROPERTY
W(SA)
SciTegic.value.DoubleValue
2.070

@<SCITEGIC>MOL_PROPERTY
Valence
SciTegic.value.DoubleValue
2.922

@<SCITEGIC>MOL_PROPERTY
Coulomb
SciTegic.value.DoubleValue
45.269

@<SCITEGIC>MOL_PROPERTY
VdW
SciTegic.value.DoubleValue
0.450

@<SCITEGIC>MOL_PROPERTY
VdW6
SciTegic.value.DoubleValue
-7.045

@<SCITEGIC>MOL_PROPERTY
VdW12
SciTegic.value.DoubleValue
7.495

@<SCITEGIC>MOL_PROPERTY
Bond
SciTegic.value.DoubleValue
0.220

@<SCITEGIC>MOL_PROPERTY
Angle
SciTegic.value.DoubleValue
1.205

@<SCITEGIC>MOL_PROPERTY
Pdih
SciTegic.value.DoubleValue
1.497

@<SCITEGIC>MOL_PROPERTY
Idih
SciTegic.value.DoubleValue
0.000

@<SCITEGIC>MOL_PROPERTY
Tether
SciTegic.value.DoubleValue
0.000

@<TRIPOS>MOLECULE
guest-2_confgen4.mol2 : confsearch ligand conformer 958
          23          22           1
SMALL
USER_CHARGES
 
@<TRIPOS>ATOM
       1    N1      22.370143   18.690928   21.987964 N.4        1 MOL1        -0.5940
       2    H1      23.129732   19.314225   21.694065 H          1 MOL1         0.3649
       3    H2      21.598362   18.824279   21.327514 H          1 MOL1         0.3649
       4    H3      22.708562   17.730666   21.869884 H          1 MOL1         0.3649
       5    C1      21.937826   18.963851   23.415203 C.3        1 MOL1         0.0207
       6    H4      21.619474   20.007535   23.479187 H          1 MOL1         0.0950
       7    H5      22.812864   18.836512   24.058330 H          1 MOL1         0.0950
       8    C2      20.803339   18.041501   23.906221 C.3        1 MOL1        -0.1415
       9    H6      21.150650   17.000063   23.882286 H          1 MOL1         0.0976
      10    H7      20.594960   18.270046   24.959876 H          1 MOL1         0.0976
      11    C3      19.493401   18.163965   23.087902 C.3        1 MOL1        -0.1375
      12    H8      18.755804   17.462271   23.501044 H          1 MOL1         0.0976
      13    H9      19.675908   17.842616   22.054688 H          1 MOL1         0.0976
      14    C4      18.898592   19.594827   23.105486 C.3        1 MOL1        -0.1375
      15    H10     18.803294   19.930389   24.147399 H          1 MOL1         0.0976
      16    H11     19.586138   20.297213   22.615726 H          1 MOL1         0.0976
      17    C5      17.509649   19.690186   22.429367 C.3        1 MOL1        -0.1350
      18    H12     17.113822   20.704598   22.578111 H          1 MOL1         0.0976
      19    H13     16.805418   19.009668   22.928100 H          1 MOL1         0.0976
      20    C6      17.542777   19.385598   20.914354 C.3        1 MOL1        -0.2365
      21    H14     18.259734   20.035582   20.396251 H          1 MOL1         0.0987
      22    H15     16.554371   19.553622   20.467411 H          1 MOL1         0.0987
      23    H16     17.819427   18.342264   20.718577 H          1 MOL1         0.0987
@<TRIPOS>BOND
    1     1     2    1
    2     1     3    1
    3     1     4    1
    4     1     5    1
    5     5     6    1
    6     5     7    1
    7     5     8    1
    8     8     9    1
    9     8    10    1
   10     8    11    1
   11    11    12    1
   12    11    13    1
   13    11    14    1
   14    14    15    1
   15    14    16    1
   16    14    17    1
   17    17    18    1
   18    17    19    1
   19    17    20    1
   20    20    21    1
   21    20    22    1
   22    20    23    1
@<TRIPOS>SUBSTRUCTURE
       1 MOL1            1 RESIDUE      1      MOL     
@<SCITEGIC>MOL_PROPERTY
VConf Rank
SciTegic.value.IntegerValue
958

@<SCITEGIC>MOL_PROPERTY
Conf_Id
SciTegic.value.IntegerValue
85

@<SCITEGIC>MOL_PROPERTY
Delta U+W
SciTegic.value.DoubleValue
1.193

@<SCITEGIC>MOL_PROPERTY
U+W
SciTegic.value.DoubleValue
-7.189

@<SCITEGIC>MOL_PROPERTY
Grad RMS
SciTegic.value.DoubleValue
0.000000

@<SCITEGIC>MOL_PROPERTY
U
SciTegic.value.DoubleValue
48.775

@<SCITEGIC>MOL_PROPERTY
W
SciTegic.value.DoubleValue
-55.965

@<SCITEGIC>MOL_PROPERTY
W(PB)
SciTegic.value.DoubleValue
-58.038

@<SCITEGIC>MOL_PROPERTY
W(SA)
SciTegic.value.DoubleValue
2.073

@<SCITEGIC>MOL_PROPERTY
Valence
SciTegic.value.DoubleValue
2.602

@<SCITEGIC>MOL_PROPERTY
Coulomb
SciTegic.value.DoubleValue
45.581

@<SCITEGIC>MOL_PROPERTY
VdW
SciTegic.value.DoubleValue
0.592

@<SCITEGIC>MOL_PROPERTY
VdW6
SciTegic.value.DoubleValue
-6.616

@<SCITEGIC>MOL_PROPERTY
VdW12
SciTegic.value.DoubleValue
7.208

@<SCITEGIC>MOL_PROPERTY
Bond
SciTegic.value.DoubleValue
0.196

@<SCITEGIC>MOL_PROPERTY
Angle
SciTegic.value.DoubleValue
0.832

@<SCITEGIC>MOL_PROPERTY
Pdih
SciTegic.value.DoubleValue
1.574

@<SCITEGIC>MOL_PROPERTY
Idih
SciTegic.value.DoubleValue
0.000

@<SCITEGIC>MOL_PROPERTY
Tether
SciTegic.value.DoubleValue
0.000

@<TRIPOS>MOLECULE
guest-2_confgen4.mol2 : confsearch ligand conformer 959
          23          22           1
SMALL
USER_CHARGES
 
@<TRIPOS>ATOM
       1    N1      21.604578   19.290451   23.347668 N.4        1 MOL1        -0.5940
       2    H1      21.210113   19.210720   22.404954 H          1 MOL1         0.3649
       3    H2      22.464554   18.731639   23.369428 H          1 MOL1         0.3649
       4    H3      21.880585   20.268581   23.482193 H          1 MOL1         0.3649
       5    C1      20.612245   18.837768   24.401241 C.3        1 MOL1         0.0207
       6    H4      21.102181   18.953241   25.371880 H          1 MOL1         0.0950
       7    H5      20.402518   17.775356   24.251497 H          1 MOL1         0.0950
       8    C2      19.293166   19.636976   24.405030 C.3        1 MOL1        -0.1415
       9    H6      18.838391   19.525562   25.398311 H          1 MOL1         0.0976
      10    H7      19.507979   20.708116   24.293736 H          1 MOL1         0.0976
      11    C3      18.244660   19.189663   23.351154 C.3        1 MOL1        -0.1375
      12    H8      17.344281   19.800786   23.503964 H          1 MOL1         0.0976
      13    H9      17.933261   18.154397   23.547941 H          1 MOL1         0.0976
      14    C4      18.683575   19.343446   21.872315 C.3        1 MOL1        -0.1375
      15    H10     17.808155   19.639565   21.277594 H          1 MOL1         0.0976
      16    H11     19.400528   20.169240   21.773481 H          1 MOL1         0.0976
      17    C5      19.249810   18.036432   21.265525 C.3        1 MOL1        -0.1350
      18    H12     18.452991   17.280311   21.226863 H          1 MOL1         0.0976
      19    H13     20.036429   17.613503   21.901637 H          1 MOL1         0.0976
      20    C6      19.804545   18.261184   19.842998 C.3        1 MOL1        -0.2365
      21    H14     19.021933   18.634946   19.169805 H          1 MOL1         0.0987
      22    H15     20.187504   17.321711   19.423580 H          1 MOL1         0.0987
      23    H16     20.626825   18.988241   19.846098 H          1 MOL1         0.0987
@<TRIPOS>BOND
    1     1     2    1
    2     1     3    1
    3     1     4    1
    4     1     5    1
    5     5     6    1
    6     5     7    1
    7     5     8    1
    8     8     9    1
    9     8    10    1
   10     8    11    1
   11    11    12    1
   12    11    13    1
   13    11    14    1
   14    14    15    1
   15    14    16    1
   16    14    17    1
   17    17    18    1
   18    17    19    1
   19    17    20    1
   20    20    21    1
   21    20    22    1
   22    20    23    1
@<TRIPOS>SUBSTRUCTURE
       1 MOL1            1 RESIDUE      1      MOL     
@<SCITEGIC>MOL_PROPERTY
VConf Rank
SciTegic.value.IntegerValue
959

@<SCITEGIC>MOL_PROPERTY
Conf_Id
SciTegic.value.IntegerValue
82

@<SCITEGIC>MOL_PROPERTY
Delta U+W
SciTegic.value.DoubleValue
5.994

@<SCITEGIC>MOL_PROPERTY
U+W
SciTegic.value.DoubleValue
-2.388

@<SCITEGIC>MOL_PROPERTY
Grad RMS
SciTegic.value.DoubleValue
0.000000

@<SCITEGIC>MOL_PROPERTY
U
SciTegic.value.DoubleValue
52.836

@<SCITEGIC>MOL_PROPERTY
W
SciTegic.value.DoubleValue
-55.224

@<SCITEGIC>MOL_PROPERTY
W(PB)
SciTegic.value.DoubleValue
-57.261

@<SCITEGIC>MOL_PROPERTY
W(SA)
SciTegic.value.DoubleValue
2.037

@<SCITEGIC>MOL_PROPERTY
Valence
SciTegic.value.DoubleValue
5.785

@<SCITEGIC>MOL_PROPERTY
Coulomb
SciTegic.value.DoubleValue
46.744

@<SCITEGIC>MOL_PROPERTY
VdW
SciTegic.value.DoubleValue
0.307

@<SCITEGIC>MOL_PROPERTY
VdW6
SciTegic.value.DoubleValue
-7.672

@<SCITEGIC>MOL_PROPERTY
VdW12
SciTegic.value.DoubleValue
7.979

@<SCITEGIC>MOL_PROPERTY
Bond
SciTegic.value.DoubleValue
0.217

@<SCITEGIC>MOL_PROPERTY
Angle
SciTegic.value.DoubleValue
1.470

@<SCITEGIC>MOL_PROPERTY
Pdih
SciTegic.value.DoubleValue
4.098

@<SCITEGIC>MOL_PROPERTY
Idih
SciTegic.value.DoubleValue
0.000

@<SCITEGIC>MOL_PROPERTY
Tether
SciTegic.value.DoubleValue
0.000

@<TRIPOS>MOLECULE
guest-2_confgen4.mol2 : confsearch ligand conformer 960
          23          22           1
SMALL
USER_CHARGES
 
@<TRIPOS>ATOM
       1    N1      20.615946   20.660904   21.603814 N.4        1 MOL1        -0.5940
       2    H1      20.164380   20.949409   20.729818 H          1 MOL1         0.3649
       3    H2      21.153113   21.466470   21.942660 H          1 MOL1         0.3649
       4    H3      19.873179   20.477942   22.286087 H          1 MOL1         0.3649
       5    C1      21.495137   19.441440   21.404847 C.3        1 MOL1         0.0207
       6    H4      22.000960   19.216631   22.347572 H          1 MOL1         0.0950
       7    H5      22.255983   19.713140   20.668095 H          1 MOL1         0.0950
       8    C2      20.735344   18.194845   20.907420 C.3        1 MOL1        -0.1415
       9    H6      20.027724   18.481947   20.118294 H          1 MOL1         0.0976
      10    H7      21.464602   17.529451   20.426512 H          1 MOL1         0.0976
      11    C3      20.005656   17.380382   22.009381 C.3        1 MOL1        -0.1375
      12    H8      20.736204   16.982251   22.727198 H          1 MOL1         0.0976
      13    H9      19.559798   16.500027   21.525965 H          1 MOL1         0.0976
      14    C4      18.879583   18.138334   22.758200 C.3        1 MOL1        -0.1375
      15    H10     18.435097   18.899945   22.103903 H          1 MOL1         0.0976
      16    H11     18.069320   17.429591   22.979325 H          1 MOL1         0.0976
      17    C5      19.347915   18.757194   24.097895 C.3        1 MOL1        -0.1350
      18    H12     20.250644   19.363892   23.959038 H          1 MOL1         0.0976
      19    H13     19.628800   17.951191   24.790424 H          1 MOL1         0.0976
      20    C6      18.243640   19.619477   24.745099 C.3        1 MOL1        -0.2365
      21    H14     17.959150   20.456666   24.094756 H          1 MOL1         0.0987
      22    H15     18.588041   20.037121   25.700160 H          1 MOL1         0.0987
      23    H16     17.344226   19.022339   24.944721 H          1 MOL1         0.0987
@<TRIPOS>BOND
    1     1     2    1
    2     1     3    1
    3     1     4    1
    4     1     5    1
    5     5     6    1
    6     5     7    1
    7     5     8    1
    8     8     9    1
    9     8    10    1
   10     8    11    1
   11    11    12    1
   12    11    13    1
   13    11    14    1
   14    14    15    1
   15    14    16    1
   16    14    17    1
   17    17    18    1
   18    17    19    1
   19    17    20    1
   20    20    21    1
   21    20    22    1
   22    20    23    1
@<TRIPOS>SUBSTRUCTURE
       1 MOL1            1 RESIDUE      1      MOL     
@<SCITEGIC>MOL_PROPERTY
VConf Rank
SciTegic.value.IntegerValue
960

@<SCITEGIC>MOL_PROPERTY
Conf_Id
SciTegic.value.IntegerValue
5

@<SCITEGIC>MOL_PROPERTY
Delta U+W
SciTegic.value.DoubleValue
6.087

@<SCITEGIC>MOL_PROPERTY
U+W
SciTegic.value.DoubleValue
-2.295

@<SCITEGIC>MOL_PROPERTY
Grad RMS
SciTegic.value.DoubleValue
0.000000

@<SCITEGIC>MOL_PROPERTY
U
SciTegic.value.DoubleValue
52.836

@<SCITEGIC>MOL_PROPERTY
W
SciTegic.value.DoubleValue
-55.131

@<SCITEGIC>MOL_PROPERTY
W(PB)
SciTegic.value.DoubleValue
-57.202

@<SCITEGIC>MOL_PROPERTY
W(SA)
SciTegic.value.DoubleValue
2.071

@<SCITEGIC>MOL_PROPERTY
Valence
SciTegic.value.DoubleValue
5.785

@<SCITEGIC>MOL_PROPERTY
Coulomb
SciTegic.value.DoubleValue
46.744

@<SCITEGIC>MOL_PROPERTY
VdW
SciTegic.value.DoubleValue
0.307

@<SCITEGIC>MOL_PROPERTY
VdW6
SciTegic.value.DoubleValue
-7.672

@<SCITEGIC>MOL_PROPERTY
VdW12
SciTegic.value.DoubleValue
7.980

@<SCITEGIC>MOL_PROPERTY
Bond
SciTegic.value.DoubleValue
0.217

@<SCITEGIC>MOL_PROPERTY
Angle
SciTegic.value.DoubleValue
1.470

@<SCITEGIC>MOL_PROPERTY
Pdih
SciTegic.value.DoubleValue
4.098

@<SCITEGIC>MOL_PROPERTY
Idih
SciTegic.value.DoubleValue
0.000

@<SCITEGIC>MOL_PROPERTY
Tether
SciTegic.value.DoubleValue
0.000

@<TRIPOS>MOLECULE
guest-2_confgen4.mol2 : confsearch ligand conformer 961
          23          22           1
SMALL
USER_CHARGES
 
@<TRIPOS>ATOM
       1    N1      18.119786   19.785849   25.982892 N.4        1 MOL1        -0.5940
       2    H1      17.313985   20.293174   25.603170 H          1 MOL1         0.3649
       3    H2      18.345679   20.218141   26.885216 H          1 MOL1         0.3649
       4    H3      17.808114   18.829493   26.180698 H          1 MOL1         0.3649
       5    C1      19.301793   19.810956   25.035196 C.3        1 MOL1         0.0207
       6    H4      20.129431   19.280459   25.513823 H          1 MOL1         0.0950
       7    H5      19.598332   20.853727   24.893102 H          1 MOL1         0.0950
       8    C2      18.995178   19.169011   23.670473 C.3        1 MOL1        -0.1415
       9    H6      18.682224   18.126904   23.819377 H          1 MOL1         0.0976
      10    H7      18.152922   19.694561   23.200900 H          1 MOL1         0.0976
      11    C3      20.223725   19.214834   22.735188 C.3        1 MOL1        -0.1375
      12    H8      21.065681   18.692641   23.210821 H          1 MOL1         0.0976
      13    H9      20.536899   20.258625   22.592973 H          1 MOL1         0.0976
      14    C4      19.926884   18.572448   21.361060 C.3        1 MOL1        -0.1375
      15    H10     19.613869   17.528722   21.503079 H          1 MOL1         0.0976
      16    H11     19.085053   19.094484   20.885338 H          1 MOL1         0.0976
      17    C5      21.155743   18.618530   20.425890 C.3        1 MOL1        -0.1350
      18    H12     22.000088   18.095372   20.896379 H          1 MOL1         0.0976
      19    H13     21.471306   19.660990   20.278685 H          1 MOL1         0.0976
      20    C6      20.855548   17.976206   19.054828 C.3        1 MOL1        -0.2365
      21    H14     21.739380   18.018372   18.405130 H          1 MOL1         0.0987
      22    H15     20.036913   18.499986   18.544220 H          1 MOL1         0.0987
      23    H16     20.569798   16.922141   19.166742 H          1 MOL1         0.0987
@<TRIPOS>BOND
    1     1     2    1
    2     1     3    1
    3     1     4    1
    4     1     5    1
    5     5     6    1
    6     5     7    1
    7     5     8    1
    8     8     9    1
    9     8    10    1
   10     8    11    1
   11    11    12    1
   12    11    13    1
   13    11    14    1
   14    14    15    1
   15    14    16    1
   16    14    17    1
   17    17    18    1
   18    17    19    1
   19    17    20    1
   20    20    21    1
   21    20    22    1
   22    20    23    1
@<TRIPOS>SUBSTRUCTURE
       1 MOL1            1 RESIDUE      1      MOL     
@<SCITEGIC>MOL_PROPERTY
VConf Rank
SciTegic.value.IntegerValue
961

@<SCITEGIC>MOL_PROPERTY
Conf_Id
SciTegic.value.IntegerValue
40

@<SCITEGIC>MOL_PROPERTY
Delta U+W
SciTegic.value.DoubleValue
0.000

@<SCITEGIC>MOL_PROPERTY
U+W
SciTegic.value.DoubleValue
-8.382

@<SCITEGIC>MOL_PROPERTY
Grad RMS
SciTegic.value.DoubleValue
0.000000

@<SCITEGIC>MOL_PROPERTY
U
SciTegic.value.DoubleValue
46.604

@<SCITEGIC>MOL_PROPERTY
W
SciTegic.value.DoubleValue
-54.986

@<SCITEGIC>MOL_PROPERTY
W(PB)
SciTegic.value.DoubleValue
-57.162

@<SCITEGIC>MOL_PROPERTY
W(SA)
SciTegic.value.DoubleValue
2.176

@<SCITEGIC>MOL_PROPERTY
Valence
SciTegic.value.DoubleValue
1.727

@<SCITEGIC>MOL_PROPERTY
Coulomb
SciTegic.value.DoubleValue
44.434

@<SCITEGIC>MOL_PROPERTY
VdW
SciTegic.value.DoubleValue
0.443

@<SCITEGIC>MOL_PROPERTY
VdW6
SciTegic.value.DoubleValue
-4.623

@<SCITEGIC>MOL_PROPERTY
VdW12
SciTegic.value.DoubleValue
5.066

@<SCITEGIC>MOL_PROPERTY
Bond
SciTegic.value.DoubleValue
0.112

@<SCITEGIC>MOL_PROPERTY
Angle
SciTegic.value.DoubleValue
0.386

@<SCITEGIC>MOL_PROPERTY
Pdih
SciTegic.value.DoubleValue
1.228

@<SCITEGIC>MOL_PROPERTY
Idih
SciTegic.value.DoubleValue
0.000

@<SCITEGIC>MOL_PROPERTY
Tether
SciTegic.value.DoubleValue
0.000

@<TRIPOS>MOLECULE
guest-2_confgen4.mol2 : confsearch ligand conformer 962
          23          22           1
SMALL
USER_CHARGES
 
@<TRIPOS>ATOM
       1    N1      18.175979   17.492549   25.425348 N.4        1 MOL1        -0.5940
       2    H1      17.638424   16.671572   25.128917 H          1 MOL1         0.3649
       3    H2      17.502597   18.242779   25.611206 H          1 MOL1         0.3649
       4    H3      18.612385   17.254694   26.322568 H          1 MOL1         0.3649
       5    C1      19.204164   17.899361   24.389432 C.3        1 MOL1         0.0207
       6    H4      19.902720   17.067885   24.262631 H          1 MOL1         0.0950
       7    H5      19.756439   18.755822   24.784382 H          1 MOL1         0.0950
       8    C2      18.578982   18.262719   23.029193 C.3        1 MOL1        -0.1415
       9    H6      17.988769   17.409986   22.668024 H          1 MOL1         0.0976
      10    H7      17.878126   19.098643   23.155744 H          1 MOL1         0.0976
      11    C3      19.636581   18.627989   21.960698 C.3        1 MOL1        -0.1375
      12    H8      19.122307   18.760445   21.000001 H          1 MOL1         0.0976
      13    H9      20.330466   17.786184   21.829325 H          1 MOL1         0.0976
      14    C4      20.431627   19.912927   22.306255 C.3        1 MOL1        -0.1375
      15    H10     19.739031   20.758661   22.417003 H          1 MOL1         0.0976
      16    H11     20.925660   19.788883   23.278907 H          1 MOL1         0.0976
      17    C5      21.514905   20.267320   21.258667 C.3        1 MOL1        -0.1350
      18    H12     22.216969   19.428639   21.151339 H          1 MOL1         0.0976
      19    H13     22.104617   21.114774   21.635411 H          1 MOL1         0.0976
      20    C6      20.936145   20.641829   19.875131 C.3        1 MOL1        -0.2365
      21    H14     20.442999   19.785889   19.398235 H          1 MOL1         0.0987
      22    H15     21.736205   20.977088   19.202485 H          1 MOL1         0.0987
      23    H16     20.205897   21.457037   19.959896 H          1 MOL1         0.0987
@<TRIPOS>BOND
    1     1     2    1
    2     1     3    1
    3     1     4    1
    4     1     5    1
    5     5     6    1
    6     5     7    1
    7     5     8    1
    8     8     9    1
    9     8    10    1
   10     8    11    1
   11    11    12    1
   12    11    13    1
   13    11    14    1
   14    14    15    1
   15    14    16    1
   16    14    17    1
   17    17    18    1
   18    17    19    1
   19    17    20    1
   20    20    21    1
   21    20    22    1
   22    20    23    1
@<TRIPOS>SUBSTRUCTURE
       1 MOL1            1 RESIDUE      1      MOL     
@<SCITEGIC>MOL_PROPERTY
VConf Rank
SciTegic.value.IntegerValue
962

@<SCITEGIC>MOL_PROPERTY
Conf_Id
SciTegic.value.IntegerValue
65

@<SCITEGIC>MOL_PROPERTY
Delta U+W
SciTegic.value.DoubleValue
1.004

@<SCITEGIC>MOL_PROPERTY
U+W
SciTegic.value.DoubleValue
-7.378

@<SCITEGIC>MOL_PROPERTY
Grad RMS
SciTegic.value.DoubleValue
0.000000

@<SCITEGIC>MOL_PROPERTY
U
SciTegic.value.DoubleValue
48.047

@<SCITEGIC>MOL_PROPERTY
W
SciTegic.value.DoubleValue
-55.425

@<SCITEGIC>MOL_PROPERTY
W(PB)
SciTegic.value.DoubleValue
-57.542

@<SCITEGIC>MOL_PROPERTY
W(SA)
SciTegic.value.DoubleValue
2.116

@<SCITEGIC>MOL_PROPERTY
Valence
SciTegic.value.DoubleValue
2.583

@<SCITEGIC>MOL_PROPERTY
Coulomb
SciTegic.value.DoubleValue
44.791

@<SCITEGIC>MOL_PROPERTY
VdW
SciTegic.value.DoubleValue
0.673

@<SCITEGIC>MOL_PROPERTY
VdW6
SciTegic.value.DoubleValue
-5.788

@<SCITEGIC>MOL_PROPERTY
VdW12
SciTegic.value.DoubleValue
6.462

@<SCITEGIC>MOL_PROPERTY
Bond
SciTegic.value.DoubleValue
0.177

@<SCITEGIC>MOL_PROPERTY
Angle
SciTegic.value.DoubleValue
0.787

@<SCITEGIC>MOL_PROPERTY
Pdih
SciTegic.value.DoubleValue
1.619

@<SCITEGIC>MOL_PROPERTY
Idih
SciTegic.value.DoubleValue
0.000

@<SCITEGIC>MOL_PROPERTY
Tether
SciTegic.value.DoubleValue
0.000

@<TRIPOS>MOLECULE
guest-2_confgen4.mol2 : confsearch ligand conformer 963
          23          22           1
SMALL
USER_CHARGES
 
@<TRIPOS>ATOM
       1    N1      19.810850   15.574049   21.666143 N.4        1 MOL1        -0.5940
       2    H1      19.154670   15.407118   20.896468 H          1 MOL1         0.3649
       3    H2      19.746887   14.764635   22.292869 H          1 MOL1         0.3649
       4    H3      20.754200   15.566452   21.265060 H          1 MOL1         0.3649
       5    C1      19.514682   16.871622   22.390273 C.3        1 MOL1         0.0207
       6    H4      20.229333   16.967172   23.211652 H          1 MOL1         0.0950
       7    H5      18.509707   16.799414   22.814797 H          1 MOL1         0.0950
       8    C2      19.602623   18.107233   21.474486 C.3        1 MOL1        -0.1415
       9    H6      20.612216   18.180935   21.048723 H          1 MOL1         0.0976
      10    H7      18.914180   17.975187   20.629171 H          1 MOL1         0.0976
      11    C3      19.249646   19.423619   22.206709 C.3        1 MOL1        -0.1375
      12    H8      18.235423   19.350571   22.623105 H          1 MOL1         0.0976
      13    H9      19.224292   20.232635   21.465215 H          1 MOL1         0.0976
      14    C4      20.253354   19.781413   23.332376 C.3        1 MOL1        -0.1375
      15    H10     20.296468   18.960894   24.060659 H          1 MOL1         0.0976
      16    H11     21.264075   19.874737   22.911718 H          1 MOL1         0.0976
      17    C5      19.889199   21.079992   24.092379 C.3        1 MOL1        -0.1350
      18    H12     20.577986   21.195811   24.940926 H          1 MOL1         0.0976
      19    H13     18.882856   20.988297   24.524425 H          1 MOL1         0.0976
      20    C6      19.965067   22.350315   23.214933 C.3        1 MOL1        -0.2365
      21    H14     19.205852   22.340548   22.423254 H          1 MOL1         0.0987
      22    H15     20.952203   22.447230   22.744635 H          1 MOL1         0.0987
      23    H16     19.794120   23.247773   23.823450 H          1 MOL1         0.0987
@<TRIPOS>BOND
    1     1     2    1
    2     1     3    1
    3     1     4    1
    4     1     5    1
    5     5     6    1
    6     5     7    1
    7     5     8    1
    8     8     9    1
    9     8    10    1
   10     8    11    1
   11    11    12    1
   12    11    13    1
   13    11    14    1
   14    14    15    1
   15    14    16    1
   16    14    17    1
   17    17    18    1
   18    17    19    1
   19    17    20    1
   20    20    21    1
   21    20    22    1
   22    20    23    1
@<TRIPOS>SUBSTRUCTURE
       1 MOL1            1 RESIDUE      1      MOL     
@<SCITEGIC>MOL_PROPERTY
VConf Rank
SciTegic.value.IntegerValue
963

@<SCITEGIC>MOL_PROPERTY
Conf_Id
SciTegic.value.IntegerValue
92

@<SCITEGIC>MOL_PROPERTY
Delta U+W
SciTegic.value.DoubleValue
0.973

@<SCITEGIC>MOL_PROPERTY
U+W
SciTegic.value.DoubleValue
-7.409

@<SCITEGIC>MOL_PROPERTY
Grad RMS
SciTegic.value.DoubleValue
0.000000

@<SCITEGIC>MOL_PROPERTY
U
SciTegic.value.DoubleValue
48.047

@<SCITEGIC>MOL_PROPERTY
W
SciTegic.value.DoubleValue
-55.456

@<SCITEGIC>MOL_PROPERTY
W(PB)
SciTegic.value.DoubleValue
-57.595

@<SCITEGIC>MOL_PROPERTY
W(SA)
SciTegic.value.DoubleValue
2.138

@<SCITEGIC>MOL_PROPERTY
Valence
SciTegic.value.DoubleValue
2.583

@<SCITEGIC>MOL_PROPERTY
Coulomb
SciTegic.value.DoubleValue
44.791

@<SCITEGIC>MOL_PROPERTY
VdW
SciTegic.value.DoubleValue
0.674

@<SCITEGIC>MOL_PROPERTY
VdW6
SciTegic.value.DoubleValue
-5.789

@<SCITEGIC>MOL_PROPERTY
VdW12
SciTegic.value.DoubleValue
6.462

@<SCITEGIC>MOL_PROPERTY
Bond
SciTegic.value.DoubleValue
0.177

@<SCITEGIC>MOL_PROPERTY
Angle
SciTegic.value.DoubleValue
0.787

@<SCITEGIC>MOL_PROPERTY
Pdih
SciTegic.value.DoubleValue
1.619

@<SCITEGIC>MOL_PROPERTY
Idih
SciTegic.value.DoubleValue
0.000

@<SCITEGIC>MOL_PROPERTY
Tether
SciTegic.value.DoubleValue
0.000

@<TRIPOS>MOLECULE
guest-2_confgen4.mol2 : confsearch ligand conformer 964
          23          22           1
SMALL
USER_CHARGES
 
@<TRIPOS>ATOM
       1    N1      20.676831   15.783829   21.389992 N.4        1 MOL1        -0.5940
       2    H1      21.647931   15.575349   21.133995 H          1 MOL1         0.3649
       3    H2      20.083250   15.385095   20.655468 H          1 MOL1         0.3649
       4    H3      20.478317   15.266067   22.252173 H          1 MOL1         0.3649
       5    C1      20.445852   17.271849   21.557979 C.3        1 MOL1         0.0207
       6    H4      20.702933   17.761946   20.615041 H          1 MOL1         0.0950
       7    H5      21.129767   17.631994   22.330798 H          1 MOL1         0.0950
       8    C2      18.994930   17.617644   21.942827 C.3        1 MOL1        -0.1415
       9    H6      18.315523   17.211782   21.181493 H          1 MOL1         0.0976
      10    H7      18.736520   17.124674   22.889506 H          1 MOL1         0.0976
      11    C3      18.756132   19.140933   22.067726 C.3        1 MOL1        -0.1375
      12    H8      17.686862   19.315880   22.250772 H          1 MOL1         0.0976
      13    H9      18.991057   19.628220   21.111164 H          1 MOL1         0.0976
      14    C4      19.580156   19.794558   23.203163 C.3        1 MOL1        -0.1375
      15    H10     19.367649   19.283317   24.152316 H          1 MOL1         0.0976
      16    H11     20.653647   19.669889   23.007888 H          1 MOL1         0.0976
      17    C5      19.263691   21.299729   23.348359 C.3        1 MOL1        -0.1350
      18    H12     18.192412   21.436162   23.552583 H          1 MOL1         0.0976
      19    H13     19.473916   21.816080   22.401171 H          1 MOL1         0.0976
      20    C6      20.087016   21.950852   24.480056 C.3        1 MOL1        -0.2365
      21    H14     19.872724   21.477129   25.446954 H          1 MOL1         0.0987
      22    H15     19.848320   23.018718   24.567990 H          1 MOL1         0.0987
      23    H16     21.163963   21.861334   24.286684 H          1 MOL1         0.0987
@<TRIPOS>BOND
    1     1     2    1
    2     1     3    1
    3     1     4    1
    4     1     5    1
    5     5     6    1
    6     5     7    1
    7     5     8    1
    8     8     9    1
    9     8    10    1
   10     8    11    1
   11    11    12    1
   12    11    13    1
   13    11    14    1
   14    14    15    1
   15    14    16    1
   16    14    17    1
   17    17    18    1
   18    17    19    1
   19    17    20    1
   20    20    21    1
   21    20    22    1
   22    20    23    1
@<TRIPOS>SUBSTRUCTURE
       1 MOL1            1 RESIDUE      1      MOL     
@<SCITEGIC>MOL_PROPERTY
VConf Rank
SciTegic.value.IntegerValue
964

@<SCITEGIC>MOL_PROPERTY
Conf_Id
SciTegic.value.IntegerValue
42

@<SCITEGIC>MOL_PROPERTY
Delta U+W
SciTegic.value.DoubleValue
0.365

@<SCITEGIC>MOL_PROPERTY
U+W
SciTegic.value.DoubleValue
-8.017

@<SCITEGIC>MOL_PROPERTY
Grad RMS
SciTegic.value.DoubleValue
0.000000

@<SCITEGIC>MOL_PROPERTY
U
SciTegic.value.DoubleValue
47.375

@<SCITEGIC>MOL_PROPERTY
W
SciTegic.value.DoubleValue
-55.392

@<SCITEGIC>MOL_PROPERTY
W(PB)
SciTegic.value.DoubleValue
-57.543

@<SCITEGIC>MOL_PROPERTY
W(SA)
SciTegic.value.DoubleValue
2.152

@<SCITEGIC>MOL_PROPERTY
Valence
SciTegic.value.DoubleValue
2.032

@<SCITEGIC>MOL_PROPERTY
Coulomb
SciTegic.value.DoubleValue
44.843

@<SCITEGIC>MOL_PROPERTY
VdW
SciTegic.value.DoubleValue
0.499

@<SCITEGIC>MOL_PROPERTY
VdW6
SciTegic.value.DoubleValue
-5.218

@<SCITEGIC>MOL_PROPERTY
VdW12
SciTegic.value.DoubleValue
5.717

@<SCITEGIC>MOL_PROPERTY
Bond
SciTegic.value.DoubleValue
0.135

@<SCITEGIC>MOL_PROPERTY
Angle
SciTegic.value.DoubleValue
0.514

@<SCITEGIC>MOL_PROPERTY
Pdih
SciTegic.value.DoubleValue
1.383

@<SCITEGIC>MOL_PROPERTY
Idih
SciTegic.value.DoubleValue
0.000

@<SCITEGIC>MOL_PROPERTY
Tether
SciTegic.value.DoubleValue
0.000

@<TRIPOS>MOLECULE
guest-2_confgen4.mol2 : confsearch ligand conformer 965
          23          22           1
SMALL
USER_CHARGES
 
@<TRIPOS>ATOM
       1    N1      16.924612   17.614383   22.183825 N.4        1 MOL1        -0.5940
       2    H1      16.439048   18.511480   22.083436 H          1 MOL1         0.3649
       3    H2      16.206507   16.904416   22.363326 H          1 MOL1         0.3649
       4    H3      17.343116   17.393214   21.275342 H          1 MOL1         0.3649
       5    C1      17.963120   17.655834   23.288074 C.3        1 MOL1         0.0207
       6    H4      18.424585   16.667141   23.358485 H          1 MOL1         0.0950
       7    H5      17.438736   17.854187   24.226823 H          1 MOL1         0.0950
       8    C2      19.054022   18.724131   23.078532 C.3        1 MOL1        -0.1415
       9    H6      18.586203   19.712658   22.980506 H          1 MOL1         0.0976
      10    H7      19.674221   18.751443   23.982813 H          1 MOL1         0.0976
      11    C3      19.949011   18.432638   21.849373 C.3        1 MOL1        -0.1375
      12    H8      19.317782   18.301767   20.960693 H          1 MOL1         0.0976
      13    H9      20.470106   17.476621   21.997353 H          1 MOL1         0.0976
      14    C4      20.987203   19.541535   21.537021 C.3        1 MOL1        -0.1375
      15    H10     21.525345   19.242656   20.626767 H          1 MOL1         0.0976
      16    H11     20.473489   20.478567   21.281497 H          1 MOL1         0.0976
      17    C5      22.032742   19.790535   22.654737 C.3        1 MOL1        -0.1350
      18    H12     22.997033   20.030142   22.184946 H          1 MOL1         0.0976
      19    H13     22.199708   18.871689   23.233911 H          1 MOL1         0.0976
      20    C6      21.658513   20.959585   23.595766 C.3        1 MOL1        -0.2365
      21    H14     21.563788   21.898507   23.034954 H          1 MOL1         0.0987
      22    H15     22.436374   21.103986   24.356684 H          1 MOL1         0.0987
      23    H16     20.711994   20.782707   24.118198 H          1 MOL1         0.0987
@<TRIPOS>BOND
    1     1     2    1
    2     1     3    1
    3     1     4    1
    4     1     5    1
    5     5     6    1
    6     5     7    1
    7     5     8    1
    8     8     9    1
    9     8    10    1
   10     8    11    1
   11    11    12    1
   12    11    13    1
   13    11    14    1
   14    14    15    1
   15    14    16    1
   16    14    17    1
   17    17    18    1
   18    17    19    1
   19    17    20    1
   20    20    21    1
   21    20    22    1
   22    20    23    1
@<TRIPOS>SUBSTRUCTURE
       1 MOL1            1 RESIDUE      1      MOL     
@<SCITEGIC>MOL_PROPERTY
VConf Rank
SciTegic.value.IntegerValue
965

@<SCITEGIC>MOL_PROPERTY
Conf_Id
SciTegic.value.IntegerValue
3

@<SCITEGIC>MOL_PROPERTY
Delta U+W
SciTegic.value.DoubleValue
3.283

@<SCITEGIC>MOL_PROPERTY
U+W
SciTegic.value.DoubleValue
-5.099

@<SCITEGIC>MOL_PROPERTY
Grad RMS
SciTegic.value.DoubleValue
0.000000

@<SCITEGIC>MOL_PROPERTY
U
SciTegic.value.DoubleValue
50.701

@<SCITEGIC>MOL_PROPERTY
W
SciTegic.value.DoubleValue
-55.800

@<SCITEGIC>MOL_PROPERTY
W(PB)
SciTegic.value.DoubleValue
-57.867

@<SCITEGIC>MOL_PROPERTY
W(SA)
SciTegic.value.DoubleValue
2.067

@<SCITEGIC>MOL_PROPERTY
Valence
SciTegic.value.DoubleValue
4.880

@<SCITEGIC>MOL_PROPERTY
Coulomb
SciTegic.value.DoubleValue
45.095

@<SCITEGIC>MOL_PROPERTY
VdW
SciTegic.value.DoubleValue
0.726

@<SCITEGIC>MOL_PROPERTY
VdW6
SciTegic.value.DoubleValue
-6.620

@<SCITEGIC>MOL_PROPERTY
VdW12
SciTegic.value.DoubleValue
7.346

@<SCITEGIC>MOL_PROPERTY
Bond
SciTegic.value.DoubleValue
0.222

@<SCITEGIC>MOL_PROPERTY
Angle
SciTegic.value.DoubleValue
1.260

@<SCITEGIC>MOL_PROPERTY
Pdih
SciTegic.value.DoubleValue
3.398

@<SCITEGIC>MOL_PROPERTY
Idih
SciTegic.value.DoubleValue
0.000

@<SCITEGIC>MOL_PROPERTY
Tether
SciTegic.value.DoubleValue
0.000

@<TRIPOS>MOLECULE
guest-2_confgen4.mol2 : confsearch ligand conformer 966
          23          22           1
SMALL
USER_CHARGES
 
@<TRIPOS>ATOM
       1    N1      18.892229   17.255557   20.492662 N.4        1 MOL1        -0.5940
       2    H1      18.010434   16.782495   20.714484 H          1 MOL1         0.3649
       3    H2      19.162224   16.958247   19.548975 H          1 MOL1         0.3649
       4    H3      18.694542   18.259753   20.446732 H          1 MOL1         0.3649
       5    C1      19.970390   16.943666   21.511772 C.3        1 MOL1         0.0207
       6    H4      20.887397   17.450901   21.201447 H          1 MOL1         0.0950
       7    H5      20.153711   15.866132   21.482794 H          1 MOL1         0.0950
       8    C2      19.603011   17.360873   22.950607 C.3        1 MOL1        -0.1415
       9    H6      18.710353   16.805258   23.267241 H          1 MOL1         0.0976
      10    H7      20.411689   17.049407   23.625061 H          1 MOL1         0.0976
      11    C3      19.348509   18.879447   23.126130 C.3        1 MOL1        -0.1375
      12    H8      19.056855   19.056658   24.169399 H          1 MOL1         0.0976
      13    H9      18.491815   19.188506   22.512691 H          1 MOL1         0.0976
      14    C4      20.583552   19.749135   22.778655 C.3        1 MOL1        -0.1375
      15    H10     21.432081   19.457264   23.412673 H          1 MOL1         0.0976
      16    H11     20.890855   19.554562   21.742768 H          1 MOL1         0.0976
      17    C5      20.328039   21.268803   22.926191 C.3        1 MOL1        -0.1350
      18    H12     19.486900   21.568690   22.285661 H          1 MOL1         0.0976
      19    H13     21.207449   21.811186   22.551594 H          1 MOL1         0.0976
      20    C6      20.056276   21.710265   24.382419 C.3        1 MOL1        -0.2365
      21    H14     20.868123   21.392635   25.049520 H          1 MOL1         0.0987
      22    H15     19.115422   21.293351   24.762187 H          1 MOL1         0.0987
      23    H16     19.980104   22.803576   24.444083 H          1 MOL1         0.0987
@<TRIPOS>BOND
    1     1     2    1
    2     1     3    1
    3     1     4    1
    4     1     5    1
    5     5     6    1
    6     5     7    1
    7     5     8    1
    8     8     9    1
    9     8    10    1
   10     8    11    1
   11    11    12    1
   12    11    13    1
   13    11    14    1
   14    14    15    1
   15    14    16    1
   16    14    17    1
   17    17    18    1
   18    17    19    1
   19    17    20    1
   20    20    21    1
   21    20    22    1
   22    20    23    1
@<TRIPOS>SUBSTRUCTURE
       1 MOL1            1 RESIDUE      1      MOL     
@<SCITEGIC>MOL_PROPERTY
VConf Rank
SciTegic.value.IntegerValue
966

@<SCITEGIC>MOL_PROPERTY
Conf_Id
SciTegic.value.IntegerValue
83

@<SCITEGIC>MOL_PROPERTY
Delta U+W
SciTegic.value.DoubleValue
1.229

@<SCITEGIC>MOL_PROPERTY
U+W
SciTegic.value.DoubleValue
-7.154

@<SCITEGIC>MOL_PROPERTY
Grad RMS
SciTegic.value.DoubleValue
0.000000

@<SCITEGIC>MOL_PROPERTY
U
SciTegic.value.DoubleValue
48.727

@<SCITEGIC>MOL_PROPERTY
W
SciTegic.value.DoubleValue
-55.880

@<SCITEGIC>MOL_PROPERTY
W(PB)
SciTegic.value.DoubleValue
-57.960

@<SCITEGIC>MOL_PROPERTY
W(SA)
SciTegic.value.DoubleValue
2.080

@<SCITEGIC>MOL_PROPERTY
Valence
SciTegic.value.DoubleValue
2.671

@<SCITEGIC>MOL_PROPERTY
Coulomb
SciTegic.value.DoubleValue
45.371

@<SCITEGIC>MOL_PROPERTY
VdW
SciTegic.value.DoubleValue
0.684

@<SCITEGIC>MOL_PROPERTY
VdW6
SciTegic.value.DoubleValue
-6.511

@<SCITEGIC>MOL_PROPERTY
VdW12
SciTegic.value.DoubleValue
7.195

@<SCITEGIC>MOL_PROPERTY
Bond
SciTegic.value.DoubleValue
0.203

@<SCITEGIC>MOL_PROPERTY
Angle
SciTegic.value.DoubleValue
0.915

@<SCITEGIC>MOL_PROPERTY
Pdih
SciTegic.value.DoubleValue
1.554

@<SCITEGIC>MOL_PROPERTY
Idih
SciTegic.value.DoubleValue
0.000

@<SCITEGIC>MOL_PROPERTY
Tether
SciTegic.value.DoubleValue
0.000

@<TRIPOS>MOLECULE
guest-2_confgen4.mol2 : confsearch ligand conformer 967
          23          22           1
SMALL
USER_CHARGES
 
@<TRIPOS>ATOM
       1    N1      21.846935   20.024018   24.286955 N.4        1 MOL1        -0.5940
       2    H1      22.146362   20.976539   24.055434 H          1 MOL1         0.3649
       3    H2      22.050674   19.435784   23.473278 H          1 MOL1         0.3649
       4    H3      22.447976   19.698915   25.051738 H          1 MOL1         0.3649
       5    C1      20.379081   19.970788   24.662277 C.3        1 MOL1         0.0207
       6    H4      20.240953   20.589444   25.553182 H          1 MOL1         0.0950
       7    H5      20.133624   18.938957   24.926032 H          1 MOL1         0.0950
       8    C2      19.435371   20.464158   23.546359 C.3        1 MOL1        -0.1415
       9    H6      18.403834   20.442754   23.922303 H          1 MOL1         0.0976
      10    H7      19.659041   21.516865   23.328221 H          1 MOL1         0.0976
      11    C3      19.517879   19.642063   22.235252 C.3        1 MOL1        -0.1375
      12    H8      20.526908   19.718233   21.808864 H          1 MOL1         0.0976
      13    H9      18.841427   20.101558   21.503029 H          1 MOL1         0.0976
      14    C4      19.139812   18.150969   22.425347 C.3        1 MOL1        -0.1375
      15    H10     19.800294   17.696696   23.175516 H          1 MOL1         0.0976
      16    H11     18.119514   18.075901   22.826005 H          1 MOL1         0.0976
      17    C5      19.245983   17.317941   21.124872 C.3        1 MOL1        -0.1350
      18    H12     19.076840   16.260073   21.370163 H          1 MOL1         0.0976
      19    H13     20.267762   17.380553   20.725154 H          1 MOL1         0.0976
      20    C6      18.234378   17.742417   20.035919 C.3        1 MOL1        -0.2365
      21    H14     17.206715   17.720111   20.421171 H          1 MOL1         0.0987
      22    H15     18.285519   17.059956   19.177685 H          1 MOL1         0.0987
      23    H16     18.441057   18.753623   19.664450 H          1 MOL1         0.0987
@<TRIPOS>BOND
    1     1     2    1
    2     1     3    1
    3     1     4    1
    4     1     5    1
    5     5     6    1
    6     5     7    1
    7     5     8    1
    8     8     9    1
    9     8    10    1
   10     8    11    1
   11    11    12    1
   12    11    13    1
   13    11    14    1
   14    14    15    1
   15    14    16    1
   16    14    17    1
   17    17    18    1
   18    17    19    1
   19    17    20    1
   20    20    21    1
   21    20    22    1
   22    20    23    1
@<TRIPOS>SUBSTRUCTURE
       1 MOL1            1 RESIDUE      1      MOL     
@<SCITEGIC>MOL_PROPERTY
VConf Rank
SciTegic.value.IntegerValue
967

@<SCITEGIC>MOL_PROPERTY
Conf_Id
SciTegic.value.IntegerValue
50

@<SCITEGIC>MOL_PROPERTY
Delta U+W
SciTegic.value.DoubleValue
1.252

@<SCITEGIC>MOL_PROPERTY
U+W
SciTegic.value.DoubleValue
-7.130

@<SCITEGIC>MOL_PROPERTY
Grad RMS
SciTegic.value.DoubleValue
0.000000

@<SCITEGIC>MOL_PROPERTY
U
SciTegic.value.DoubleValue
48.727

@<SCITEGIC>MOL_PROPERTY
W
SciTegic.value.DoubleValue
-55.857

@<SCITEGIC>MOL_PROPERTY
W(PB)
SciTegic.value.DoubleValue
-57.937

@<SCITEGIC>MOL_PROPERTY
W(SA)
SciTegic.value.DoubleValue
2.080

@<SCITEGIC>MOL_PROPERTY
Valence
SciTegic.value.DoubleValue
2.671

@<SCITEGIC>MOL_PROPERTY
Coulomb
SciTegic.value.DoubleValue
45.371

@<SCITEGIC>MOL_PROPERTY
VdW
SciTegic.value.DoubleValue
0.684

@<SCITEGIC>MOL_PROPERTY
VdW6
SciTegic.value.DoubleValue
-6.511

@<SCITEGIC>MOL_PROPERTY
VdW12
SciTegic.value.DoubleValue
7.196

@<SCITEGIC>MOL_PROPERTY
Bond
SciTegic.value.DoubleValue
0.203

@<SCITEGIC>MOL_PROPERTY
Angle
SciTegic.value.DoubleValue
0.915

@<SCITEGIC>MOL_PROPERTY
Pdih
SciTegic.value.DoubleValue
1.554

@<SCITEGIC>MOL_PROPERTY
Idih
SciTegic.value.DoubleValue
0.000

@<SCITEGIC>MOL_PROPERTY
Tether
SciTegic.value.DoubleValue
0.000

@<TRIPOS>MOLECULE
guest-2_confgen4.mol2 : confsearch ligand conformer 968
          23          22           1
SMALL
USER_CHARGES
 
@<TRIPOS>ATOM
       1    N1      18.719408   21.731866   23.963095 N.4        1 MOL1        -0.5940
       2    H1      17.887155   21.371536   23.486596 H          1 MOL1         0.3649
       3    H2      18.673500   22.755266   23.913352 H          1 MOL1         0.3649
       4    H3      18.636639   21.476890   24.952418 H          1 MOL1         0.3649
       5    C1      19.997042   21.195286   23.347488 C.3        1 MOL1         0.0207
       6    H4      20.837345   21.652210   23.877285 H          1 MOL1         0.0950
       7    H5      20.034301   21.521454   22.304589 H          1 MOL1         0.0950
       8    C2      20.124211   19.661022   23.415482 C.3        1 MOL1        -0.1415
       9    H6      21.118983   19.383131   23.049600 H          1 MOL1         0.0976
      10    H7      20.081052   19.338060   24.464100 H          1 MOL1         0.0976
      11    C3      19.028182   18.934047   22.595176 C.3        1 MOL1        -0.1375
      12    H8      19.000938   19.319934   21.566728 H          1 MOL1         0.0976
      13    H9      18.049800   19.169468   23.034874 H          1 MOL1         0.0976
      14    C4      19.192601   17.391700   22.579821 C.3        1 MOL1        -0.1375
      15    H10     19.681158   17.050643   23.502960 H          1 MOL1         0.0976
      16    H11     18.190708   16.940527   22.591823 H          1 MOL1         0.0976
      17    C5      19.940255   16.831831   21.342579 C.3        1 MOL1        -0.1350
      18    H12     19.387426   17.092335   20.429183 H          1 MOL1         0.0976
      19    H13     19.933887   15.734280   21.398760 H          1 MOL1         0.0976
      20    C6      21.402140   17.311951   21.210639 C.3        1 MOL1        -0.2365
      21    H14     21.967460   17.118494   22.131412 H          1 MOL1         0.0987
      22    H15     21.450834   18.385042   20.988428 H          1 MOL1         0.0987
      23    H16     21.906212   16.784675   20.390407 H          1 MOL1         0.0987
@<TRIPOS>BOND
    1     1     2    1
    2     1     3    1
    3     1     4    1
    4     1     5    1
    5     5     6    1
    6     5     7    1
    7     5     8    1
    8     8     9    1
    9     8    10    1
   10     8    11    1
   11    11    12    1
   12    11    13    1
   13    11    14    1
   14    14    15    1
   15    14    16    1
   16    14    17    1
   17    17    18    1
   18    17    19    1
   19    17    20    1
   20    20    21    1
   21    20    22    1
   22    20    23    1
@<TRIPOS>SUBSTRUCTURE
       1 MOL1            1 RESIDUE      1      MOL     
@<SCITEGIC>MOL_PROPERTY
VConf Rank
SciTegic.value.IntegerValue
968

@<SCITEGIC>MOL_PROPERTY
Conf_Id
SciTegic.value.IntegerValue
55

@<SCITEGIC>MOL_PROPERTY
Delta U+W
SciTegic.value.DoubleValue
3.232

@<SCITEGIC>MOL_PROPERTY
U+W
SciTegic.value.DoubleValue
-5.150

@<SCITEGIC>MOL_PROPERTY
Grad RMS
SciTegic.value.DoubleValue
0.000000

@<SCITEGIC>MOL_PROPERTY
U
SciTegic.value.DoubleValue
50.625

@<SCITEGIC>MOL_PROPERTY
W
SciTegic.value.DoubleValue
-55.776

@<SCITEGIC>MOL_PROPERTY
W(PB)
SciTegic.value.DoubleValue
-57.839

@<SCITEGIC>MOL_PROPERTY
W(SA)
SciTegic.value.DoubleValue
2.064

@<SCITEGIC>MOL_PROPERTY
Valence
SciTegic.value.DoubleValue
4.837

@<SCITEGIC>MOL_PROPERTY
Coulomb
SciTegic.value.DoubleValue
45.097

@<SCITEGIC>MOL_PROPERTY
VdW
SciTegic.value.DoubleValue
0.692

@<SCITEGIC>MOL_PROPERTY
VdW6
SciTegic.value.DoubleValue
-6.655

@<SCITEGIC>MOL_PROPERTY
VdW12
SciTegic.value.DoubleValue
7.347

@<SCITEGIC>MOL_PROPERTY
Bond
SciTegic.value.DoubleValue
0.223

@<SCITEGIC>MOL_PROPERTY
Angle
SciTegic.value.DoubleValue
1.167

@<SCITEGIC>MOL_PROPERTY
Pdih
SciTegic.value.DoubleValue
3.447

@<SCITEGIC>MOL_PROPERTY
Idih
SciTegic.value.DoubleValue
0.000

@<SCITEGIC>MOL_PROPERTY
Tether
SciTegic.value.DoubleValue
0.000

@<TRIPOS>MOLECULE
guest-2_confgen4.mol2 : confsearch ligand conformer 969
          23          22           1
SMALL
USER_CHARGES
 
@<TRIPOS>ATOM
       1    N1      18.907827   20.224420   19.861537 N.4        1 MOL1        -0.5940
       2    H1      19.559570   20.676012   19.211826 H          1 MOL1         0.3649
       3    H2      18.017707   20.728786   19.788746 H          1 MOL1         0.3649
       4    H3      18.742288   19.275410   19.511205 H          1 MOL1         0.3649
       5    C1      19.437777   20.219117   21.280964 C.3        1 MOL1         0.0207
       6    H4      18.680266   19.758817   21.917863 H          1 MOL1         0.0950
       7    H5      19.562614   21.258365   21.596845 H          1 MOL1         0.0950
       8    C2      20.779566   19.473467   21.420231 C.3        1 MOL1        -0.1415
       9    H6      20.681383   18.439848   21.062663 H          1 MOL1         0.0976
      10    H7      21.509985   19.961368   20.761096 H          1 MOL1         0.0976
      11    C3      21.335420   19.486522   22.866717 C.3        1 MOL1        -0.1375
      12    H8      21.127448   20.455683   23.341140 H          1 MOL1         0.0976
      13    H9      22.430380   19.411616   22.812402 H          1 MOL1         0.0976
      14    C4      20.832778   18.331339   23.771358 C.3        1 MOL1        -0.1375
      15    H10     21.138322   17.368511   23.339041 H          1 MOL1         0.0976
      16    H11     21.347334   18.407033   24.739317 H          1 MOL1         0.0976
      17    C5      19.306104   18.322108   24.015660 C.3        1 MOL1        -0.1350
      18    H12     18.779270   18.090529   23.080924 H          1 MOL1         0.0976
      19    H13     18.973244   19.317938   24.340013 H          1 MOL1         0.0976
      20    C6      18.906146   17.277197   25.079086 C.3        1 MOL1        -0.2365
      21    H14     19.381368   17.493786   26.044730 H          1 MOL1         0.0987
      22    H15     19.203726   16.266504   24.770549 H          1 MOL1         0.0987
      23    H16     17.819115   17.276412   25.232036 H          1 MOL1         0.0987
@<TRIPOS>BOND
    1     1     2    1
    2     1     3    1
    3     1     4    1
    4     1     5    1
    5     5     6    1
    6     5     7    1
    7     5     8    1
    8     8     9    1
    9     8    10    1
   10     8    11    1
   11    11    12    1
   12    11    13    1
   13    11    14    1
   14    14    15    1
   15    14    16    1
   16    14    17    1
   17    17    18    1
   18    17    19    1
   19    17    20    1
   20    20    21    1
   21    20    22    1
   22    20    23    1
@<TRIPOS>SUBSTRUCTURE
       1 MOL1            1 RESIDUE      1      MOL     
@<SCITEGIC>MOL_PROPERTY
VConf Rank
SciTegic.value.IntegerValue
969

@<SCITEGIC>MOL_PROPERTY
Conf_Id
SciTegic.value.IntegerValue
93

@<SCITEGIC>MOL_PROPERTY
Delta U+W
SciTegic.value.DoubleValue
2.589

@<SCITEGIC>MOL_PROPERTY
U+W
SciTegic.value.DoubleValue
-5.793

@<SCITEGIC>MOL_PROPERTY
Grad RMS
SciTegic.value.DoubleValue
0.000000

@<SCITEGIC>MOL_PROPERTY
U
SciTegic.value.DoubleValue
50.122

@<SCITEGIC>MOL_PROPERTY
W
SciTegic.value.DoubleValue
-55.915

@<SCITEGIC>MOL_PROPERTY
W(PB)
SciTegic.value.DoubleValue
-58.031

@<SCITEGIC>MOL_PROPERTY
W(SA)
SciTegic.value.DoubleValue
2.115

@<SCITEGIC>MOL_PROPERTY
Valence
SciTegic.value.DoubleValue
4.132

@<SCITEGIC>MOL_PROPERTY
Coulomb
SciTegic.value.DoubleValue
45.536

@<SCITEGIC>MOL_PROPERTY
VdW
SciTegic.value.DoubleValue
0.454

@<SCITEGIC>MOL_PROPERTY
VdW6
SciTegic.value.DoubleValue
-6.262

@<SCITEGIC>MOL_PROPERTY
VdW12
SciTegic.value.DoubleValue
6.715

@<SCITEGIC>MOL_PROPERTY
Bond
SciTegic.value.DoubleValue
0.182

@<SCITEGIC>MOL_PROPERTY
Angle
SciTegic.value.DoubleValue
1.157

@<SCITEGIC>MOL_PROPERTY
Pdih
SciTegic.value.DoubleValue
2.794

@<SCITEGIC>MOL_PROPERTY
Idih
SciTegic.value.DoubleValue
0.000

@<SCITEGIC>MOL_PROPERTY
Tether
SciTegic.value.DoubleValue
0.000

@<TRIPOS>MOLECULE
guest-2_confgen4.mol2 : confsearch ligand conformer 970
          23          22           1
SMALL
USER_CHARGES
 
@<TRIPOS>ATOM
       1    N1      19.963499   16.039816   21.495600 N.4        1 MOL1        -0.5940
       2    H1      19.254958   16.253378   20.786292 H          1 MOL1         0.3649
       3    H2      19.611574   15.244066   22.038675 H          1 MOL1         0.3649
       4    H3      20.798922   15.714499   20.998542 H          1 MOL1         0.3649
       5    C1      20.260333   17.235999   22.376895 C.3        1 MOL1         0.0207
       6    H4      20.998012   16.928710   23.123087 H          1 MOL1         0.0950
       7    H5      19.339406   17.502240   22.898766 H          1 MOL1         0.0950
       8    C2      20.798204   18.446369   21.588550 C.3        1 MOL1        -0.1415
       9    H6      21.717744   18.136220   21.074475 H          1 MOL1         0.0976
      10    H7      20.087587   18.737739   20.803699 H          1 MOL1         0.0976
      11    C3      21.124600   19.663442   22.490582 C.3        1 MOL1        -0.1375
      12    H8      21.917673   20.247026   22.002768 H          1 MOL1         0.0976
      13    H9      21.551256   19.321733   23.443894 H          1 MOL1         0.0976
      14    C4      19.933685   20.621853   22.752585 C.3        1 MOL1        -0.1375
      15    H10     20.303976   21.474262   23.338865 H          1 MOL1         0.0976
      16    H11     19.582598   21.038622   21.798471 H          1 MOL1         0.0976
      17    C5      18.742635   19.979756   23.500658 C.3        1 MOL1        -0.1350
      18    H12     19.101956   19.460729   24.400200 H          1 MOL1         0.0976
      19    H13     18.260644   19.228776   22.861417 H          1 MOL1         0.0976
      20    C6      17.689139   21.033356   23.904087 C.3        1 MOL1        -0.2365
      21    H14     16.846328   20.559435   24.423796 H          1 MOL1         0.0987
      22    H15     17.292174   21.552245   23.021805 H          1 MOL1         0.0987
      23    H16     18.119793   21.785333   24.578091 H          1 MOL1         0.0987
@<TRIPOS>BOND
    1     1     2    1
    2     1     3    1
    3     1     4    1
    4     1     5    1
    5     5     6    1
    6     5     7    1
    7     5     8    1
    8     8     9    1
    9     8    10    1
   10     8    11    1
   11    11    12    1
   12    11    13    1
   13    11    14    1
   14    14    15    1
   15    14    16    1
   16    14    17    1
   17    17    18    1
   18    17    19    1
   19    17    20    1
   20    20    21    1
   21    20    22    1
   22    20    23    1
@<TRIPOS>SUBSTRUCTURE
       1 MOL1            1 RESIDUE      1      MOL     
@<SCITEGIC>MOL_PROPERTY
VConf Rank
SciTegic.value.IntegerValue
970

@<SCITEGIC>MOL_PROPERTY
Conf_Id
SciTegic.value.IntegerValue
70

@<SCITEGIC>MOL_PROPERTY
Delta U+W
SciTegic.value.DoubleValue
2.599

@<SCITEGIC>MOL_PROPERTY
U+W
SciTegic.value.DoubleValue
-5.783

@<SCITEGIC>MOL_PROPERTY
Grad RMS
SciTegic.value.DoubleValue
0.000000

@<SCITEGIC>MOL_PROPERTY
U
SciTegic.value.DoubleValue
50.122

@<SCITEGIC>MOL_PROPERTY
W
SciTegic.value.DoubleValue
-55.906

@<SCITEGIC>MOL_PROPERTY
W(PB)
SciTegic.value.DoubleValue
-58.010

@<SCITEGIC>MOL_PROPERTY
W(SA)
SciTegic.value.DoubleValue
2.105

@<SCITEGIC>MOL_PROPERTY
Valence
SciTegic.value.DoubleValue
4.132

@<SCITEGIC>MOL_PROPERTY
Coulomb
SciTegic.value.DoubleValue
45.536

@<SCITEGIC>MOL_PROPERTY
VdW
SciTegic.value.DoubleValue
0.454

@<SCITEGIC>MOL_PROPERTY
VdW6
SciTegic.value.DoubleValue
-6.262

@<SCITEGIC>MOL_PROPERTY
VdW12
SciTegic.value.DoubleValue
6.715

@<SCITEGIC>MOL_PROPERTY
Bond
SciTegic.value.DoubleValue
0.182

@<SCITEGIC>MOL_PROPERTY
Angle
SciTegic.value.DoubleValue
1.157

@<SCITEGIC>MOL_PROPERTY
Pdih
SciTegic.value.DoubleValue
2.794

@<SCITEGIC>MOL_PROPERTY
Idih
SciTegic.value.DoubleValue
0.000

@<SCITEGIC>MOL_PROPERTY
Tether
SciTegic.value.DoubleValue
0.000

@<TRIPOS>MOLECULE
guest-2_confgen4.mol2 : confsearch ligand conformer 971
          23          22           1
SMALL
USER_CHARGES
 
@<TRIPOS>ATOM
       1    N1      21.644413   17.473080   24.148772 N.4        1 MOL1        -0.5940
       2    H1      21.392006   16.651377   24.706984 H          1 MOL1         0.3649
       3    H2      22.592965   17.744908   24.428274 H          1 MOL1         0.3649
       4    H3      21.693103   17.171581   23.170920 H          1 MOL1         0.3649
       5    C1      20.654882   18.606200   24.336131 C.3        1 MOL1         0.0207
       6    H4      20.998111   19.458381   23.743740 H          1 MOL1         0.0950
       7    H5      20.675211   18.895276   25.390416 H          1 MOL1         0.0950
       8    C2      19.212303   18.239761   23.933055 C.3        1 MOL1        -0.1415
       9    H6      18.865917   17.405829   24.557786 H          1 MOL1         0.0976
      10    H7      18.552912   19.084401   24.170123 H          1 MOL1         0.0976
      11    C3      19.053543   17.856776   22.438022 C.3        1 MOL1        -0.1375
      12    H8      17.993125   17.652303   22.235762 H          1 MOL1         0.0976
      13    H9      19.578917   16.911034   22.248844 H          1 MOL1         0.0976
      14    C4      19.563727   18.922132   21.433269 C.3        1 MOL1        -0.1375
      15    H10     20.644530   19.071069   21.558068 H          1 MOL1         0.0976
      16    H11     19.428032   18.531002   20.415457 H          1 MOL1         0.0976
      17    C5      18.834084   20.281133   21.550015 C.3        1 MOL1        -0.1350
      18    H12     19.015399   20.724850   22.538032 H          1 MOL1         0.0976
      19    H13     17.749251   20.128412   21.463251 H          1 MOL1         0.0976
      20    C6      19.300128   21.272639   20.462770 C.3        1 MOL1        -0.2365
      21    H14     18.774838   22.231437   20.561715 H          1 MOL1         0.0987
      22    H15     19.098129   20.880444   19.457497 H          1 MOL1         0.0987
      23    H16     20.377288   21.468729   20.543262 H          1 MOL1         0.0987
@<TRIPOS>BOND
    1     1     2    1
    2     1     3    1
    3     1     4    1
    4     1     5    1
    5     5     6    1
    6     5     7    1
    7     5     8    1
    8     8     9    1
    9     8    10    1
   10     8    11    1
   11    11    12    1
   12    11    13    1
   13    11    14    1
   14    14    15    1
   15    14    16    1
   16    14    17    1
   17    17    18    1
   18    17    19    1
   19    17    20    1
   20    20    21    1
   21    20    22    1
   22    20    23    1
@<TRIPOS>SUBSTRUCTURE
       1 MOL1            1 RESIDUE      1      MOL     
@<SCITEGIC>MOL_PROPERTY
VConf Rank
SciTegic.value.IntegerValue
971

@<SCITEGIC>MOL_PROPERTY
Conf_Id
SciTegic.value.IntegerValue
72

@<SCITEGIC>MOL_PROPERTY
Delta U+W
SciTegic.value.DoubleValue
1.051

@<SCITEGIC>MOL_PROPERTY
U+W
SciTegic.value.DoubleValue
-7.331

@<SCITEGIC>MOL_PROPERTY
Grad RMS
SciTegic.value.DoubleValue
0.000000

@<SCITEGIC>MOL_PROPERTY
U
SciTegic.value.DoubleValue
48.590

@<SCITEGIC>MOL_PROPERTY
W
SciTegic.value.DoubleValue
-55.922

@<SCITEGIC>MOL_PROPERTY
W(PB)
SciTegic.value.DoubleValue
-58.012

@<SCITEGIC>MOL_PROPERTY
W(SA)
SciTegic.value.DoubleValue
2.090

@<SCITEGIC>MOL_PROPERTY
Valence
SciTegic.value.DoubleValue
2.601

@<SCITEGIC>MOL_PROPERTY
Coulomb
SciTegic.value.DoubleValue
45.520

@<SCITEGIC>MOL_PROPERTY
VdW
SciTegic.value.DoubleValue
0.469

@<SCITEGIC>MOL_PROPERTY
VdW6
SciTegic.value.DoubleValue
-6.867

@<SCITEGIC>MOL_PROPERTY
VdW12
SciTegic.value.DoubleValue
7.336

@<SCITEGIC>MOL_PROPERTY
Bond
SciTegic.value.DoubleValue
0.205

@<SCITEGIC>MOL_PROPERTY
Angle
SciTegic.value.DoubleValue
0.962

@<SCITEGIC>MOL_PROPERTY
Pdih
SciTegic.value.DoubleValue
1.434

@<SCITEGIC>MOL_PROPERTY
Idih
SciTegic.value.DoubleValue
0.000

@<SCITEGIC>MOL_PROPERTY
Tether
SciTegic.value.DoubleValue
0.000

@<TRIPOS>MOLECULE
guest-2_confgen4.mol2 : confsearch ligand conformer 972
          23          22           1
SMALL
USER_CHARGES
 
@<TRIPOS>ATOM
       1    N1      17.549875   18.036514   24.640798 N.4        1 MOL1        -0.5940
       2    H1      17.618371   17.399646   25.441838 H          1 MOL1         0.3649
       3    H2      16.615087   17.910423   24.239481 H          1 MOL1         0.3649
       4    H3      17.591822   18.990330   25.013810 H          1 MOL1         0.3649
       5    C1      18.641417   17.778921   23.622063 C.3        1 MOL1         0.0207
       6    H4      18.555509   16.740893   23.289698 H          1 MOL1         0.0950
       7    H5      19.604862   17.901107   24.123837 H          1 MOL1         0.0950
       8    C2      18.566542   18.720140   22.405380 C.3        1 MOL1        -0.1415
       9    H6      17.581540   18.616713   21.931246 H          1 MOL1         0.0976
      10    H7      18.639648   19.763083   22.739082 H          1 MOL1         0.0976
      11    C3      19.662198   18.423072   21.351647 C.3        1 MOL1        -0.1375
      12    H8      19.540543   19.110221   20.503723 H          1 MOL1         0.0976
      13    H9      19.497328   17.416667   20.942649 H          1 MOL1         0.0976
      14    C4      21.118281   18.508372   21.883913 C.3        1 MOL1        -0.1375
      15    H10     21.286104   17.708284   22.617396 H          1 MOL1         0.0976
      16    H11     21.807441   18.297112   21.054698 H          1 MOL1         0.0976
      17    C5      21.507944   19.865057   22.524058 C.3        1 MOL1        -0.1350
      18    H12     22.548272   19.801798   22.872493 H          1 MOL1         0.0976
      19    H13     20.901601   20.050036   23.420857 H          1 MOL1         0.0976
      20    C6      21.380810   21.060193   21.552459 C.3        1 MOL1        -0.2365
      21    H14     21.969493   20.892040   20.641352 H          1 MOL1         0.0987
      22    H15     21.748120   21.980529   22.024589 H          1 MOL1         0.0987
      23    H16     20.337356   21.232192   21.260607 H          1 MOL1         0.0987
@<TRIPOS>BOND
    1     1     2    1
    2     1     3    1
    3     1     4    1
    4     1     5    1
    5     5     6    1
    6     5     7    1
    7     5     8    1
    8     8     9    1
    9     8    10    1
   10     8    11    1
   11    11    12    1
   12    11    13    1
   13    11    14    1
   14    14    15    1
   15    14    16    1
   16    14    17    1
   17    17    18    1
   18    17    19    1
   19    17    20    1
   20    20    21    1
   21    20    22    1
   22    20    23    1
@<TRIPOS>SUBSTRUCTURE
       1 MOL1            1 RESIDUE      1      MOL     
@<SCITEGIC>MOL_PROPERTY
VConf Rank
SciTegic.value.IntegerValue
972

@<SCITEGIC>MOL_PROPERTY
Conf_Id
SciTegic.value.IntegerValue
26

@<SCITEGIC>MOL_PROPERTY
Delta U+W
SciTegic.value.DoubleValue
1.076

@<SCITEGIC>MOL_PROPERTY
U+W
SciTegic.value.DoubleValue
-7.306

@<SCITEGIC>MOL_PROPERTY
Grad RMS
SciTegic.value.DoubleValue
0.000000

@<SCITEGIC>MOL_PROPERTY
U
SciTegic.value.DoubleValue
48.641

@<SCITEGIC>MOL_PROPERTY
W
SciTegic.value.DoubleValue
-55.947

@<SCITEGIC>MOL_PROPERTY
W(PB)
SciTegic.value.DoubleValue
-58.031

@<SCITEGIC>MOL_PROPERTY
W(SA)
SciTegic.value.DoubleValue
2.084

@<SCITEGIC>MOL_PROPERTY
Valence
SciTegic.value.DoubleValue
2.922

@<SCITEGIC>MOL_PROPERTY
Coulomb
SciTegic.value.DoubleValue
45.269

@<SCITEGIC>MOL_PROPERTY
VdW
SciTegic.value.DoubleValue
0.449

@<SCITEGIC>MOL_PROPERTY
VdW6
SciTegic.value.DoubleValue
-7.045

@<SCITEGIC>MOL_PROPERTY
VdW12
SciTegic.value.DoubleValue
7.494

@<SCITEGIC>MOL_PROPERTY
Bond
SciTegic.value.DoubleValue
0.220

@<SCITEGIC>MOL_PROPERTY
Angle
SciTegic.value.DoubleValue
1.205

@<SCITEGIC>MOL_PROPERTY
Pdih
SciTegic.value.DoubleValue
1.497

@<SCITEGIC>MOL_PROPERTY
Idih
SciTegic.value.DoubleValue
0.000

@<SCITEGIC>MOL_PROPERTY
Tether
SciTegic.value.DoubleValue
0.000

@<TRIPOS>MOLECULE
guest-2_confgen4.mol2 : confsearch ligand conformer 973
          23          22           1
SMALL
USER_CHARGES
 
@<TRIPOS>ATOM
       1    N1      21.191323   19.001291   25.430973 N.4        1 MOL1        -0.5940
       2    H1      21.139060   19.891208   25.937037 H          1 MOL1         0.3649
       3    H2      22.043129   18.527136   25.749661 H          1 MOL1         0.3649
       4    H3      20.398493   18.430674   25.741584 H          1 MOL1         0.3649
       5    C1      21.188419   19.204289   23.929502 C.3        1 MOL1         0.0207
       6    H4      21.276366   18.222211   23.457568 H          1 MOL1         0.0950
       7    H5      22.071237   19.793089   23.666257 H          1 MOL1         0.0950
       8    C2      19.921029   19.914408   23.418354 C.3        1 MOL1        -0.1415
       9    H6      19.033236   19.330804   23.693424 H          1 MOL1         0.0976
      10    H7      19.822433   20.883032   23.926069 H          1 MOL1         0.0976
      11    C3      19.945301   20.152329   21.888038 C.3        1 MOL1        -0.1375
      12    H8      20.770518   20.837180   21.648647 H          1 MOL1         0.0976
      13    H9      19.028514   20.679454   21.592079 H          1 MOL1         0.0976
      14    C4      20.104542   18.867229   21.031347 C.3        1 MOL1        -0.1375
      15    H10     20.092794   19.150090   19.969736 H          1 MOL1         0.0976
      16    H11     21.096749   18.430987   21.208883 H          1 MOL1         0.0976
      17    C5      19.028064   17.777999   21.270087 C.3        1 MOL1        -0.1350
      18    H12     19.089810   17.402215   22.300181 H          1 MOL1         0.0976
      19    H13     19.250390   16.918235   20.622731 H          1 MOL1         0.0976
      20    C6      17.590172   18.262648   20.976662 C.3        1 MOL1        -0.2365
      21    H14     17.281258   19.051261   21.673957 H          1 MOL1         0.0987
      22    H15     16.876995   17.434336   21.077255 H          1 MOL1         0.0987
      23    H16     17.507143   18.655159   19.954907 H          1 MOL1         0.0987
@<TRIPOS>BOND
    1     1     2    1
    2     1     3    1
    3     1     4    1
    4     1     5    1
    5     5     6    1
    6     5     7    1
    7     5     8    1
    8     8     9    1
    9     8    10    1
   10     8    11    1
   11    11    12    1
   12    11    13    1
   13    11    14    1
   14    14    15    1
   15    14    16    1
   16    14    17    1
   17    17    18    1
   18    17    19    1
   19    17    20    1
   20    20    21    1
   21    20    22    1
   22    20    23    1
@<TRIPOS>SUBSTRUCTURE
       1 MOL1            1 RESIDUE      1      MOL     
@<SCITEGIC>MOL_PROPERTY
VConf Rank
SciTegic.value.IntegerValue
973

@<SCITEGIC>MOL_PROPERTY
Conf_Id
SciTegic.value.IntegerValue
90

@<SCITEGIC>MOL_PROPERTY
Delta U+W
SciTegic.value.DoubleValue
1.131

@<SCITEGIC>MOL_PROPERTY
U+W
SciTegic.value.DoubleValue
-7.251

@<SCITEGIC>MOL_PROPERTY
Grad RMS
SciTegic.value.DoubleValue
0.000000

@<SCITEGIC>MOL_PROPERTY
U
SciTegic.value.DoubleValue
48.641

@<SCITEGIC>MOL_PROPERTY
W
SciTegic.value.DoubleValue
-55.892

@<SCITEGIC>MOL_PROPERTY
W(PB)
SciTegic.value.DoubleValue
-57.962

@<SCITEGIC>MOL_PROPERTY
W(SA)
SciTegic.value.DoubleValue
2.070

@<SCITEGIC>MOL_PROPERTY
Valence
SciTegic.value.DoubleValue
2.922

@<SCITEGIC>MOL_PROPERTY
Coulomb
SciTegic.value.DoubleValue
45.269

@<SCITEGIC>MOL_PROPERTY
VdW
SciTegic.value.DoubleValue
0.450

@<SCITEGIC>MOL_PROPERTY
VdW6
SciTegic.value.DoubleValue
-7.045

@<SCITEGIC>MOL_PROPERTY
VdW12
SciTegic.value.DoubleValue
7.495

@<SCITEGIC>MOL_PROPERTY
Bond
SciTegic.value.DoubleValue
0.220

@<SCITEGIC>MOL_PROPERTY
Angle
SciTegic.value.DoubleValue
1.205

@<SCITEGIC>MOL_PROPERTY
Pdih
SciTegic.value.DoubleValue
1.497

@<SCITEGIC>MOL_PROPERTY
Idih
SciTegic.value.DoubleValue
0.000

@<SCITEGIC>MOL_PROPERTY
Tether
SciTegic.value.DoubleValue
0.000

@<TRIPOS>MOLECULE
guest-2_confgen4.mol2 : confsearch ligand conformer 974
          23          22           1
SMALL
USER_CHARGES
 
@<TRIPOS>ATOM
       1    N1      20.172897   21.543654   22.271659 N.4        1 MOL1        -0.5940
       2    H1      20.975275   22.179981   22.215711 H          1 MOL1         0.3649
       3    H2      20.267886   21.014959   23.144059 H          1 MOL1         0.3649
       4    H3      19.334408   22.126580   22.359447 H          1 MOL1         0.3649
       5    C1      20.096775   20.625837   21.067412 C.3        1 MOL1         0.0207
       6    H4      21.029283   20.058079   21.014530 H          1 MOL1         0.0950
       7    H5      20.030921   21.253117   20.174270 H          1 MOL1         0.0950
       8    C2      18.897367   19.656746   21.101643 C.3        1 MOL1        -0.1415
       9    H6      17.965562   20.237695   21.106846 H          1 MOL1         0.0976
      10    H7      18.888988   19.073956   20.170982 H          1 MOL1         0.0976
      11    C3      18.904467   18.688356   22.311086 C.3        1 MOL1        -0.1375
      12    H8      18.009547   18.053362   22.256206 H          1 MOL1         0.0976
      13    H9      18.814643   19.263694   23.241152 H          1 MOL1         0.0976
      14    C4      20.164360   17.787357   22.359488 C.3        1 MOL1        -0.1375
      15    H10     20.283442   17.285603   21.389267 H          1 MOL1         0.0976
      16    H11     21.063794   18.400788   22.503197 H          1 MOL1         0.0976
      17    C5      20.104474   16.707938   23.467036 C.3        1 MOL1        -0.1350
      18    H12     20.978449   16.049398   23.365410 H          1 MOL1         0.0976
      19    H13     19.221254   16.071009   23.318630 H          1 MOL1         0.0976
      20    C6      20.087427   17.296034   24.896367 C.3        1 MOL1        -0.2365
      21    H14     20.947156   17.958277   25.061409 H          1 MOL1         0.0987
      22    H15     20.135294   16.492430   25.642600 H          1 MOL1         0.0987
      23    H16     19.170578   17.867552   25.086540 H          1 MOL1         0.0987
@<TRIPOS>BOND
    1     1     2    1
    2     1     3    1
    3     1     4    1
    4     1     5    1
    5     5     6    1
    6     5     7    1
    7     5     8    1
    8     8     9    1
    9     8    10    1
   10     8    11    1
   11    11    12    1
   12    11    13    1
   13    11    14    1
   14    14    15    1
   15    14    16    1
   16    14    17    1
   17    17    18    1
   18    17    19    1
   19    17    20    1
   20    20    21    1
   21    20    22    1
   22    20    23    1
@<TRIPOS>SUBSTRUCTURE
       1 MOL1            1 RESIDUE      1      MOL     
@<SCITEGIC>MOL_PROPERTY
VConf Rank
SciTegic.value.IntegerValue
974

@<SCITEGIC>MOL_PROPERTY
Conf_Id
SciTegic.value.IntegerValue
85

@<SCITEGIC>MOL_PROPERTY
Delta U+W
SciTegic.value.DoubleValue
1.193

@<SCITEGIC>MOL_PROPERTY
U+W
SciTegic.value.DoubleValue
-7.189

@<SCITEGIC>MOL_PROPERTY
Grad RMS
SciTegic.value.DoubleValue
0.000000

@<SCITEGIC>MOL_PROPERTY
U
SciTegic.value.DoubleValue
48.775

@<SCITEGIC>MOL_PROPERTY
W
SciTegic.value.DoubleValue
-55.965

@<SCITEGIC>MOL_PROPERTY
W(PB)
SciTegic.value.DoubleValue
-58.038

@<SCITEGIC>MOL_PROPERTY
W(SA)
SciTegic.value.DoubleValue
2.073

@<SCITEGIC>MOL_PROPERTY
Valence
SciTegic.value.DoubleValue
2.602

@<SCITEGIC>MOL_PROPERTY
Coulomb
SciTegic.value.DoubleValue
45.581

@<SCITEGIC>MOL_PROPERTY
VdW
SciTegic.value.DoubleValue
0.592

@<SCITEGIC>MOL_PROPERTY
VdW6
SciTegic.value.DoubleValue
-6.616

@<SCITEGIC>MOL_PROPERTY
VdW12
SciTegic.value.DoubleValue
7.208

@<SCITEGIC>MOL_PROPERTY
Bond
SciTegic.value.DoubleValue
0.196

@<SCITEGIC>MOL_PROPERTY
Angle
SciTegic.value.DoubleValue
0.832

@<SCITEGIC>MOL_PROPERTY
Pdih
SciTegic.value.DoubleValue
1.574

@<SCITEGIC>MOL_PROPERTY
Idih
SciTegic.value.DoubleValue
0.000

@<SCITEGIC>MOL_PROPERTY
Tether
SciTegic.value.DoubleValue
0.000

@<TRIPOS>MOLECULE
guest-2_confgen4.mol2 : confsearch ligand conformer 975
          23          22           1
SMALL
USER_CHARGES
 
@<TRIPOS>ATOM
       1    N1      18.658646   19.749476   20.980215 N.4        1 MOL1        -0.5940
       2    H1      19.266109   20.111982   21.722003 H          1 MOL1         0.3649
       3    H2      17.823863   20.344794   20.948002 H          1 MOL1         0.3649
       4    H3      19.151711   19.878218   20.090649 H          1 MOL1         0.3649
       5    C1      18.303709   18.294641   21.219250 C.3        1 MOL1         0.0207
       6    H4      17.660528   17.982802   20.391853 H          1 MOL1         0.0950
       7    H5      17.725355   18.222518   22.144147 H          1 MOL1         0.0950
       8    C2      19.524400   17.354608   21.289727 C.3        1 MOL1        -0.1415
       9    H6      19.176270   16.338112   21.063057 H          1 MOL1         0.0976
      10    H7      20.236283   17.610561   20.493748 H          1 MOL1         0.0976
      11    C3      20.249284   17.312050   22.661895 C.3        1 MOL1        -0.1375
      12    H8      21.054512   16.568290   22.584861 H          1 MOL1         0.0976
      13    H9      19.568270   16.928019   23.434041 H          1 MOL1         0.0976
      14    C4      20.876948   18.652733   23.122184 C.3        1 MOL1        -0.1375
      15    H10     21.817247   18.435411   23.647871 H          1 MOL1         0.0976
      16    H11     21.159176   19.258251   22.250736 H          1 MOL1         0.0976
      17    C5      19.967363   19.452123   24.086927 C.3        1 MOL1        -0.1350
      18    H12     19.842704   18.885105   25.020247 H          1 MOL1         0.0976
      19    H13     18.960138   19.573810   23.671033 H          1 MOL1         0.0976
      20    C6      20.560202   20.839417   24.412173 C.3        1 MOL1        -0.2365
      21    H14     21.548865   20.745108   24.880169 H          1 MOL1         0.0987
      22    H15     19.909983   21.385064   25.108352 H          1 MOL1         0.0987
      23    H16     20.669237   21.448744   23.505753 H          1 MOL1         0.0987
@<TRIPOS>BOND
    1     1     2    1
    2     1     3    1
    3     1     4    1
    4     1     5    1
    5     5     6    1
    6     5     7    1
    7     5     8    1
    8     8     9    1
    9     8    10    1
   10     8    11    1
   11    11    12    1
   12    11    13    1
   13    11    14    1
   14    14    15    1
   15    14    16    1
   16    14    17    1
   17    17    18    1
   18    17    19    1
   19    17    20    1
   20    20    21    1
   21    20    22    1
   22    20    23    1
@<TRIPOS>SUBSTRUCTURE
       1 MOL1            1 RESIDUE      1      MOL     
@<SCITEGIC>MOL_PROPERTY
VConf Rank
SciTegic.value.IntegerValue
975

@<SCITEGIC>MOL_PROPERTY
Conf_Id
SciTegic.value.IntegerValue
82

@<SCITEGIC>MOL_PROPERTY
Delta U+W
SciTegic.value.DoubleValue
5.994

@<SCITEGIC>MOL_PROPERTY
U+W
SciTegic.value.DoubleValue
-2.388

@<SCITEGIC>MOL_PROPERTY
Grad RMS
SciTegic.value.DoubleValue
0.000000

@<SCITEGIC>MOL_PROPERTY
U
SciTegic.value.DoubleValue
52.836

@<SCITEGIC>MOL_PROPERTY
W
SciTegic.value.DoubleValue
-55.224

@<SCITEGIC>MOL_PROPERTY
W(PB)
SciTegic.value.DoubleValue
-57.261

@<SCITEGIC>MOL_PROPERTY
W(SA)
SciTegic.value.DoubleValue
2.037

@<SCITEGIC>MOL_PROPERTY
Valence
SciTegic.value.DoubleValue
5.785

@<SCITEGIC>MOL_PROPERTY
Coulomb
SciTegic.value.DoubleValue
46.744

@<SCITEGIC>MOL_PROPERTY
VdW
SciTegic.value.DoubleValue
0.307

@<SCITEGIC>MOL_PROPERTY
VdW6
SciTegic.value.DoubleValue
-7.672

@<SCITEGIC>MOL_PROPERTY
VdW12
SciTegic.value.DoubleValue
7.979

@<SCITEGIC>MOL_PROPERTY
Bond
SciTegic.value.DoubleValue
0.217

@<SCITEGIC>MOL_PROPERTY
Angle
SciTegic.value.DoubleValue
1.470

@<SCITEGIC>MOL_PROPERTY
Pdih
SciTegic.value.DoubleValue
4.098

@<SCITEGIC>MOL_PROPERTY
Idih
SciTegic.value.DoubleValue
0.000

@<SCITEGIC>MOL_PROPERTY
Tether
SciTegic.value.DoubleValue
0.000

@<TRIPOS>MOLECULE
guest-2_confgen4.mol2 : confsearch ligand conformer 976
          23          22           1
SMALL
USER_CHARGES
 
@<TRIPOS>ATOM
       1    N1      21.792934   19.180148   23.282745 N.4        1 MOL1        -0.5940
       2    H1      21.984118   18.818193   24.222667 H          1 MOL1         0.3649
       3    H2      22.698926   19.286441   22.813510 H          1 MOL1         0.3649
       4    H3      21.268218   18.458692   22.777918 H          1 MOL1         0.3649
       5    C1      21.026813   20.487982   23.330524 C.3        1 MOL1         0.0207
       6    H4      20.907076   20.861359   22.310044 H          1 MOL1         0.0950
       7    H5      21.645957   21.200749   23.882007 H          1 MOL1         0.0950
       8    C2      19.648857   20.383035   24.015318 C.3        1 MOL1        -0.1415
       9    H6      19.732491   19.775404   24.926177 H          1 MOL1         0.0976
      10    H7      19.366475   21.389128   24.352772 H          1 MOL1         0.0976
      11    C3      18.502207   19.845388   23.117407 C.3        1 MOL1        -0.1375
      12    H8      18.333109   20.530246   22.274884 H          1 MOL1         0.0976
      13    H9      17.578040   19.877014   23.711056 H          1 MOL1         0.0976
      14    C4      18.689865   18.396607   22.598678 C.3        1 MOL1        -0.1375
      15    H10     19.294185   17.815302   23.307625 H          1 MOL1         0.0976
      16    H11     17.707504   17.904520   22.575110 H          1 MOL1         0.0976
      17    C5      19.287324   18.332702   21.171771 C.3        1 MOL1        -0.1350
      18    H12     20.201763   18.933325   21.098708 H          1 MOL1         0.0976
      19    H13     18.576085   18.777028   20.461246 H          1 MOL1         0.0976
      20    C6      19.590371   16.881007   20.744488 C.3        1 MOL1        -0.2365
      21    H14     20.324235   16.413528   21.413573 H          1 MOL1         0.0987
      22    H15     19.998648   16.854191   19.725778 H          1 MOL1         0.0987
      23    H16     18.679240   16.268597   20.757179 H          1 MOL1         0.0987
@<TRIPOS>BOND
    1     1     2    1
    2     1     3    1
    3     1     4    1
    4     1     5    1
    5     5     6    1
    6     5     7    1
    7     5     8    1
    8     8     9    1
    9     8    10    1
   10     8    11    1
   11    11    12    1
   12    11    13    1
   13    11    14    1
   14    14    15    1
   15    14    16    1
   16    14    17    1
   17    17    18    1
   18    17    19    1
   19    17    20    1
   20    20    21    1
   21    20    22    1
   22    20    23    1
@<TRIPOS>SUBSTRUCTURE
       1 MOL1            1 RESIDUE      1      MOL     
@<SCITEGIC>MOL_PROPERTY
VConf Rank
SciTegic.value.IntegerValue
976

@<SCITEGIC>MOL_PROPERTY
Conf_Id
SciTegic.value.IntegerValue
5

@<SCITEGIC>MOL_PROPERTY
Delta U+W
SciTegic.value.DoubleValue
6.087

@<SCITEGIC>MOL_PROPERTY
U+W
SciTegic.value.DoubleValue
-2.295

@<SCITEGIC>MOL_PROPERTY
Grad RMS
SciTegic.value.DoubleValue
0.000000

@<SCITEGIC>MOL_PROPERTY
U
SciTegic.value.DoubleValue
52.836

@<SCITEGIC>MOL_PROPERTY
W
SciTegic.value.DoubleValue
-55.131

@<SCITEGIC>MOL_PROPERTY
W(PB)
SciTegic.value.DoubleValue
-57.202

@<SCITEGIC>MOL_PROPERTY
W(SA)
SciTegic.value.DoubleValue
2.071

@<SCITEGIC>MOL_PROPERTY
Valence
SciTegic.value.DoubleValue
5.785

@<SCITEGIC>MOL_PROPERTY
Coulomb
SciTegic.value.DoubleValue
46.744

@<SCITEGIC>MOL_PROPERTY
VdW
SciTegic.value.DoubleValue
0.307

@<SCITEGIC>MOL_PROPERTY
VdW6
SciTegic.value.DoubleValue
-7.672

@<SCITEGIC>MOL_PROPERTY
VdW12
SciTegic.value.DoubleValue
7.980

@<SCITEGIC>MOL_PROPERTY
Bond
SciTegic.value.DoubleValue
0.217

@<SCITEGIC>MOL_PROPERTY
Angle
SciTegic.value.DoubleValue
1.470

@<SCITEGIC>MOL_PROPERTY
Pdih
SciTegic.value.DoubleValue
4.098

@<SCITEGIC>MOL_PROPERTY
Idih
SciTegic.value.DoubleValue
0.000

@<SCITEGIC>MOL_PROPERTY
Tether
SciTegic.value.DoubleValue
0.000

@<TRIPOS>MOLECULE
guest-2_confgen4.mol2 : confsearch ligand conformer 977
          23          22           1
SMALL
USER_CHARGES
 
@<TRIPOS>ATOM
       1    N1      22.929700   18.414828   20.497858 N.4        1 MOL1        -0.5940
       2    H1      22.826453   17.397824   20.420871 H          1 MOL1         0.3649
       3    H2      23.936187   18.611115   20.521283 H          1 MOL1         0.3649
       4    H3      22.567256   18.821347   19.629376 H          1 MOL1         0.3649
       5    C1      22.220525   18.964567   21.718823 C.3        1 MOL1         0.0207
       6    H4      22.396350   20.043146   21.754137 H          1 MOL1         0.0950
       7    H5      22.674995   18.513077   22.604888 H          1 MOL1         0.0950
       8    C2      20.706875   18.686324   21.714173 C.3        1 MOL1        -0.1415
       9    H6      20.257432   19.127539   20.814490 H          1 MOL1         0.0976
      10    H7      20.535102   17.602865   21.662129 H          1 MOL1         0.0976
      11    C3      20.022249   19.261830   22.973642 C.3        1 MOL1        -0.1375
      12    H8      20.200904   20.345001   23.024888 H          1 MOL1         0.0976
      13    H9      20.478249   18.821911   23.871605 H          1 MOL1         0.0976
      14    C4      18.501066   18.988019   22.979375 C.3        1 MOL1        -0.1375
      15    H10     18.044944   19.427953   22.081642 H          1 MOL1         0.0976
      16    H11     18.322259   17.905005   22.928157 H          1 MOL1         0.0976
      17    C5      17.816694   19.563636   24.239160 C.3        1 MOL1        -0.1350
      18    H12     17.990650   20.647492   24.293653 H          1 MOL1         0.0976
      19    H13     18.267930   19.124670   25.140086 H          1 MOL1         0.0976
      20    C6      16.297913   19.288306   24.241345 C.3        1 MOL1        -0.2365
      21    H14     15.829826   19.704244   25.142974 H          1 MOL1         0.0987
      22    H15     16.092107   18.210116   24.221844 H          1 MOL1         0.0987
      23    H16     15.812663   19.744812   23.368783 H          1 MOL1         0.0987
@<TRIPOS>BOND
    1     1     2    1
    2     1     3    1
    3     1     4    1
    4     1     5    1
    5     5     6    1
    6     5     7    1
    7     5     8    1
    8     8     9    1
    9     8    10    1
   10     8    11    1
   11    11    12    1
   12    11    13    1
   13    11    14    1
   14    14    15    1
   15    14    16    1
   16    14    17    1
   17    17    18    1
   18    17    19    1
   19    17    20    1
   20    20    21    1
   21    20    22    1
   22    20    23    1
@<TRIPOS>SUBSTRUCTURE
       1 MOL1            1 RESIDUE      1      MOL     
@<SCITEGIC>MOL_PROPERTY
VConf Rank
SciTegic.value.IntegerValue
977

@<SCITEGIC>MOL_PROPERTY
Conf_Id
SciTegic.value.IntegerValue
40

@<SCITEGIC>MOL_PROPERTY
Delta U+W
SciTegic.value.DoubleValue
0.000

@<SCITEGIC>MOL_PROPERTY
U+W
SciTegic.value.DoubleValue
-8.382

@<SCITEGIC>MOL_PROPERTY
Grad RMS
SciTegic.value.DoubleValue
0.000000

@<SCITEGIC>MOL_PROPERTY
U
SciTegic.value.DoubleValue
46.604

@<SCITEGIC>MOL_PROPERTY
W
SciTegic.value.DoubleValue
-54.986

@<SCITEGIC>MOL_PROPERTY
W(PB)
SciTegic.value.DoubleValue
-57.162

@<SCITEGIC>MOL_PROPERTY
W(SA)
SciTegic.value.DoubleValue
2.176

@<SCITEGIC>MOL_PROPERTY
Valence
SciTegic.value.DoubleValue
1.727

@<SCITEGIC>MOL_PROPERTY
Coulomb
SciTegic.value.DoubleValue
44.434

@<SCITEGIC>MOL_PROPERTY
VdW
SciTegic.value.DoubleValue
0.443

@<SCITEGIC>MOL_PROPERTY
VdW6
SciTegic.value.DoubleValue
-4.623

@<SCITEGIC>MOL_PROPERTY
VdW12
SciTegic.value.DoubleValue
5.066

@<SCITEGIC>MOL_PROPERTY
Bond
SciTegic.value.DoubleValue
0.112

@<SCITEGIC>MOL_PROPERTY
Angle
SciTegic.value.DoubleValue
0.386

@<SCITEGIC>MOL_PROPERTY
Pdih
SciTegic.value.DoubleValue
1.228

@<SCITEGIC>MOL_PROPERTY
Idih
SciTegic.value.DoubleValue
0.000

@<SCITEGIC>MOL_PROPERTY
Tether
SciTegic.value.DoubleValue
0.000

@<TRIPOS>MOLECULE
guest-2_confgen4.mol2 : confsearch ligand conformer 978
          23          22           1
SMALL
USER_CHARGES
 
@<TRIPOS>ATOM
       1    N1      19.604662   15.664013   21.390808 N.4        1 MOL1        -0.5940
       2    H1      20.265649   15.068083   21.899535 H          1 MOL1         0.3649
       3    H2      20.012177   15.846949   20.468149 H          1 MOL1         0.3649
       4    H3      18.757844   15.106007   21.237326 H          1 MOL1         0.3649
       5    C1      19.305898   16.945920   22.141300 C.3        1 MOL1         0.0207
       6    H4      18.849634   16.678277   23.098170 H          1 MOL1         0.0950
       7    H5      18.575607   17.512680   21.558224 H          1 MOL1         0.0950
       8    C2      20.559391   17.806779   22.387893 C.3        1 MOL1        -0.1415
       9    H6      21.302025   17.208758   22.932698 H          1 MOL1         0.0976
      10    H7      21.017423   18.076926   21.427054 H          1 MOL1         0.0976
      11    C3      20.257005   19.089263   23.198707 C.3        1 MOL1        -0.1375
      12    H8      21.210186   19.583017   23.428086 H          1 MOL1         0.0976
      13    H9      19.807795   18.815375   24.163366 H          1 MOL1         0.0976
      14    C4      19.326810   20.077256   22.449585 C.3        1 MOL1        -0.1375
      15    H10     19.786211   20.366892   21.494450 H          1 MOL1         0.0976
      16    H11     18.383202   19.575072   22.198742 H          1 MOL1         0.0976
      17    C5      18.992182   21.348438   23.267293 C.3        1 MOL1        -0.1350
      18    H12     18.522602   21.065115   24.219669 H          1 MOL1         0.0976
      19    H13     18.241605   21.933089   22.717118 H          1 MOL1         0.0976
      20    C6      20.219543   22.247818   23.539488 C.3        1 MOL1        -0.2365
      21    H14     20.946539   21.752035   24.194418 H          1 MOL1         0.0987
      22    H15     19.911521   23.177820   24.034631 H          1 MOL1         0.0987
      23    H16     20.726485   22.518090   22.604088 H          1 MOL1         0.0987
@<TRIPOS>BOND
    1     1     2    1
    2     1     3    1
    3     1     4    1
    4     1     5    1
    5     5     6    1
    6     5     7    1
    7     5     8    1
    8     8     9    1
    9     8    10    1
   10     8    11    1
   11    11    12    1
   12    11    13    1
   13    11    14    1
   14    14    15    1
   15    14    16    1
   16    14    17    1
   17    17    18    1
   18    17    19    1
   19    17    20    1
   20    20    21    1
   21    20    22    1
   22    20    23    1
@<TRIPOS>SUBSTRUCTURE
       1 MOL1            1 RESIDUE      1      MOL     
@<SCITEGIC>MOL_PROPERTY
VConf Rank
SciTegic.value.IntegerValue
978

@<SCITEGIC>MOL_PROPERTY
Conf_Id
SciTegic.value.IntegerValue
65

@<SCITEGIC>MOL_PROPERTY
Delta U+W
SciTegic.value.DoubleValue
1.004

@<SCITEGIC>MOL_PROPERTY
U+W
SciTegic.value.DoubleValue
-7.378

@<SCITEGIC>MOL_PROPERTY
Grad RMS
SciTegic.value.DoubleValue
0.000000

@<SCITEGIC>MOL_PROPERTY
U
SciTegic.value.DoubleValue
48.047

@<SCITEGIC>MOL_PROPERTY
W
SciTegic.value.DoubleValue
-55.425

@<SCITEGIC>MOL_PROPERTY
W(PB)
SciTegic.value.DoubleValue
-57.542

@<SCITEGIC>MOL_PROPERTY
W(SA)
SciTegic.value.DoubleValue
2.116

@<SCITEGIC>MOL_PROPERTY
Valence
SciTegic.value.DoubleValue
2.583

@<SCITEGIC>MOL_PROPERTY
Coulomb
SciTegic.value.DoubleValue
44.791

@<SCITEGIC>MOL_PROPERTY
VdW
SciTegic.value.DoubleValue
0.673

@<SCITEGIC>MOL_PROPERTY
VdW6
SciTegic.value.DoubleValue
-5.788

@<SCITEGIC>MOL_PROPERTY
VdW12
SciTegic.value.DoubleValue
6.462

@<SCITEGIC>MOL_PROPERTY
Bond
SciTegic.value.DoubleValue
0.177

@<SCITEGIC>MOL_PROPERTY
Angle
SciTegic.value.DoubleValue
0.787

@<SCITEGIC>MOL_PROPERTY
Pdih
SciTegic.value.DoubleValue
1.619

@<SCITEGIC>MOL_PROPERTY
Idih
SciTegic.value.DoubleValue
0.000

@<SCITEGIC>MOL_PROPERTY
Tether
SciTegic.value.DoubleValue
0.000

@<TRIPOS>MOLECULE
guest-2_confgen4.mol2 : confsearch ligand conformer 979
          23          22           1
SMALL
USER_CHARGES
 
@<TRIPOS>ATOM
       1    N1      19.604240   15.450346   22.620730 N.4        1 MOL1        -0.5940
       2    H1      19.109694   15.118407   23.455044 H          1 MOL1         0.3649
       3    H2      20.379871   14.799803   22.455751 H          1 MOL1         0.3649
       4    H3      18.959913   15.352494   21.829464 H          1 MOL1         0.3649
       5    C1      20.090029   16.876520   22.781386 C.3        1 MOL1         0.0207
       6    H4      20.631202   17.150186   21.872123 H          1 MOL1         0.0950
       7    H5      20.790928   16.901844   23.620141 H          1 MOL1         0.0950
       8    C2      18.947015   17.878684   23.031026 C.3        1 MOL1        -0.1415
       9    H6      18.243312   17.854535   22.188289 H          1 MOL1         0.0976
      10    H7      18.383703   17.564084   23.919650 H          1 MOL1         0.0976
      11    C3      19.452708   19.325097   23.244982 C.3        1 MOL1        -0.1375
      12    H8      20.148856   19.347820   24.094825 H          1 MOL1         0.0976
      13    H9      18.595678   19.950015   23.527718 H          1 MOL1         0.0976
      14    C4      20.139180   19.921324   21.989656 C.3        1 MOL1        -0.1375
      15    H10     20.981207   19.282233   21.692908 H          1 MOL1         0.0976
      16    H11     19.435753   19.917437   21.145621 H          1 MOL1         0.0976
      17    C5      20.677815   21.356539   22.205409 C.3        1 MOL1        -0.1350
      18    H12     21.247494   21.656028   21.314542 H          1 MOL1         0.0976
      19    H13     21.390273   21.364526   23.042153 H          1 MOL1         0.0976
      20    C6      19.566705   22.401060   22.457992 C.3        1 MOL1        -0.2365
      21    H14     19.047866   22.217704   23.406909 H          1 MOL1         0.0987
      22    H15     18.822943   22.389733   21.650713 H          1 MOL1         0.0987
      23    H16     19.993504   23.411231   22.506397 H          1 MOL1         0.0987
@<TRIPOS>BOND
    1     1     2    1
    2     1     3    1
    3     1     4    1
    4     1     5    1
    5     5     6    1
    6     5     7    1
    7     5     8    1
    8     8     9    1
    9     8    10    1
   10     8    11    1
   11    11    12    1
   12    11    13    1
   13    11    14    1
   14    14    15    1
   15    14    16    1
   16    14    17    1
   17    17    18    1
   18    17    19    1
   19    17    20    1
   20    20    21    1
   21    20    22    1
   22    20    23    1
@<TRIPOS>SUBSTRUCTURE
       1 MOL1            1 RESIDUE      1      MOL     
@<SCITEGIC>MOL_PROPERTY
VConf Rank
SciTegic.value.IntegerValue
979

@<SCITEGIC>MOL_PROPERTY
Conf_Id
SciTegic.value.IntegerValue
92

@<SCITEGIC>MOL_PROPERTY
Delta U+W
SciTegic.value.DoubleValue
0.973

@<SCITEGIC>MOL_PROPERTY
U+W
SciTegic.value.DoubleValue
-7.409

@<SCITEGIC>MOL_PROPERTY
Grad RMS
SciTegic.value.DoubleValue
0.000000

@<SCITEGIC>MOL_PROPERTY
U
SciTegic.value.DoubleValue
48.047

@<SCITEGIC>MOL_PROPERTY
W
SciTegic.value.DoubleValue
-55.456

@<SCITEGIC>MOL_PROPERTY
W(PB)
SciTegic.value.DoubleValue
-57.595

@<SCITEGIC>MOL_PROPERTY
W(SA)
SciTegic.value.DoubleValue
2.138

@<SCITEGIC>MOL_PROPERTY
Valence
SciTegic.value.DoubleValue
2.583

@<SCITEGIC>MOL_PROPERTY
Coulomb
SciTegic.value.DoubleValue
44.791

@<SCITEGIC>MOL_PROPERTY
VdW
SciTegic.value.DoubleValue
0.674

@<SCITEGIC>MOL_PROPERTY
VdW6
SciTegic.value.DoubleValue
-5.789

@<SCITEGIC>MOL_PROPERTY
VdW12
SciTegic.value.DoubleValue
6.462

@<SCITEGIC>MOL_PROPERTY
Bond
SciTegic.value.DoubleValue
0.177

@<SCITEGIC>MOL_PROPERTY
Angle
SciTegic.value.DoubleValue
0.787

@<SCITEGIC>MOL_PROPERTY
Pdih
SciTegic.value.DoubleValue
1.619

@<SCITEGIC>MOL_PROPERTY
Idih
SciTegic.value.DoubleValue
0.000

@<SCITEGIC>MOL_PROPERTY
Tether
SciTegic.value.DoubleValue
0.000

@<TRIPOS>MOLECULE
guest-2_confgen4.mol2 : confsearch ligand conformer 980
          23          22           1
SMALL
USER_CHARGES
 
@<TRIPOS>ATOM
       1    N1      21.696445   16.775295   24.566941 N.4        1 MOL1        -0.5940
       2    H1      22.680798   16.593752   24.343055 H          1 MOL1         0.3649
       3    H2      21.271702   15.870943   24.796274 H          1 MOL1         0.3649
       4    H3      21.684738   17.339501   25.422729 H          1 MOL1         0.3649
       5    C1      20.977176   17.464506   23.425268 C.3        1 MOL1         0.0207
       6    H4      21.053300   16.823865   22.542543 H          1 MOL1         0.0950
       7    H5      21.499999   18.401455   23.216759 H          1 MOL1         0.0950
       8    C2      19.494883   17.750981   23.731202 C.3        1 MOL1        -0.1415
       9    H6      18.991733   16.807728   23.982321 H          1 MOL1         0.0976
      10    H7      19.418480   18.393767   24.618323 H          1 MOL1         0.0976
      11    C3      18.756332   18.413163   22.544152 C.3        1 MOL1        -0.1375
      12    H8      17.690829   18.501870   22.797697 H          1 MOL1         0.0976
      13    H9      18.812537   17.755981   21.665174 H          1 MOL1         0.0976
      14    C4      19.312278   19.812604   22.186450 C.3        1 MOL1        -0.1375
      15    H10     19.285252   20.456931   23.076130 H          1 MOL1         0.0976
      16    H11     20.364788   19.732446   21.883373 H          1 MOL1         0.0976
      17    C5      18.506735   20.475887   21.047184 C.3        1 MOL1        -0.1350
      18    H12     17.452345   20.569013   21.343072 H          1 MOL1         0.0976
      19    H13     18.529890   19.834994   20.154605 H          1 MOL1         0.0976
      20    C6      19.062865   21.870858   20.690339 C.3        1 MOL1        -0.2365
      21    H14     19.021515   22.545466   21.555453 H          1 MOL1         0.0987
      22    H15     18.478007   22.325719   19.880347 H          1 MOL1         0.0987
      23    H16     20.106772   21.806304   20.356706 H          1 MOL1         0.0987
@<TRIPOS>BOND
    1     1     2    1
    2     1     3    1
    3     1     4    1
    4     1     5    1
    5     5     6    1
    6     5     7    1
    7     5     8    1
    8     8     9    1
    9     8    10    1
   10     8    11    1
   11    11    12    1
   12    11    13    1
   13    11    14    1
   14    14    15    1
   15    14    16    1
   16    14    17    1
   17    17    18    1
   18    17    19    1
   19    17    20    1
   20    20    21    1
   21    20    22    1
   22    20    23    1
@<TRIPOS>SUBSTRUCTURE
       1 MOL1            1 RESIDUE      1      MOL     
@<SCITEGIC>MOL_PROPERTY
VConf Rank
SciTegic.value.IntegerValue
980

@<SCITEGIC>MOL_PROPERTY
Conf_Id
SciTegic.value.IntegerValue
42

@<SCITEGIC>MOL_PROPERTY
Delta U+W
SciTegic.value.DoubleValue
0.365

@<SCITEGIC>MOL_PROPERTY
U+W
SciTegic.value.DoubleValue
-8.017

@<SCITEGIC>MOL_PROPERTY
Grad RMS
SciTegic.value.DoubleValue
0.000000

@<SCITEGIC>MOL_PROPERTY
U
SciTegic.value.DoubleValue
47.375

@<SCITEGIC>MOL_PROPERTY
W
SciTegic.value.DoubleValue
-55.392

@<SCITEGIC>MOL_PROPERTY
W(PB)
SciTegic.value.DoubleValue
-57.543

@<SCITEGIC>MOL_PROPERTY
W(SA)
SciTegic.value.DoubleValue
2.152

@<SCITEGIC>MOL_PROPERTY
Valence
SciTegic.value.DoubleValue
2.032

@<SCITEGIC>MOL_PROPERTY
Coulomb
SciTegic.value.DoubleValue
44.843

@<SCITEGIC>MOL_PROPERTY
VdW
SciTegic.value.DoubleValue
0.499

@<SCITEGIC>MOL_PROPERTY
VdW6
SciTegic.value.DoubleValue
-5.218

@<SCITEGIC>MOL_PROPERTY
VdW12
SciTegic.value.DoubleValue
5.717

@<SCITEGIC>MOL_PROPERTY
Bond
SciTegic.value.DoubleValue
0.135

@<SCITEGIC>MOL_PROPERTY
Angle
SciTegic.value.DoubleValue
0.514

@<SCITEGIC>MOL_PROPERTY
Pdih
SciTegic.value.DoubleValue
1.383

@<SCITEGIC>MOL_PROPERTY
Idih
SciTegic.value.DoubleValue
0.000

@<SCITEGIC>MOL_PROPERTY
Tether
SciTegic.value.DoubleValue
0.000

@<TRIPOS>MOLECULE
guest-2_confgen4.mol2 : confsearch ligand conformer 981
          23          22           1
SMALL
USER_CHARGES
 
@<TRIPOS>ATOM
       1    N1      18.711293   19.393504   19.647778 N.4        1 MOL1        -0.5940
       2    H1      17.870282   19.896038   19.949098 H          1 MOL1         0.3649
       3    H2      18.552744   19.100378   18.677784 H          1 MOL1         0.3649
       4    H3      19.479898   20.070591   19.633600 H          1 MOL1         0.3649
       5    C1      19.016172   18.213025   20.549499 C.3        1 MOL1         0.0207
       6    H4      19.905467   17.709110   20.161369 H          1 MOL1         0.0950
       7    H5      18.174236   17.518831   20.480148 H          1 MOL1         0.0950
       8    C2      19.239556   18.596829   22.025313 C.3        1 MOL1        -0.1415
       9    H6      18.356121   19.127090   22.404809 H          1 MOL1         0.0976
      10    H7      19.328820   17.668694   22.602995 H          1 MOL1         0.0976
      11    C3      20.509525   19.457213   22.234416 C.3        1 MOL1        -0.1375
      12    H8      20.467968   20.335601   21.577119 H          1 MOL1         0.0976
      13    H9      21.393081   18.883503   21.922022 H          1 MOL1         0.0976
      14    C4      20.709554   19.959169   23.688062 C.3        1 MOL1        -0.1375
      15    H10     21.610283   20.588500   23.698738 H          1 MOL1         0.0976
      16    H11     19.882623   20.623135   23.975394 H          1 MOL1         0.0976
      17    C5      20.891376   18.840131   24.745954 C.3        1 MOL1        -0.1350
      18    H12     21.612758   19.185132   25.499980 H          1 MOL1         0.0976
      19    H13     21.339345   17.948215   24.286163 H          1 MOL1         0.0976
      20    C6      19.580248   18.467986   25.477195 C.3        1 MOL1        -0.2365
      21    H14     19.165091   19.337498   26.003171 H          1 MOL1         0.0987
      22    H15     19.766083   17.685333   26.224079 H          1 MOL1         0.0987
      23    H16     18.814729   18.094316   24.788376 H          1 MOL1         0.0987
@<TRIPOS>BOND
    1     1     2    1
    2     1     3    1
    3     1     4    1
    4     1     5    1
    5     5     6    1
    6     5     7    1
    7     5     8    1
    8     8     9    1
    9     8    10    1
   10     8    11    1
   11    11    12    1
   12    11    13    1
   13    11    14    1
   14    14    15    1
   15    14    16    1
   16    14    17    1
   17    17    18    1
   18    17    19    1
   19    17    20    1
   20    20    21    1
   21    20    22    1
   22    20    23    1
@<TRIPOS>SUBSTRUCTURE
       1 MOL1            1 RESIDUE      1      MOL     
@<SCITEGIC>MOL_PROPERTY
VConf Rank
SciTegic.value.IntegerValue
981

@<SCITEGIC>MOL_PROPERTY
Conf_Id
SciTegic.value.IntegerValue
3

@<SCITEGIC>MOL_PROPERTY
Delta U+W
SciTegic.value.DoubleValue
3.283

@<SCITEGIC>MOL_PROPERTY
U+W
SciTegic.value.DoubleValue
-5.099

@<SCITEGIC>MOL_PROPERTY
Grad RMS
SciTegic.value.DoubleValue
0.000000

@<SCITEGIC>MOL_PROPERTY
U
SciTegic.value.DoubleValue
50.701

@<SCITEGIC>MOL_PROPERTY
W
SciTegic.value.DoubleValue
-55.800

@<SCITEGIC>MOL_PROPERTY
W(PB)
SciTegic.value.DoubleValue
-57.867

@<SCITEGIC>MOL_PROPERTY
W(SA)
SciTegic.value.DoubleValue
2.067

@<SCITEGIC>MOL_PROPERTY
Valence
SciTegic.value.DoubleValue
4.880

@<SCITEGIC>MOL_PROPERTY
Coulomb
SciTegic.value.DoubleValue
45.095

@<SCITEGIC>MOL_PROPERTY
VdW
SciTegic.value.DoubleValue
0.726

@<SCITEGIC>MOL_PROPERTY
VdW6
SciTegic.value.DoubleValue
-6.620

@<SCITEGIC>MOL_PROPERTY
VdW12
SciTegic.value.DoubleValue
7.346

@<SCITEGIC>MOL_PROPERTY
Bond
SciTegic.value.DoubleValue
0.222

@<SCITEGIC>MOL_PROPERTY
Angle
SciTegic.value.DoubleValue
1.260

@<SCITEGIC>MOL_PROPERTY
Pdih
SciTegic.value.DoubleValue
3.398

@<SCITEGIC>MOL_PROPERTY
Idih
SciTegic.value.DoubleValue
0.000

@<SCITEGIC>MOL_PROPERTY
Tether
SciTegic.value.DoubleValue
0.000

@<TRIPOS>MOLECULE
guest-2_confgen4.mol2 : confsearch ligand conformer 982
          23          22           1
SMALL
USER_CHARGES
 
@<TRIPOS>ATOM
       1    N1      19.606709   21.500741   21.007490 N.4        1 MOL1        -0.5940
       2    H1      20.516598   21.918066   20.787270 H          1 MOL1         0.3649
       3    H2      18.893830   22.077685   20.548388 H          1 MOL1         0.3649
       4    H3      19.580145   20.578553   20.561999 H          1 MOL1         0.3649
       5    C1      19.377736   21.406326   22.503133 C.3        1 MOL1         0.0207
       6    H4      18.383247   20.984086   22.668045 H          1 MOL1         0.0950
       7    H5      19.384294   22.423011   22.905423 H          1 MOL1         0.0950
       8    C2      20.434841   20.558502   23.240017 C.3        1 MOL1        -0.1415
       9    H6      21.421075   21.023086   23.108455 H          1 MOL1         0.0976
      10    H7      20.223582   20.590355   24.317149 H          1 MOL1         0.0976
      11    C3      20.500046   19.081248   22.776210 C.3        1 MOL1        -0.1375
      12    H8      21.306610   18.585948   23.332093 H          1 MOL1         0.0976
      13    H9      20.785332   19.034019   21.716904 H          1 MOL1         0.0976
      14    C4      19.171738   18.313480   22.996568 C.3        1 MOL1        -0.1375
      15    H10     18.902132   18.338146   24.061403 H          1 MOL1         0.0976
      16    H11     18.359612   18.821949   22.460596 H          1 MOL1         0.0976
      17    C5      19.221468   16.844438   22.510883 C.3        1 MOL1        -0.1350
      18    H12     19.480130   16.813983   21.443226 H          1 MOL1         0.0976
      19    H13     18.214586   16.412037   22.595029 H          1 MOL1         0.0976
      20    C6      20.208045   15.963251   23.310584 C.3        1 MOL1        -0.2365
      21    H14     19.990984   16.003175   24.385896 H          1 MOL1         0.0987
      22    H15     21.247367   16.278681   23.157085 H          1 MOL1         0.0987
      23    H16     20.131851   14.915602   22.991900 H          1 MOL1         0.0987
@<TRIPOS>BOND
    1     1     2    1
    2     1     3    1
    3     1     4    1
    4     1     5    1
    5     5     6    1
    6     5     7    1
    7     5     8    1
    8     8     9    1
    9     8    10    1
   10     8    11    1
   11    11    12    1
   12    11    13    1
   13    11    14    1
   14    14    15    1
   15    14    16    1
   16    14    17    1
   17    17    18    1
   18    17    19    1
   19    17    20    1
   20    20    21    1
   21    20    22    1
   22    20    23    1
@<TRIPOS>SUBSTRUCTURE
       1 MOL1            1 RESIDUE      1      MOL     
@<SCITEGIC>MOL_PROPERTY
VConf Rank
SciTegic.value.IntegerValue
982

@<SCITEGIC>MOL_PROPERTY
Conf_Id
SciTegic.value.IntegerValue
83

@<SCITEGIC>MOL_PROPERTY
Delta U+W
SciTegic.value.DoubleValue
1.229

@<SCITEGIC>MOL_PROPERTY
U+W
SciTegic.value.DoubleValue
-7.154

@<SCITEGIC>MOL_PROPERTY
Grad RMS
SciTegic.value.DoubleValue
0.000000

@<SCITEGIC>MOL_PROPERTY
U
SciTegic.value.DoubleValue
48.727

@<SCITEGIC>MOL_PROPERTY
W
SciTegic.value.DoubleValue
-55.880

@<SCITEGIC>MOL_PROPERTY
W(PB)
SciTegic.value.DoubleValue
-57.960

@<SCITEGIC>MOL_PROPERTY
W(SA)
SciTegic.value.DoubleValue
2.080

@<SCITEGIC>MOL_PROPERTY
Valence
SciTegic.value.DoubleValue
2.671

@<SCITEGIC>MOL_PROPERTY
Coulomb
SciTegic.value.DoubleValue
45.371

@<SCITEGIC>MOL_PROPERTY
VdW
SciTegic.value.DoubleValue
0.684

@<SCITEGIC>MOL_PROPERTY
VdW6
SciTegic.value.DoubleValue
-6.511

@<SCITEGIC>MOL_PROPERTY
VdW12
SciTegic.value.DoubleValue
7.195

@<SCITEGIC>MOL_PROPERTY
Bond
SciTegic.value.DoubleValue
0.203

@<SCITEGIC>MOL_PROPERTY
Angle
SciTegic.value.DoubleValue
0.915

@<SCITEGIC>MOL_PROPERTY
Pdih
SciTegic.value.DoubleValue
1.554

@<SCITEGIC>MOL_PROPERTY
Idih
SciTegic.value.DoubleValue
0.000

@<SCITEGIC>MOL_PROPERTY
Tether
SciTegic.value.DoubleValue
0.000

@<TRIPOS>MOLECULE
guest-2_confgen4.mol2 : confsearch ligand conformer 983
          23          22           1
SMALL
USER_CHARGES
 
@<TRIPOS>ATOM
       1    N1      20.206894   21.861812   23.013617 N.4        1 MOL1        -0.5940
       2    H1      19.887803   22.456014   22.241829 H          1 MOL1         0.3649
       3    H2      20.937942   21.247976   22.641629 H          1 MOL1         0.3649
       4    H3      20.652469   22.478324   23.701521 H          1 MOL1         0.3649
       5    C1      19.067009   21.069081   23.622332 C.3        1 MOL1         0.0207
       6    H4      18.344797   21.782892   24.027805 H          1 MOL1         0.0950
       7    H5      19.467111   20.483811   24.454118 H          1 MOL1         0.0950
       8    C2      18.356028   20.136229   22.620549 C.3        1 MOL1        -0.1415
       9    H6      17.515687   19.646636   23.130437 H          1 MOL1         0.0976
      10    H7      17.914955   20.742531   21.818266 H          1 MOL1         0.0976
      11    C3      19.274838   19.054930   21.997469 C.3        1 MOL1        -0.1375
      12    H8      20.077398   19.533247   21.420530 H          1 MOL1         0.0976
      13    H9      18.681037   18.479448   21.275599 H          1 MOL1         0.0976
      14    C4      19.885675   18.093791   23.048907 C.3        1 MOL1        -0.1375
      15    H10     20.459816   18.671074   23.785426 H          1 MOL1         0.0976
      16    H11     19.080868   17.595223   23.606477 H          1 MOL1         0.0976
      17    C5      20.825927   17.027578   22.436078 C.3        1 MOL1        -0.1350
      18    H12     21.303127   16.468358   23.253035 H          1 MOL1         0.0976
      19    H13     21.639406   17.520812   21.885897 H          1 MOL1         0.0976
      20    C6      20.101483   16.026852   21.507062 C.3        1 MOL1        -0.2365
      21    H14     19.262123   15.544177   22.024273 H          1 MOL1         0.0987
      22    H15     20.791556   15.238441   21.179737 H          1 MOL1         0.0987
      23    H16     19.713991   16.519075   20.606613 H          1 MOL1         0.0987
@<TRIPOS>BOND
    1     1     2    1
    2     1     3    1
    3     1     4    1
    4     1     5    1
    5     5     6    1
    6     5     7    1
    7     5     8    1
    8     8     9    1
    9     8    10    1
   10     8    11    1
   11    11    12    1
   12    11    13    1
   13    11    14    1
   14    14    15    1
   15    14    16    1
   16    14    17    1
   17    17    18    1
   18    17    19    1
   19    17    20    1
   20    20    21    1
   21    20    22    1
   22    20    23    1
@<TRIPOS>SUBSTRUCTURE
       1 MOL1            1 RESIDUE      1      MOL     
@<SCITEGIC>MOL_PROPERTY
VConf Rank
SciTegic.value.IntegerValue
983

@<SCITEGIC>MOL_PROPERTY
Conf_Id
SciTegic.value.IntegerValue
50

@<SCITEGIC>MOL_PROPERTY
Delta U+W
SciTegic.value.DoubleValue
1.252

@<SCITEGIC>MOL_PROPERTY
U+W
SciTegic.value.DoubleValue
-7.130

@<SCITEGIC>MOL_PROPERTY
Grad RMS
SciTegic.value.DoubleValue
0.000000

@<SCITEGIC>MOL_PROPERTY
U
SciTegic.value.DoubleValue
48.727

@<SCITEGIC>MOL_PROPERTY
W
SciTegic.value.DoubleValue
-55.857

@<SCITEGIC>MOL_PROPERTY
W(PB)
SciTegic.value.DoubleValue
-57.937

@<SCITEGIC>MOL_PROPERTY
W(SA)
SciTegic.value.DoubleValue
2.080

@<SCITEGIC>MOL_PROPERTY
Valence
SciTegic.value.DoubleValue
2.671

@<SCITEGIC>MOL_PROPERTY
Coulomb
SciTegic.value.DoubleValue
45.371

@<SCITEGIC>MOL_PROPERTY
VdW
SciTegic.value.DoubleValue
0.684

@<SCITEGIC>MOL_PROPERTY
VdW6
SciTegic.value.DoubleValue
-6.511

@<SCITEGIC>MOL_PROPERTY
VdW12
SciTegic.value.DoubleValue
7.196

@<SCITEGIC>MOL_PROPERTY
Bond
SciTegic.value.DoubleValue
0.203

@<SCITEGIC>MOL_PROPERTY
Angle
SciTegic.value.DoubleValue
0.915

@<SCITEGIC>MOL_PROPERTY
Pdih
SciTegic.value.DoubleValue
1.554

@<SCITEGIC>MOL_PROPERTY
Idih
SciTegic.value.DoubleValue
0.000

@<SCITEGIC>MOL_PROPERTY
Tether
SciTegic.value.DoubleValue
0.000

@<TRIPOS>MOLECULE
guest-2_confgen4.mol2 : confsearch ligand conformer 984
          23          22           1
SMALL
USER_CHARGES
 
@<TRIPOS>ATOM
       1    N1      17.245949   18.021078   21.028988 N.4        1 MOL1        -0.5940
       2    H1      16.924609   17.988967   22.001224 H          1 MOL1         0.3649
       3    H2      16.799251   17.238036   20.539870 H          1 MOL1         0.3649
       4    H3      16.874941   18.882374   20.615288 H          1 MOL1         0.3649
       5    C1      18.757832   17.955382   20.933420 C.3        1 MOL1         0.0207
       6    H4      19.022873   17.952550   19.872610 H          1 MOL1         0.0950
       7    H5      19.084490   17.006969   21.368414 H          1 MOL1         0.0950
       8    C2      19.477294   19.122945   21.636221 C.3        1 MOL1        -0.1415
       9    H6      20.548443   19.046168   21.418486 H          1 MOL1         0.0976
      10    H7      19.142152   20.073080   21.199539 H          1 MOL1         0.0976
      11    C3      19.240453   19.134984   23.168030 C.3        1 MOL1        -0.1375
      12    H8      19.483977   18.154664   23.600493 H          1 MOL1         0.0976
      13    H9      18.169677   19.292494   23.354086 H          1 MOL1         0.0976
      14    C4      20.028019   20.250692   23.903586 C.3        1 MOL1        -0.1375
      15    H10     20.181410   21.111673   23.238473 H          1 MOL1         0.0976
      16    H11     19.404912   20.622326   24.728884 H          1 MOL1         0.0976
      17    C5      21.380922   19.797305   24.509640 C.3        1 MOL1        -0.1350
      18    H12     21.205528   19.004116   25.249817 H          1 MOL1         0.0976
      19    H13     21.813973   20.640810   25.065319 H          1 MOL1         0.0976
      20    C6      22.412642   19.308097   23.469803 C.3        1 MOL1        -0.2365
      21    H14     22.566843   20.056703   22.681992 H          1 MOL1         0.0987
      22    H15     22.093063   18.368460   23.002658 H          1 MOL1         0.0987
      23    H16     23.381984   19.121773   23.949956 H          1 MOL1         0.0987
@<TRIPOS>BOND
    1     1     2    1
    2     1     3    1
    3     1     4    1
    4     1     5    1
    5     5     6    1
    6     5     7    1
    7     5     8    1
    8     8     9    1
    9     8    10    1
   10     8    11    1
   11    11    12    1
   12    11    13    1
   13    11    14    1
   14    14    15    1
   15    14    16    1
   16    14    17    1
   17    17    18    1
   18    17    19    1
   19    17    20    1
   20    20    21    1
   21    20    22    1
   22    20    23    1
@<TRIPOS>SUBSTRUCTURE
       1 MOL1            1 RESIDUE      1      MOL     
@<SCITEGIC>MOL_PROPERTY
VConf Rank
SciTegic.value.IntegerValue
984

@<SCITEGIC>MOL_PROPERTY
Conf_Id
SciTegic.value.IntegerValue
55

@<SCITEGIC>MOL_PROPERTY
Delta U+W
SciTegic.value.DoubleValue
3.232

@<SCITEGIC>MOL_PROPERTY
U+W
SciTegic.value.DoubleValue
-5.150

@<SCITEGIC>MOL_PROPERTY
Grad RMS
SciTegic.value.DoubleValue
0.000000

@<SCITEGIC>MOL_PROPERTY
U
SciTegic.value.DoubleValue
50.625

@<SCITEGIC>MOL_PROPERTY
W
SciTegic.value.DoubleValue
-55.776

@<SCITEGIC>MOL_PROPERTY
W(PB)
SciTegic.value.DoubleValue
-57.839

@<SCITEGIC>MOL_PROPERTY
W(SA)
SciTegic.value.DoubleValue
2.064

@<SCITEGIC>MOL_PROPERTY
Valence
SciTegic.value.DoubleValue
4.837

@<SCITEGIC>MOL_PROPERTY
Coulomb
SciTegic.value.DoubleValue
45.097

@<SCITEGIC>MOL_PROPERTY
VdW
SciTegic.value.DoubleValue
0.692

@<SCITEGIC>MOL_PROPERTY
VdW6
SciTegic.value.DoubleValue
-6.655

@<SCITEGIC>MOL_PROPERTY
VdW12
SciTegic.value.DoubleValue
7.347

@<SCITEGIC>MOL_PROPERTY
Bond
SciTegic.value.DoubleValue
0.223

@<SCITEGIC>MOL_PROPERTY
Angle
SciTegic.value.DoubleValue
1.167

@<SCITEGIC>MOL_PROPERTY
Pdih
SciTegic.value.DoubleValue
3.447

@<SCITEGIC>MOL_PROPERTY
Idih
SciTegic.value.DoubleValue
0.000

@<SCITEGIC>MOL_PROPERTY
Tether
SciTegic.value.DoubleValue
0.000

@<TRIPOS>MOLECULE
guest-2_confgen4.mol2 : confsearch ligand conformer 985
          23          22           1
SMALL
USER_CHARGES
 
@<TRIPOS>ATOM
       1    N1      17.739818   19.904518   24.751577 N.4        1 MOL1        -0.5940
       2    H1      17.235008   20.794446   24.688152 H          1 MOL1         0.3649
       3    H2      17.902891   19.725248   25.748206 H          1 MOL1         0.3649
       4    H3      17.104228   19.173108   24.417181 H          1 MOL1         0.3649
       5    C1      19.034502   19.932004   23.965010 C.3        1 MOL1         0.0207
       6    H4      19.531775   18.970936   24.107866 H          1 MOL1         0.0950
       7    H5      19.670820   20.711594   24.392490 H          1 MOL1         0.0950
       8    C2      18.821345   20.206681   22.463377 C.3        1 MOL1        -0.1415
       9    H6      18.145876   19.457261   22.029817 H          1 MOL1         0.0976
      10    H7      18.314330   21.175673   22.363330 H          1 MOL1         0.0976
      11    C3      20.145786   20.258416   21.660480 C.3        1 MOL1        -0.1375
      12    H8      20.930918   20.739646   22.260137 H          1 MOL1         0.0976
      13    H9      19.992849   20.913266   20.791412 H          1 MOL1         0.0976
      14    C4      20.643864   18.888440   21.130803 C.3        1 MOL1        -0.1375
      15    H10     19.893571   18.465037   20.448833 H          1 MOL1         0.0976
      16    H11     21.542592   19.063514   20.523285 H          1 MOL1         0.0976
      17    C5      20.977388   17.854958   22.231339 C.3        1 MOL1        -0.1350
      18    H12     20.058494   17.549646   22.748381 H          1 MOL1         0.0976
      19    H13     21.639219   18.308654   22.982217 H          1 MOL1         0.0976
      20    C6      21.654406   16.597693   21.645155 C.3        1 MOL1        -0.2365
      21    H14     22.600936   16.852322   21.150728 H          1 MOL1         0.0987
      22    H15     21.004929   16.107087   20.908450 H          1 MOL1         0.0987
      23    H16     21.874093   15.870642   22.437724 H          1 MOL1         0.0987
@<TRIPOS>BOND
    1     1     2    1
    2     1     3    1
    3     1     4    1
    4     1     5    1
    5     5     6    1
    6     5     7    1
    7     5     8    1
    8     8     9    1
    9     8    10    1
   10     8    11    1
   11    11    12    1
   12    11    13    1
   13    11    14    1
   14    14    15    1
   15    14    16    1
   16    14    17    1
   17    17    18    1
   18    17    19    1
   19    17    20    1
   20    20    21    1
   21    20    22    1
   22    20    23    1
@<TRIPOS>SUBSTRUCTURE
       1 MOL1            1 RESIDUE      1      MOL     
@<SCITEGIC>MOL_PROPERTY
VConf Rank
SciTegic.value.IntegerValue
985

@<SCITEGIC>MOL_PROPERTY
Conf_Id
SciTegic.value.IntegerValue
93

@<SCITEGIC>MOL_PROPERTY
Delta U+W
SciTegic.value.DoubleValue
2.589

@<SCITEGIC>MOL_PROPERTY
U+W
SciTegic.value.DoubleValue
-5.793

@<SCITEGIC>MOL_PROPERTY
Grad RMS
SciTegic.value.DoubleValue
0.000000

@<SCITEGIC>MOL_PROPERTY
U
SciTegic.value.DoubleValue
50.122

@<SCITEGIC>MOL_PROPERTY
W
SciTegic.value.DoubleValue
-55.915

@<SCITEGIC>MOL_PROPERTY
W(PB)
SciTegic.value.DoubleValue
-58.031

@<SCITEGIC>MOL_PROPERTY
W(SA)
SciTegic.value.DoubleValue
2.115

@<SCITEGIC>MOL_PROPERTY
Valence
SciTegic.value.DoubleValue
4.132

@<SCITEGIC>MOL_PROPERTY
Coulomb
SciTegic.value.DoubleValue
45.536

@<SCITEGIC>MOL_PROPERTY
VdW
SciTegic.value.DoubleValue
0.454

@<SCITEGIC>MOL_PROPERTY
VdW6
SciTegic.value.DoubleValue
-6.262

@<SCITEGIC>MOL_PROPERTY
VdW12
SciTegic.value.DoubleValue
6.715

@<SCITEGIC>MOL_PROPERTY
Bond
SciTegic.value.DoubleValue
0.182

@<SCITEGIC>MOL_PROPERTY
Angle
SciTegic.value.DoubleValue
1.157

@<SCITEGIC>MOL_PROPERTY
Pdih
SciTegic.value.DoubleValue
2.794

@<SCITEGIC>MOL_PROPERTY
Idih
SciTegic.value.DoubleValue
0.000

@<SCITEGIC>MOL_PROPERTY
Tether
SciTegic.value.DoubleValue
0.000

@<TRIPOS>MOLECULE
guest-2_confgen4.mol2 : confsearch ligand conformer 986
          23          22           1
SMALL
USER_CHARGES
 
@<TRIPOS>ATOM
       1    N1      18.055913   20.498022   20.415197 N.4        1 MOL1        -0.5940
       2    H1      17.687290   21.119100   21.142614 H          1 MOL1         0.3649
       3    H2      17.248407   20.055352   19.963560 H          1 MOL1         0.3649
       4    H3      18.502579   21.092404   19.709485 H          1 MOL1         0.3649
       5    C1      19.017262   19.472501   20.980671 C.3        1 MOL1         0.0207
       6    H4      19.345658   18.830747   20.158657 H          1 MOL1         0.0950
       7    H5      18.466195   18.856571   21.693618 H          1 MOL1         0.0950
       8    C2      20.245787   20.108794   21.660115 C.3        1 MOL1        -0.1415
       9    H6      20.767001   20.723387   20.914038 H          1 MOL1         0.0976
      10    H7      19.929384   20.792855   22.458747 H          1 MOL1         0.0976
      11    C3      21.242223   19.061724   22.218885 C.3        1 MOL1        -0.1375
      12    H8      22.245210   19.510629   22.218384 H          1 MOL1         0.0976
      13    H9      21.302560   18.199753   21.539938 H          1 MOL1         0.0976
      14    C4      20.945999   18.582457   23.663887 C.3        1 MOL1        -0.1375
      15    H10     21.753648   17.903507   23.970756 H          1 MOL1         0.0976
      16    H11     20.991792   19.439265   24.350236 H          1 MOL1         0.0976
      17    C5      19.590849   17.858598   23.837377 C.3        1 MOL1        -0.1350
      18    H12     19.487498   17.071220   23.077752 H          1 MOL1         0.0976
      19    H13     18.766359   18.567419   23.686692 H          1 MOL1         0.0976
      20    C6      19.454462   17.235000   25.242797 C.3        1 MOL1        -0.2365
      21    H14     18.483287   16.735173   25.352439 H          1 MOL1         0.0987
      22    H15     19.528328   18.002840   26.023960 H          1 MOL1         0.0987
      23    H16     20.239008   16.488281   25.421997 H          1 MOL1         0.0987
@<TRIPOS>BOND
    1     1     2    1
    2     1     3    1
    3     1     4    1
    4     1     5    1
    5     5     6    1
    6     5     7    1
    7     5     8    1
    8     8     9    1
    9     8    10    1
   10     8    11    1
   11    11    12    1
   12    11    13    1
   13    11    14    1
   14    14    15    1
   15    14    16    1
   16    14    17    1
   17    17    18    1
   18    17    19    1
   19    17    20    1
   20    20    21    1
   21    20    22    1
   22    20    23    1
@<TRIPOS>SUBSTRUCTURE
       1 MOL1            1 RESIDUE      1      MOL     
@<SCITEGIC>MOL_PROPERTY
VConf Rank
SciTegic.value.IntegerValue
986

@<SCITEGIC>MOL_PROPERTY
Conf_Id
SciTegic.value.IntegerValue
70

@<SCITEGIC>MOL_PROPERTY
Delta U+W
SciTegic.value.DoubleValue
2.599

@<SCITEGIC>MOL_PROPERTY
U+W
SciTegic.value.DoubleValue
-5.783

@<SCITEGIC>MOL_PROPERTY
Grad RMS
SciTegic.value.DoubleValue
0.000000

@<SCITEGIC>MOL_PROPERTY
U
SciTegic.value.DoubleValue
50.122

@<SCITEGIC>MOL_PROPERTY
W
SciTegic.value.DoubleValue
-55.906

@<SCITEGIC>MOL_PROPERTY
W(PB)
SciTegic.value.DoubleValue
-58.010

@<SCITEGIC>MOL_PROPERTY
W(SA)
SciTegic.value.DoubleValue
2.105

@<SCITEGIC>MOL_PROPERTY
Valence
SciTegic.value.DoubleValue
4.132

@<SCITEGIC>MOL_PROPERTY
Coulomb
SciTegic.value.DoubleValue
45.536

@<SCITEGIC>MOL_PROPERTY
VdW
SciTegic.value.DoubleValue
0.454

@<SCITEGIC>MOL_PROPERTY
VdW6
SciTegic.value.DoubleValue
-6.262

@<SCITEGIC>MOL_PROPERTY
VdW12
SciTegic.value.DoubleValue
6.715

@<SCITEGIC>MOL_PROPERTY
Bond
SciTegic.value.DoubleValue
0.182

@<SCITEGIC>MOL_PROPERTY
Angle
SciTegic.value.DoubleValue
1.157

@<SCITEGIC>MOL_PROPERTY
Pdih
SciTegic.value.DoubleValue
2.794

@<SCITEGIC>MOL_PROPERTY
Idih
SciTegic.value.DoubleValue
0.000

@<SCITEGIC>MOL_PROPERTY
Tether
SciTegic.value.DoubleValue
0.000

@<TRIPOS>MOLECULE
guest-2_confgen4.mol2 : confsearch ligand conformer 987
          23          22           1
SMALL
USER_CHARGES
 
@<TRIPOS>ATOM
       1    N1      21.381265   16.940548   23.786969 N.4        1 MOL1        -0.5940
       2    H1      21.622539   16.901890   24.782358 H          1 MOL1         0.3649
       3    H2      21.968858   16.248800   23.309494 H          1 MOL1         0.3649
       4    H3      20.410882   16.624447   23.698073 H          1 MOL1         0.3649
       5    C1      21.570890   18.331897   23.215632 C.3        1 MOL1         0.0207
       6    H4      21.330446   18.297155   22.149834 H          1 MOL1         0.0950
       7    H5      22.627947   18.592385   23.316978 H          1 MOL1         0.0950
       8    C2      20.709551   19.407031   23.908427 C.3        1 MOL1        -0.1415
       9    H6      20.983757   19.457109   24.970508 H          1 MOL1         0.0976
      10    H7      20.962695   20.388687   23.488085 H          1 MOL1         0.0976
      11    C3      19.181853   19.165201   23.787341 C.3        1 MOL1        -0.1375
      12    H8      18.652369   19.996895   24.272247 H          1 MOL1         0.0976
      13    H9      18.910933   18.267761   24.359562 H          1 MOL1         0.0976
      14    C4      18.658283   19.010041   22.335928 C.3        1 MOL1        -0.1375
      15    H10     19.107417   18.125154   21.865667 H          1 MOL1         0.0976
      16    H11     17.577715   18.814994   22.376777 H          1 MOL1         0.0976
      17    C5      18.910571   20.253986   21.451708 C.3        1 MOL1        -0.1350
      18    H12     19.989260   20.426042   21.338732 H          1 MOL1         0.0976
      19    H13     18.494675   21.146523   21.939683 H          1 MOL1         0.0976
      20    C6      18.279700   20.094840   20.052044 C.3        1 MOL1        -0.2365
      21    H14     18.470204   20.984326   19.437604 H          1 MOL1         0.0987
      22    H15     17.192363   19.960487   20.121615 H          1 MOL1         0.0987
      23    H16     18.698640   19.226556   19.526898 H          1 MOL1         0.0987
@<TRIPOS>BOND
    1     1     2    1
    2     1     3    1
    3     1     4    1
    4     1     5    1
    5     5     6    1
    6     5     7    1
    7     5     8    1
    8     8     9    1
    9     8    10    1
   10     8    11    1
   11    11    12    1
   12    11    13    1
   13    11    14    1
   14    14    15    1
   15    14    16    1
   16    14    17    1
   17    17    18    1
   18    17    19    1
   19    17    20    1
   20    20    21    1
   21    20    22    1
   22    20    23    1
@<TRIPOS>SUBSTRUCTURE
       1 MOL1            1 RESIDUE      1      MOL     
@<SCITEGIC>MOL_PROPERTY
VConf Rank
SciTegic.value.IntegerValue
987

@<SCITEGIC>MOL_PROPERTY
Conf_Id
SciTegic.value.IntegerValue
72

@<SCITEGIC>MOL_PROPERTY
Delta U+W
SciTegic.value.DoubleValue
1.051

@<SCITEGIC>MOL_PROPERTY
U+W
SciTegic.value.DoubleValue
-7.331

@<SCITEGIC>MOL_PROPERTY
Grad RMS
SciTegic.value.DoubleValue
0.000000

@<SCITEGIC>MOL_PROPERTY
U
SciTegic.value.DoubleValue
48.590

@<SCITEGIC>MOL_PROPERTY
W
SciTegic.value.DoubleValue
-55.922

@<SCITEGIC>MOL_PROPERTY
W(PB)
SciTegic.value.DoubleValue
-58.012

@<SCITEGIC>MOL_PROPERTY
W(SA)
SciTegic.value.DoubleValue
2.090

@<SCITEGIC>MOL_PROPERTY
Valence
SciTegic.value.DoubleValue
2.601

@<SCITEGIC>MOL_PROPERTY
Coulomb
SciTegic.value.DoubleValue
45.520

@<SCITEGIC>MOL_PROPERTY
VdW
SciTegic.value.DoubleValue
0.469

@<SCITEGIC>MOL_PROPERTY
VdW6
SciTegic.value.DoubleValue
-6.867

@<SCITEGIC>MOL_PROPERTY
VdW12
SciTegic.value.DoubleValue
7.336

@<SCITEGIC>MOL_PROPERTY
Bond
SciTegic.value.DoubleValue
0.205

@<SCITEGIC>MOL_PROPERTY
Angle
SciTegic.value.DoubleValue
0.962

@<SCITEGIC>MOL_PROPERTY
Pdih
SciTegic.value.DoubleValue
1.434

@<SCITEGIC>MOL_PROPERTY
Idih
SciTegic.value.DoubleValue
0.000

@<SCITEGIC>MOL_PROPERTY
Tether
SciTegic.value.DoubleValue
0.000

@<TRIPOS>MOLECULE
guest-2_confgen4.mol2 : confsearch ligand conformer 988
          23          22           1
SMALL
USER_CHARGES
 
@<TRIPOS>ATOM
       1    N1      17.475605   20.946098   23.460996 N.4        1 MOL1        -0.5940
       2    H1      17.512696   21.770680   24.069803 H          1 MOL1         0.3649
       3    H2      16.554660   20.516977   23.597010 H          1 MOL1         0.3649
       4    H3      17.509801   21.286990   22.494929 H          1 MOL1         0.3649
       5    C1      18.600482   19.975695   23.758669 C.3        1 MOL1         0.0207
       6    H4      18.520476   19.676788   24.807289 H          1 MOL1         0.0950
       7    H5      19.546551   20.506287   23.623174 H          1 MOL1         0.0950
       8    C2      18.573146   18.725179   22.860182 C.3        1 MOL1        -0.1415
       9    H6      17.604676   18.220789   22.975872 H          1 MOL1         0.0976
      10    H7      18.640338   19.024803   21.806549 H          1 MOL1         0.0976
      11    C3      19.703135   17.721337   23.198545 C.3        1 MOL1        -0.1375
      12    H8      19.614826   16.846323   22.540897 H          1 MOL1         0.0976
      13    H9      19.547055   17.342032   24.217897 H          1 MOL1         0.0976
      14    C4      21.140273   18.300882   23.100960 C.3        1 MOL1        -0.1375
      15    H10     21.278081   19.067130   23.875669 H          1 MOL1         0.0976
      16    H11     21.856682   17.504098   23.343989 H          1 MOL1         0.0976
      17    C5      21.514896   18.906742   21.724439 C.3        1 MOL1        -0.1350
      18    H12     22.542112   19.293309   21.779957 H          1 MOL1         0.0976
      19    H13     20.878757   19.774835   21.505671 H          1 MOL1         0.0976
      20    C6      21.428206   17.890367   20.563413 C.3        1 MOL1        -0.2365
      21    H14     22.047285   17.006781   20.765788 H          1 MOL1         0.0987
      22    H15     21.783932   18.342791   19.628740 H          1 MOL1         0.0987
      23    H16     20.396495   17.556427   20.397234 H          1 MOL1         0.0987
@<TRIPOS>BOND
    1     1     2    1
    2     1     3    1
    3     1     4    1
    4     1     5    1
    5     5     6    1
    6     5     7    1
    7     5     8    1
    8     8     9    1
    9     8    10    1
   10     8    11    1
   11    11    12    1
   12    11    13    1
   13    11    14    1
   14    14    15    1
   15    14    16    1
   16    14    17    1
   17    17    18    1
   18    17    19    1
   19    17    20    1
   20    20    21    1
   21    20    22    1
   22    20    23    1
@<TRIPOS>SUBSTRUCTURE
       1 MOL1            1 RESIDUE      1      MOL     
@<SCITEGIC>MOL_PROPERTY
VConf Rank
SciTegic.value.IntegerValue
988

@<SCITEGIC>MOL_PROPERTY
Conf_Id
SciTegic.value.IntegerValue
26

@<SCITEGIC>MOL_PROPERTY
Delta U+W
SciTegic.value.DoubleValue
1.076

@<SCITEGIC>MOL_PROPERTY
U+W
SciTegic.value.DoubleValue
-7.306

@<SCITEGIC>MOL_PROPERTY
Grad RMS
SciTegic.value.DoubleValue
0.000000

@<SCITEGIC>MOL_PROPERTY
U
SciTegic.value.DoubleValue
48.641

@<SCITEGIC>MOL_PROPERTY
W
SciTegic.value.DoubleValue
-55.947

@<SCITEGIC>MOL_PROPERTY
W(PB)
SciTegic.value.DoubleValue
-58.031

@<SCITEGIC>MOL_PROPERTY
W(SA)
SciTegic.value.DoubleValue
2.084

@<SCITEGIC>MOL_PROPERTY
Valence
SciTegic.value.DoubleValue
2.922

@<SCITEGIC>MOL_PROPERTY
Coulomb
SciTegic.value.DoubleValue
45.269

@<SCITEGIC>MOL_PROPERTY
VdW
SciTegic.value.DoubleValue
0.449

@<SCITEGIC>MOL_PROPERTY
VdW6
SciTegic.value.DoubleValue
-7.045

@<SCITEGIC>MOL_PROPERTY
VdW12
SciTegic.value.DoubleValue
7.494

@<SCITEGIC>MOL_PROPERTY
Bond
SciTegic.value.DoubleValue
0.220

@<SCITEGIC>MOL_PROPERTY
Angle
SciTegic.value.DoubleValue
1.205

@<SCITEGIC>MOL_PROPERTY
Pdih
SciTegic.value.DoubleValue
1.497

@<SCITEGIC>MOL_PROPERTY
Idih
SciTegic.value.DoubleValue
0.000

@<SCITEGIC>MOL_PROPERTY
Tether
SciTegic.value.DoubleValue
0.000

@<TRIPOS>MOLECULE
guest-2_confgen4.mol2 : confsearch ligand conformer 989
          23          22           1
SMALL
USER_CHARGES
 
@<TRIPOS>ATOM
       1    N1      18.616622   18.690774   19.736309 N.4        1 MOL1        -0.5940
       2    H1      17.935371   19.409681   19.472013 H          1 MOL1         0.3649
       3    H2      18.377782   17.845329   19.207030 H          1 MOL1         0.3649
       4    H3      19.532396   19.004661   19.399417 H          1 MOL1         0.3649
       5    C1      18.619742   18.437465   21.230116 C.3        1 MOL1         0.0207
       6    H4      19.342831   17.643605   21.434716 H          1 MOL1         0.0950
       7    H5      17.626389   18.080059   21.514477 H          1 MOL1         0.0950
       8    C2      18.975415   19.688870   22.054312 C.3        1 MOL1        -0.1415
       9    H6      19.966959   20.056195   21.760466 H          1 MOL1         0.0976
      10    H7      18.265731   20.491385   21.813379 H          1 MOL1         0.0976
      11    C3      18.937528   19.429704   23.580896 C.3        1 MOL1        -0.1375
      12    H8      17.907953   19.180660   23.872896 H          1 MOL1         0.0976
      13    H9      19.177268   20.362003   24.109381 H          1 MOL1         0.0976
      14    C4      19.879004   18.297382   24.073060 C.3        1 MOL1        -0.1375
      15    H10     19.783601   18.211840   25.164274 H          1 MOL1         0.0976
      16    H11     19.533872   17.335341   23.670987 H          1 MOL1         0.0976
      17    C5      21.375713   18.482183   23.715382 C.3        1 MOL1        -0.1350
      18    H12     21.510784   18.465002   22.625620 H          1 MOL1         0.0976
      19    H13     21.936969   17.619811   24.101384 H          1 MOL1         0.0976
      20    C6      21.989666   19.775728   24.297036 C.3        1 MOL1        -0.2365
      21    H14     21.533388   20.670975   23.856692 H          1 MOL1         0.0987
      22    H15     23.066728   19.817414   24.089570 H          1 MOL1         0.0987
      23    H16     21.855263   19.821199   25.385525 H          1 MOL1         0.0987
@<TRIPOS>BOND
    1     1     2    1
    2     1     3    1
    3     1     4    1
    4     1     5    1
    5     5     6    1
    6     5     7    1
    7     5     8    1
    8     8     9    1
    9     8    10    1
   10     8    11    1
   11    11    12    1
   12    11    13    1
   13    11    14    1
   14    14    15    1
   15    14    16    1
   16    14    17    1
   17    17    18    1
   18    17    19    1
   19    17    20    1
   20    20    21    1
   21    20    22    1
   22    20    23    1
@<TRIPOS>SUBSTRUCTURE
       1 MOL1            1 RESIDUE      1      MOL     
@<SCITEGIC>MOL_PROPERTY
VConf Rank
SciTegic.value.IntegerValue
989

@<SCITEGIC>MOL_PROPERTY
Conf_Id
SciTegic.value.IntegerValue
90

@<SCITEGIC>MOL_PROPERTY
Delta U+W
SciTegic.value.DoubleValue
1.131

@<SCITEGIC>MOL_PROPERTY
U+W
SciTegic.value.DoubleValue
-7.251

@<SCITEGIC>MOL_PROPERTY
Grad RMS
SciTegic.value.DoubleValue
0.000000

@<SCITEGIC>MOL_PROPERTY
U
SciTegic.value.DoubleValue
48.641

@<SCITEGIC>MOL_PROPERTY
W
SciTegic.value.DoubleValue
-55.892

@<SCITEGIC>MOL_PROPERTY
W(PB)
SciTegic.value.DoubleValue
-57.962

@<SCITEGIC>MOL_PROPERTY
W(SA)
SciTegic.value.DoubleValue
2.070

@<SCITEGIC>MOL_PROPERTY
Valence
SciTegic.value.DoubleValue
2.922

@<SCITEGIC>MOL_PROPERTY
Coulomb
SciTegic.value.DoubleValue
45.269

@<SCITEGIC>MOL_PROPERTY
VdW
SciTegic.value.DoubleValue
0.450

@<SCITEGIC>MOL_PROPERTY
VdW6
SciTegic.value.DoubleValue
-7.045

@<SCITEGIC>MOL_PROPERTY
VdW12
SciTegic.value.DoubleValue
7.495

@<SCITEGIC>MOL_PROPERTY
Bond
SciTegic.value.DoubleValue
0.220

@<SCITEGIC>MOL_PROPERTY
Angle
SciTegic.value.DoubleValue
1.205

@<SCITEGIC>MOL_PROPERTY
Pdih
SciTegic.value.DoubleValue
1.497

@<SCITEGIC>MOL_PROPERTY
Idih
SciTegic.value.DoubleValue
0.000

@<SCITEGIC>MOL_PROPERTY
Tether
SciTegic.value.DoubleValue
0.000

@<TRIPOS>MOLECULE
guest-2_confgen4.mol2 : confsearch ligand conformer 990
          23          22           1
SMALL
USER_CHARGES
 
@<TRIPOS>ATOM
       1    N1      21.804479   17.230061   22.324138 N.4        1 MOL1        -0.5940
       2    H1      22.337676   16.608825   22.941891 H          1 MOL1         0.3649
       3    H2      21.855516   18.171026   22.726137 H          1 MOL1         0.3649
       4    H3      22.298964   17.255864   21.426702 H          1 MOL1         0.3649
       5    C1      20.369506   16.768226   22.163036 C.3        1 MOL1         0.0207
       6    H4      19.911289   16.733499   23.154776 H          1 MOL1         0.0950
       7    H5      20.390044   15.750651   21.763488 H          1 MOL1         0.0950
       8    C2      19.530138   17.666719   21.231874 C.3        1 MOL1        -0.1415
       9    H6      19.972805   17.656346   20.227022 H          1 MOL1         0.0976
      10    H7      18.528422   17.228716   21.129096 H          1 MOL1         0.0976
      11    C3      19.399904   19.131564   21.719571 C.3        1 MOL1        -0.1375
      12    H8      18.801956   19.692135   20.987909 H          1 MOL1         0.0976
      13    H9      20.390654   19.603158   21.730419 H          1 MOL1         0.0976
      14    C4      18.736391   19.249690   23.115018 C.3        1 MOL1        -0.1375
      15    H10     17.785677   18.698916   23.107421 H          1 MOL1         0.0976
      16    H11     19.366075   18.769790   23.876021 H          1 MOL1         0.0976
      17    C5      18.454308   20.711375   23.538455 C.3        1 MOL1        -0.1350
      18    H12     17.890996   20.702807   24.482088 H          1 MOL1         0.0976
      19    H13     17.803250   21.194719   22.796646 H          1 MOL1         0.0976
      20    C6      19.736724   21.552374   23.731503 C.3        1 MOL1        -0.2365
      21    H14     20.416977   21.076410   24.449591 H          1 MOL1         0.0987
      22    H15     19.487338   22.549642   24.116469 H          1 MOL1         0.0987
      23    H16     20.275156   21.689891   22.785675 H          1 MOL1         0.0987
@<TRIPOS>BOND
    1     1     2    1
    2     1     3    1
    3     1     4    1
    4     1     5    1
    5     5     6    1
    6     5     7    1
    7     5     8    1
    8     8     9    1
    9     8    10    1
   10     8    11    1
   11    11    12    1
   12    11    13    1
   13    11    14    1
   14    14    15    1
   15    14    16    1
   16    14    17    1
   17    17    18    1
   18    17    19    1
   19    17    20    1
   20    20    21    1
   21    20    22    1
   22    20    23    1
@<TRIPOS>SUBSTRUCTURE
       1 MOL1            1 RESIDUE      1      MOL     
@<SCITEGIC>MOL_PROPERTY
VConf Rank
SciTegic.value.IntegerValue
990

@<SCITEGIC>MOL_PROPERTY
Conf_Id
SciTegic.value.IntegerValue
85

@<SCITEGIC>MOL_PROPERTY
Delta U+W
SciTegic.value.DoubleValue
1.193

@<SCITEGIC>MOL_PROPERTY
U+W
SciTegic.value.DoubleValue
-7.189

@<SCITEGIC>MOL_PROPERTY
Grad RMS
SciTegic.value.DoubleValue
0.000000

@<SCITEGIC>MOL_PROPERTY
U
SciTegic.value.DoubleValue
48.775

@<SCITEGIC>MOL_PROPERTY
W
SciTegic.value.DoubleValue
-55.965

@<SCITEGIC>MOL_PROPERTY
W(PB)
SciTegic.value.DoubleValue
-58.038

@<SCITEGIC>MOL_PROPERTY
W(SA)
SciTegic.value.DoubleValue
2.073

@<SCITEGIC>MOL_PROPERTY
Valence
SciTegic.value.DoubleValue
2.602

@<SCITEGIC>MOL_PROPERTY
Coulomb
SciTegic.value.DoubleValue
45.581

@<SCITEGIC>MOL_PROPERTY
VdW
SciTegic.value.DoubleValue
0.592

@<SCITEGIC>MOL_PROPERTY
VdW6
SciTegic.value.DoubleValue
-6.616

@<SCITEGIC>MOL_PROPERTY
VdW12
SciTegic.value.DoubleValue
7.208

@<SCITEGIC>MOL_PROPERTY
Bond
SciTegic.value.DoubleValue
0.196

@<SCITEGIC>MOL_PROPERTY
Angle
SciTegic.value.DoubleValue
0.832

@<SCITEGIC>MOL_PROPERTY
Pdih
SciTegic.value.DoubleValue
1.574

@<SCITEGIC>MOL_PROPERTY
Idih
SciTegic.value.DoubleValue
0.000

@<SCITEGIC>MOL_PROPERTY
Tether
SciTegic.value.DoubleValue
0.000

@<TRIPOS>MOLECULE
guest-2_confgen4.mol2 : confsearch ligand conformer 991
          23          22           1
SMALL
USER_CHARGES
 
@<TRIPOS>ATOM
       1    N1      18.099348   17.823565   21.906889 N.4        1 MOL1        -0.5940
       2    H1      18.363671   18.300182   22.775014 H          1 MOL1         0.3649
       3    H2      17.752129   16.892297   22.160824 H          1 MOL1         0.3649
       4    H3      17.308898   18.337372   21.504141 H          1 MOL1         0.3649
       5    C1      19.267159   17.745341   20.942648 C.3        1 MOL1         0.0207
       6    H4      18.908445   17.229297   20.047923 H          1 MOL1         0.0950
       7    H5      20.053756   17.134759   21.393852 H          1 MOL1         0.0950
       8    C2      19.838203   19.119222   20.536349 C.3        1 MOL1        -0.1415
       9    H6      20.368442   18.991536   19.583259 H          1 MOL1         0.0976
      10    H7      19.015508   19.816384   20.328957 H          1 MOL1         0.0976
      11    C3      20.830799   19.749930   21.549794 C.3        1 MOL1        -0.1375
      12    H8      21.196801   20.688211   21.110275 H          1 MOL1         0.0976
      13    H9      21.717608   19.109519   21.654262 H          1 MOL1         0.0976
      14    C4      20.237914   20.073017   22.945274 C.3        1 MOL1        -0.1375
      15    H10     20.695585   21.002384   23.312087 H          1 MOL1         0.0976
      16    H11     19.164052   20.286164   22.860924 H          1 MOL1         0.0976
      17    C5      20.506966   18.965433   23.993113 C.3        1 MOL1        -0.1350
      18    H12     21.588517   18.895044   24.175945 H          1 MOL1         0.0976
      19    H13     20.199966   17.982293   23.616996 H          1 MOL1         0.0976
      20    C6      19.785368   19.253894   25.326498 C.3        1 MOL1        -0.2365
      21    H14     20.114771   20.210213   25.753481 H          1 MOL1         0.0987
      22    H15     19.999597   18.466762   26.061147 H          1 MOL1         0.0987
      23    H16     18.697301   19.299017   25.189240 H          1 MOL1         0.0987
@<TRIPOS>BOND
    1     1     2    1
    2     1     3    1
    3     1     4    1
    4     1     5    1
    5     5     6    1
    6     5     7    1
    7     5     8    1
    8     8     9    1
    9     8    10    1
   10     8    11    1
   11    11    12    1
   12    11    13    1
   13    11    14    1
   14    14    15    1
   15    14    16    1
   16    14    17    1
   17    17    18    1
   18    17    19    1
   19    17    20    1
   20    20    21    1
   21    20    22    1
   22    20    23    1
@<TRIPOS>SUBSTRUCTURE
       1 MOL1            1 RESIDUE      1      MOL     
@<SCITEGIC>MOL_PROPERTY
VConf Rank
SciTegic.value.IntegerValue
991

@<SCITEGIC>MOL_PROPERTY
Conf_Id
SciTegic.value.IntegerValue
82

@<SCITEGIC>MOL_PROPERTY
Delta U+W
SciTegic.value.DoubleValue
5.994

@<SCITEGIC>MOL_PROPERTY
U+W
SciTegic.value.DoubleValue
-2.388

@<SCITEGIC>MOL_PROPERTY
Grad RMS
SciTegic.value.DoubleValue
0.000000

@<SCITEGIC>MOL_PROPERTY
U
SciTegic.value.DoubleValue
52.836

@<SCITEGIC>MOL_PROPERTY
W
SciTegic.value.DoubleValue
-55.224

@<SCITEGIC>MOL_PROPERTY
W(PB)
SciTegic.value.DoubleValue
-57.261

@<SCITEGIC>MOL_PROPERTY
W(SA)
SciTegic.value.DoubleValue
2.037

@<SCITEGIC>MOL_PROPERTY
Valence
SciTegic.value.DoubleValue
5.785

@<SCITEGIC>MOL_PROPERTY
Coulomb
SciTegic.value.DoubleValue
46.744

@<SCITEGIC>MOL_PROPERTY
VdW
SciTegic.value.DoubleValue
0.307

@<SCITEGIC>MOL_PROPERTY
VdW6
SciTegic.value.DoubleValue
-7.672

@<SCITEGIC>MOL_PROPERTY
VdW12
SciTegic.value.DoubleValue
7.979

@<SCITEGIC>MOL_PROPERTY
Bond
SciTegic.value.DoubleValue
0.217

@<SCITEGIC>MOL_PROPERTY
Angle
SciTegic.value.DoubleValue
1.470

@<SCITEGIC>MOL_PROPERTY
Pdih
SciTegic.value.DoubleValue
4.098

@<SCITEGIC>MOL_PROPERTY
Idih
SciTegic.value.DoubleValue
0.000

@<SCITEGIC>MOL_PROPERTY
Tether
SciTegic.value.DoubleValue
0.000

@<TRIPOS>MOLECULE
guest-2_confgen4.mol2 : confsearch ligand conformer 992
          23          22           1
SMALL
USER_CHARGES
 
@<TRIPOS>ATOM
       1    N1      20.067674   21.021680   22.242809 N.4        1 MOL1        -0.5940
       2    H1      20.813434   21.328524   21.609798 H          1 MOL1         0.3649
       3    H2      19.410627   21.804387   22.332027 H          1 MOL1         0.3649
       4    H3      19.570194   20.254106   21.780187 H          1 MOL1         0.3649
       5    C1      20.616718   20.591269   23.589268 C.3        1 MOL1         0.0207
       6    H4      19.779072   20.337334   24.244245 H          1 MOL1         0.0950
       7    H5      21.130635   21.456882   24.016015 H          1 MOL1         0.0950
       8    C2      21.602000   19.407009   23.515344 C.3        1 MOL1        -0.1415
       9    H6      22.293042   19.551215   22.674191 H          1 MOL1         0.0976
      10    H7      22.223761   19.433285   24.420088 H          1 MOL1         0.0976
      11    C3      20.944947   18.002881   23.432770 C.3        1 MOL1        -0.1375
      12    H8      20.358400   17.809274   24.341588 H          1 MOL1         0.0976
      13    H9      21.754891   17.260320   23.442759 H          1 MOL1         0.0976
      14    C4      20.077449   17.749681   22.173168 C.3        1 MOL1        -0.1375
      15    H10     20.446342   18.350829   21.331583 H          1 MOL1         0.0976
      16    H11     20.205294   16.702184   21.866338 H          1 MOL1         0.0976
      17    C5      18.567522   17.993035   22.414006 C.3        1 MOL1        -0.1350
      18    H12     18.392245   18.978777   22.861077 H          1 MOL1         0.0976
      19    H13     18.194361   17.259743   23.142819 H          1 MOL1         0.0976
      20    C6      17.754105   17.868829   21.108345 C.3        1 MOL1        -0.2365
      21    H14     18.077126   18.609517   20.365508 H          1 MOL1         0.0987
      22    H15     16.685314   18.029333   21.300970 H          1 MOL1         0.0987
      23    H16     17.869290   16.870492   20.666278 H          1 MOL1         0.0987
@<TRIPOS>BOND
    1     1     2    1
    2     1     3    1
    3     1     4    1
    4     1     5    1
    5     5     6    1
    6     5     7    1
    7     5     8    1
    8     8     9    1
    9     8    10    1
   10     8    11    1
   11    11    12    1
   12    11    13    1
   13    11    14    1
   14    14    15    1
   15    14    16    1
   16    14    17    1
   17    17    18    1
   18    17    19    1
   19    17    20    1
   20    20    21    1
   21    20    22    1
   22    20    23    1
@<TRIPOS>SUBSTRUCTURE
       1 MOL1            1 RESIDUE      1      MOL     
@<SCITEGIC>MOL_PROPERTY
VConf Rank
SciTegic.value.IntegerValue
992

@<SCITEGIC>MOL_PROPERTY
Conf_Id
SciTegic.value.IntegerValue
5

@<SCITEGIC>MOL_PROPERTY
Delta U+W
SciTegic.value.DoubleValue
6.087

@<SCITEGIC>MOL_PROPERTY
U+W
SciTegic.value.DoubleValue
-2.295

@<SCITEGIC>MOL_PROPERTY
Grad RMS
SciTegic.value.DoubleValue
0.000000

@<SCITEGIC>MOL_PROPERTY
U
SciTegic.value.DoubleValue
52.836

@<SCITEGIC>MOL_PROPERTY
W
SciTegic.value.DoubleValue
-55.131

@<SCITEGIC>MOL_PROPERTY
W(PB)
SciTegic.value.DoubleValue
-57.202

@<SCITEGIC>MOL_PROPERTY
W(SA)
SciTegic.value.DoubleValue
2.071

@<SCITEGIC>MOL_PROPERTY
Valence
SciTegic.value.DoubleValue
5.785

@<SCITEGIC>MOL_PROPERTY
Coulomb
SciTegic.value.DoubleValue
46.744

@<SCITEGIC>MOL_PROPERTY
VdW
SciTegic.value.DoubleValue
0.307

@<SCITEGIC>MOL_PROPERTY
VdW6
SciTegic.value.DoubleValue
-7.672

@<SCITEGIC>MOL_PROPERTY
VdW12
SciTegic.value.DoubleValue
7.980

@<SCITEGIC>MOL_PROPERTY
Bond
SciTegic.value.DoubleValue
0.217

@<SCITEGIC>MOL_PROPERTY
Angle
SciTegic.value.DoubleValue
1.470

@<SCITEGIC>MOL_PROPERTY
Pdih
SciTegic.value.DoubleValue
4.098

@<SCITEGIC>MOL_PROPERTY
Idih
SciTegic.value.DoubleValue
0.000

@<SCITEGIC>MOL_PROPERTY
Tether
SciTegic.value.DoubleValue
0.000

