VeraChem MOL file


 23 22  0  0  0  0  0  0  0  0999 V2000     
   19.7413   18.6610   26.4278 N   0  3  0  0  0  0  0  0  0  0  0  0
   19.2105   17.7845   26.4590 H   0  0  0  0  0  0  0  0  0  0  0  0
   19.4802   19.1972   27.2623 H   0  0  0  0  0  0  0  0  0  0  0  0
   20.7320   18.4173   26.5285 H   0  0  0  0  0  0  0  0  0  0  0  0
   19.4764   19.4376   25.1540 C   0  0  0  0  0  0  0  0  0  0  0  0
   20.0479   20.3686   25.2014 H   0  0  0  0  0  0  0  0  0  0  0  0
   18.4125   19.6885   25.1268 H   0  0  0  0  0  0  0  0  0  0  0  0
   19.8580   18.6596   23.8821 C   0  0  0  0  0  0  0  0  0  0  0  0
   20.9233   18.3958   23.9215 H   0  0  0  0  0  0  0  0  0  0  0  0
   19.2938   17.7180   23.8472 H   0  0  0  0  0  0  0  0  0  0  0  0
   19.5729   19.4847   22.6077 C   0  0  0  0  0  0  0  0  0  0  0  0
   20.1349   20.4282   22.6489 H   0  0  0  0  0  0  0  0  0  0  0  0
   18.5072   19.7511   22.5748 H   0  0  0  0  0  0  0  0  0  0  0  0
   19.9526   18.7125   21.3237 C   0  0  0  0  0  0  0  0  0  0  0  0
   21.0182   18.4462   21.3564 H   0  0  0  0  0  0  0  0  0  0  0  0
   19.3906   17.7691   21.2823 H   0  0  0  0  0  0  0  0  0  0  0  0
   19.6672   19.5379   20.0493 C   0  0  0  0  0  0  0  0  0  0  0  0
   20.2291   20.4818   20.0848 H   0  0  0  0  0  0  0  0  0  0  0  0
   18.6017   19.8048   20.0107 H   0  0  0  0  0  0  0  0  0  0  0  0
   20.0476   18.7637   18.7693 C   0  0  0  0  0  0  0  0  0  0  0  0
   19.8380   19.3655   17.8755 H   0  0  0  0  0  0  0  0  0  0  0  0
   19.4761   17.8299   18.6882 H   0  0  0  0  0  0  0  0  0  0  0  0
   21.1162   18.5122   18.7629 H   0  0  0  0  0  0  0  0  0  0  0  0
  1  2  1  0  0  0  0
  1  3  1  0  0  0  0
  1  4  1  0  0  0  0
  1  5  1  0  0  0  0
  5  6  1  0  0  0  0
  5  7  1  0  0  0  0
  5  8  1  0  0  0  0
  8  9  1  0  0  0  0
  8 10  1  0  0  0  0
  8 11  1  0  0  0  0
 11 12  1  0  0  0  0
 11 13  1  0  0  0  0
 11 14  1  0  0  0  0
 14 15  1  0  0  0  0
 14 16  1  0  0  0  0
 14 17  1  0  0  0  0
 17 18  1  0  0  0  0
 17 19  1  0  0  0  0
 17 20  1  0  0  0  0
 20 21  1  0  0  0  0
 20 22  1  0  0  0  0
 20 23  1  0  0  0  0
M  END
> <VConfSearch Rank>
1

> <Conf_Id>
40

> <Delta U+W>
0.000

> <U+W>
-8.382

> <U>
46.604

> <W>
-54.986

> <W(PB)>
-57.162

> <W(SA)>
2.176

> <Valence>
1.727

> <Coulomb>
44.434

> <VdW>
0.443

> <VdW6>
-4.623

> <VdW12>
5.066

> <Bond>
0.112

> <Angle>
0.386

> <Pdih>
1.228

> <Idih>
0.000

> <Tether>
0.000

$$$$
VeraChem MOL file


 23 22  0  0  0  0  0  0  0  0999 V2000     
   19.3779   18.7773   26.1563 N   0  3  0  0  0  0  0  0  0  0  0  0
   20.2482   19.0426   26.6286 H   0  0  0  0  0  0  0  0  0  0  0  0
   19.3081   17.7557   26.2046 H   0  0  0  0  0  0  0  0  0  0  0  0
   18.6072   19.1556   26.7174 H   0  0  0  0  0  0  0  0  0  0  0  0
   19.3340   19.2801   24.7276 C   0  0  0  0  0  0  0  0  0  0  0  0
   19.3836   20.3720   24.7524 H   0  0  0  0  0  0  0  0  0  0  0  0
   18.3713   18.9888   24.2998 H   0  0  0  0  0  0  0  0  0  0  0  0
   20.4804   18.7291   23.8586 C   0  0  0  0  0  0  0  0  0  0  0  0
   21.4396   18.9885   24.3261 H   0  0  0  0  0  0  0  0  0  0  0  0
   20.4303   17.6323   23.8323 H   0  0  0  0  0  0  0  0  0  0  0  0
   20.4603   19.2853   22.4150 C   0  0  0  0  0  0  0  0  0  0  0  0
   21.3655   18.9376   21.9006 H   0  0  0  0  0  0  0  0  0  0  0  0
   20.5203   20.3821   22.4442 H   0  0  0  0  0  0  0  0  0  0  0  0
   19.2071   18.8506   21.6131 C   0  0  0  0  0  0  0  0  0  0  0  0
   19.1591   17.7539   21.5665 H   0  0  0  0  0  0  0  0  0  0  0  0
   18.3015   19.1773   22.1410 H   0  0  0  0  0  0  0  0  0  0  0  0
   19.1625   19.4301   20.1783 C   0  0  0  0  0  0  0  0  0  0  0  0
   19.1997   20.5277   20.2191 H   0  0  0  0  0  0  0  0  0  0  0  0
   18.1951   19.1725   19.7249 H   0  0  0  0  0  0  0  0  0  0  0  0
   20.2938   18.9047   19.2652 C   0  0  0  0  0  0  0  0  0  0  0  0
   21.2794   19.2438   19.6071 H   0  0  0  0  0  0  0  0  0  0  0  0
   20.1586   19.2688   18.2385 H   0  0  0  0  0  0  0  0  0  0  0  0
   20.2986   17.8074   19.2338 H   0  0  0  0  0  0  0  0  0  0  0  0
  1  2  1  0  0  0  0
  1  3  1  0  0  0  0
  1  4  1  0  0  0  0
  1  5  1  0  0  0  0
  5  6  1  0  0  0  0
  5  7  1  0  0  0  0
  5  8  1  0  0  0  0
  8  9  1  0  0  0  0
  8 10  1  0  0  0  0
  8 11  1  0  0  0  0
 11 12  1  0  0  0  0
 11 13  1  0  0  0  0
 11 14  1  0  0  0  0
 14 15  1  0  0  0  0
 14 16  1  0  0  0  0
 14 17  1  0  0  0  0
 17 18  1  0  0  0  0
 17 19  1  0  0  0  0
 17 20  1  0  0  0  0
 20 21  1  0  0  0  0
 20 22  1  0  0  0  0
 20 23  1  0  0  0  0
M  END
> <VConfSearch Rank>
2

> <Conf_Id>
65

> <Delta U+W>
1.004

> <U+W>
-7.378

> <U>
48.047

> <W>
-55.425

> <W(PB)>
-57.542

> <W(SA)>
2.116

> <Valence>
2.583

> <Coulomb>
44.791

> <VdW>
0.673

> <VdW6>
-5.788

> <VdW12>
6.462

> <Bond>
0.177

> <Angle>
0.787

> <Pdih>
1.619

> <Idih>
0.000

> <Tether>
0.000

$$$$
VeraChem MOL file


 23 22  0  0  0  0  0  0  0  0999 V2000     
   19.9353   19.0091   26.1816 N   0  3  0  0  0  0  0  0  0  0  0  0
   19.0998   18.5651   26.5763 H   0  0  0  0  0  0  0  0  0  0  0  0
   20.1651   19.8035   26.7883 H   0  0  0  0  0  0  0  0  0  0  0  0
   20.7037   18.3361   26.2682 H   0  0  0  0  0  0  0  0  0  0  0  0
   19.7210   19.4410   24.7452 C   0  0  0  0  0  0  0  0  0  0  0  0
   20.6361   19.9308   24.4029 H   0  0  0  0  0  0  0  0  0  0  0  0
   18.9113   20.1755   24.7309 H   0  0  0  0  0  0  0  0  0  0  0  0
   19.3736   18.2687   23.8081 C   0  0  0  0  0  0  0  0  0  0  0  0
   20.1871   17.5312   23.8212 H   0  0  0  0  0  0  0  0  0  0  0  0
   18.4803   17.7577   24.1912 H   0  0  0  0  0  0  0  0  0  0  0  0
   19.1059   18.7219   22.3533 C   0  0  0  0  0  0  0  0  0  0  0  0
   18.2850   19.4523   22.3423 H   0  0  0  0  0  0  0  0  0  0  0  0
   18.7566   17.8523   21.7817 H   0  0  0  0  0  0  0  0  0  0  0  0
   20.3556   19.3284   21.6655 C   0  0  0  0  0  0  0  0  0  0  0  0
   20.7190   20.1830   22.2512 H   0  0  0  0  0  0  0  0  0  0  0  0
   21.1694   18.5902   21.6582 H   0  0  0  0  0  0  0  0  0  0  0  0
   20.0880   19.8150   20.2205 C   0  0  0  0  0  0  0  0  0  0  0  0
   20.9846   20.3329   19.8520 H   0  0  0  0  0  0  0  0  0  0  0  0
   19.2816   20.5617   20.2228 H   0  0  0  0  0  0  0  0  0  0  0  0
   19.7367   18.6729   19.2399 C   0  0  0  0  0  0  0  0  0  0  0  0
   18.7782   18.2034   19.4930 H   0  0  0  0  0  0  0  0  0  0  0  0
   20.5126   17.8964   19.2437 H   0  0  0  0  0  0  0  0  0  0  0  0
   19.6535   19.0586   18.2155 H   0  0  0  0  0  0  0  0  0  0  0  0
  1  2  1  0  0  0  0
  1  3  1  0  0  0  0
  1  4  1  0  0  0  0
  1  5  1  0  0  0  0
  5  6  1  0  0  0  0
  5  7  1  0  0  0  0
  5  8  1  0  0  0  0
  8  9  1  0  0  0  0
  8 10  1  0  0  0  0
  8 11  1  0  0  0  0
 11 12  1  0  0  0  0
 11 13  1  0  0  0  0
 11 14  1  0  0  0  0
 14 15  1  0  0  0  0
 14 16  1  0  0  0  0
 14 17  1  0  0  0  0
 17 18  1  0  0  0  0
 17 19  1  0  0  0  0
 17 20  1  0  0  0  0
 20 21  1  0  0  0  0
 20 22  1  0  0  0  0
 20 23  1  0  0  0  0
M  END
> <VConfSearch Rank>
3

> <Conf_Id>
92

> <Delta U+W>
0.973

> <U+W>
-7.409

> <U>
48.047

> <W>
-55.456

> <W(PB)>
-57.595

> <W(SA)>
2.138

> <Valence>
2.583

> <Coulomb>
44.791

> <VdW>
0.674

> <VdW6>
-5.789

> <VdW12>
6.462

> <Bond>
0.177

> <Angle>
0.787

> <Pdih>
1.619

> <Idih>
0.000

> <Tether>
0.000

$$$$
VeraChem MOL file


 23 22  0  0  0  0  0  0  0  0999 V2000     
   19.5096   18.2600   26.0549 N   0  3  0  0  0  0  0  0  0  0  0  0
   18.7899   17.6265   26.4194 H   0  0  0  0  0  0  0  0  0  0  0  0
   19.5459   19.0651   26.6885 H   0  0  0  0  0  0  0  0  0  0  0  0
   20.4066   17.7708   26.1375 H   0  0  0  0  0  0  0  0  0  0  0  0
   19.2220   18.6768   24.6269 C   0  0  0  0  0  0  0  0  0  0  0  0
   18.2433   19.1639   24.6080 H   0  0  0  0  0  0  0  0  0  0  0  0
   19.1675   17.7708   24.0179 H   0  0  0  0  0  0  0  0  0  0  0  0
   20.2861   19.6298   24.0505 C   0  0  0  0  0  0  0  0  0  0  0  0
   20.3623   20.5149   24.6960 H   0  0  0  0  0  0  0  0  0  0  0  0
   21.2692   19.1409   24.0703 H   0  0  0  0  0  0  0  0  0  0  0  0
   19.9616   20.0868   22.6086 C   0  0  0  0  0  0  0  0  0  0  0  0
   20.7079   20.8315   22.2989 H   0  0  0  0  0  0  0  0  0  0  0  0
   18.9891   20.5983   22.5966 H   0  0  0  0  0  0  0  0  0  0  0  0
   19.9520   18.9222   21.5893 C   0  0  0  0  0  0  0  0  0  0  0  0
   20.9140   18.3925   21.6276 H   0  0  0  0  0  0  0  0  0  0  0  0
   19.1763   18.1931   21.8592 H   0  0  0  0  0  0  0  0  0  0  0  0
   19.6978   19.4219   20.1497 C   0  0  0  0  0  0  0  0  0  0  0  0
   20.4737   20.1465   19.8655 H   0  0  0  0  0  0  0  0  0  0  0  0
   18.7367   19.9533   20.1057 H   0  0  0  0  0  0  0  0  0  0  0  0
   19.6870   18.2595   19.1342 C   0  0  0  0  0  0  0  0  0  0  0  0
   20.6482   17.7291   19.1310 H   0  0  0  0  0  0  0  0  0  0  0  0
   19.5056   18.6340   18.1183 H   0  0  0  0  0  0  0  0  0  0  0  0
   18.8973   17.5348   19.3719 H   0  0  0  0  0  0  0  0  0  0  0  0
  1  2  1  0  0  0  0
  1  3  1  0  0  0  0
  1  4  1  0  0  0  0
  1  5  1  0  0  0  0
  5  6  1  0  0  0  0
  5  7  1  0  0  0  0
  5  8  1  0  0  0  0
  8  9  1  0  0  0  0
  8 10  1  0  0  0  0
  8 11  1  0  0  0  0
 11 12  1  0  0  0  0
 11 13  1  0  0  0  0
 11 14  1  0  0  0  0
 14 15  1  0  0  0  0
 14 16  1  0  0  0  0
 14 17  1  0  0  0  0
 17 18  1  0  0  0  0
 17 19  1  0  0  0  0
 17 20  1  0  0  0  0
 20 21  1  0  0  0  0
 20 22  1  0  0  0  0
 20 23  1  0  0  0  0
M  END
> <VConfSearch Rank>
4

> <Conf_Id>
42

> <Delta U+W>
0.365

> <U+W>
-8.017

> <U>
47.375

> <W>
-55.392

> <W(PB)>
-57.543

> <W(SA)>
2.152

> <Valence>
2.032

> <Coulomb>
44.843

> <VdW>
0.499

> <VdW6>
-5.218

> <VdW12>
5.717

> <Bond>
0.135

> <Angle>
0.514

> <Pdih>
1.383

> <Idih>
0.000

> <Tether>
0.000

$$$$
VeraChem MOL file


 23 22  0  0  0  0  0  0  0  0999 V2000     
   20.0185   18.7464   25.7758 N   0  3  0  0  0  0  0  0  0  0  0  0
   20.5176   17.8525   25.7253 H   0  0  0  0  0  0  0  0  0  0  0  0
   19.6823   18.8469   26.7396 H   0  0  0  0  0  0  0  0  0  0  0  0
   20.7085   19.4876   25.6211 H   0  0  0  0  0  0  0  0  0  0  0  0
   18.8825   18.8152   24.7737 C   0  0  0  0  0  0  0  0  0  0  0  0
   18.3793   19.7783   24.8953 H   0  0  0  0  0  0  0  0  0  0  0  0
   18.1706   18.0250   25.0272 H   0  0  0  0  0  0  0  0  0  0  0  0
   19.3315   18.6455   23.3092 C   0  0  0  0  0  0  0  0  0  0  0  0
   19.8607   17.6902   23.1955 H   0  0  0  0  0  0  0  0  0  0  0  0
   18.4301   18.5884   22.6869 H   0  0  0  0  0  0  0  0  0  0  0  0
   20.2232   19.8117   22.8175 C   0  0  0  0  0  0  0  0  0  0  0  0
   21.0725   19.9359   23.5020 H   0  0  0  0  0  0  0  0  0  0  0  0
   19.6533   20.7501   22.8644 H   0  0  0  0  0  0  0  0  0  0  0  0
   20.7889   19.6244   21.3858 C   0  0  0  0  0  0  0  0  0  0  0  0
   21.4346   20.4871   21.1707 H   0  0  0  0  0  0  0  0  0  0  0  0
   21.4489   18.7466   21.3524 H   0  0  0  0  0  0  0  0  0  0  0  0
   19.7185   19.5335   20.2676 C   0  0  0  0  0  0  0  0  0  0  0  0
   20.1079   20.0322   19.3689 H   0  0  0  0  0  0  0  0  0  0  0  0
   18.8166   20.0916   20.5551 H   0  0  0  0  0  0  0  0  0  0  0  0
   19.3530   18.0802   19.8845 C   0  0  0  0  0  0  0  0  0  0  0  0
   20.2359   17.5368   19.5236 H   0  0  0  0  0  0  0  0  0  0  0  0
   18.6057   18.0715   19.0805 H   0  0  0  0  0  0  0  0  0  0  0  0
   18.9369   17.5222   20.7304 H   0  0  0  0  0  0  0  0  0  0  0  0
  1  2  1  0  0  0  0
  1  3  1  0  0  0  0
  1  4  1  0  0  0  0
  1  5  1  0  0  0  0
  5  6  1  0  0  0  0
  5  7  1  0  0  0  0
  5  8  1  0  0  0  0
  8  9  1  0  0  0  0
  8 10  1  0  0  0  0
  8 11  1  0  0  0  0
 11 12  1  0  0  0  0
 11 13  1  0  0  0  0
 11 14  1  0  0  0  0
 14 15  1  0  0  0  0
 14 16  1  0  0  0  0
 14 17  1  0  0  0  0
 17 18  1  0  0  0  0
 17 19  1  0  0  0  0
 17 20  1  0  0  0  0
 20 21  1  0  0  0  0
 20 22  1  0  0  0  0
 20 23  1  0  0  0  0
M  END
> <VConfSearch Rank>
5

> <Conf_Id>
3

> <Delta U+W>
3.283

> <U+W>
-5.099

> <U>
50.701

> <W>
-55.800

> <W(PB)>
-57.867

> <W(SA)>
2.067

> <Valence>
4.880

> <Coulomb>
45.095

> <VdW>
0.726

> <VdW6>
-6.620

> <VdW12>
7.346

> <Bond>
0.222

> <Angle>
1.260

> <Pdih>
3.398

> <Idih>
0.000

> <Tether>
0.000

$$$$
VeraChem MOL file


 23 22  0  0  0  0  0  0  0  0999 V2000     
   20.2301   19.8410   25.3502 N   0  3  0  0  0  0  0  0  0  0  0  0
   20.9559   19.2914   25.8210 H   0  0  0  0  0  0  0  0  0  0  0  0
   19.9047   20.5446   26.0217 H   0  0  0  0  0  0  0  0  0  0  0  0
   20.6822   20.3451   24.5814 H   0  0  0  0  0  0  0  0  0  0  0  0
   19.0946   18.9671   24.8550 C   0  0  0  0  0  0  0  0  0  0  0  0
   18.3448   19.6146   24.3934 H   0  0  0  0  0  0  0  0  0  0  0  0
   18.6383   18.4892   25.7262 H   0  0  0  0  0  0  0  0  0  0  0  0
   19.5386   17.8829   23.8517 C   0  0  0  0  0  0  0  0  0  0  0  0
   20.2522   17.2098   24.3450 H   0  0  0  0  0  0  0  0  0  0  0  0
   18.6679   17.2667   23.5907 H   0  0  0  0  0  0  0  0  0  0  0  0
   20.1760   18.4412   22.5541 C   0  0  0  0  0  0  0  0  0  0  0  0
   20.4898   17.5899   21.9363 H   0  0  0  0  0  0  0  0  0  0  0  0
   21.0916   18.9969   22.7963 H   0  0  0  0  0  0  0  0  0  0  0  0
   19.2136   19.3443   21.7413 C   0  0  0  0  0  0  0  0  0  0  0  0
   18.3101   18.7781   21.4761 H   0  0  0  0  0  0  0  0  0  0  0  0
   18.8801   20.1829   22.3664 H   0  0  0  0  0  0  0  0  0  0  0  0
   19.8527   19.9270   20.4574 C   0  0  0  0  0  0  0  0  0  0  0  0
   20.7513   20.5037   20.7177 H   0  0  0  0  0  0  0  0  0  0  0  0
   19.1492   20.6416   20.0076 H   0  0  0  0  0  0  0  0  0  0  0  0
   20.2104   18.8535   19.4043 C   0  0  0  0  0  0  0  0  0  0  0  0
   19.3352   18.2410   19.1515 H   0  0  0  0  0  0  0  0  0  0  0  0
   21.0058   18.1873   19.7604 H   0  0  0  0  0  0  0  0  0  0  0  0
   20.5669   19.3264   18.4800 H   0  0  0  0  0  0  0  0  0  0  0  0
  1  2  1  0  0  0  0
  1  3  1  0  0  0  0
  1  4  1  0  0  0  0
  1  5  1  0  0  0  0
  5  6  1  0  0  0  0
  5  7  1  0  0  0  0
  5  8  1  0  0  0  0
  8  9  1  0  0  0  0
  8 10  1  0  0  0  0
  8 11  1  0  0  0  0
 11 12  1  0  0  0  0
 11 13  1  0  0  0  0
 11 14  1  0  0  0  0
 14 15  1  0  0  0  0
 14 16  1  0  0  0  0
 14 17  1  0  0  0  0
 17 18  1  0  0  0  0
 17 19  1  0  0  0  0
 17 20  1  0  0  0  0
 20 21  1  0  0  0  0
 20 22  1  0  0  0  0
 20 23  1  0  0  0  0
M  END
> <VConfSearch Rank>
6

> <Conf_Id>
83

> <Delta U+W>
1.229

> <U+W>
-7.154

> <U>
48.727

> <W>
-55.880

> <W(PB)>
-57.960

> <W(SA)>
2.080

> <Valence>
2.671

> <Coulomb>
45.371

> <VdW>
0.684

> <VdW6>
-6.511

> <VdW12>
7.195

> <Bond>
0.203

> <Angle>
0.915

> <Pdih>
1.554

> <Idih>
0.000

> <Tether>
0.000

$$$$
VeraChem MOL file


 23 22  0  0  0  0  0  0  0  0999 V2000     
   18.6464   19.1819   25.2778 N   0  3  0  0  0  0  0  0  0  0  0  0
   18.4896   18.2651   25.7084 H   0  0  0  0  0  0  0  0  0  0  0  0
   18.0318   19.2422   24.4603 H   0  0  0  0  0  0  0  0  0  0  0  0
   18.3242   19.8869   25.9494 H   0  0  0  0  0  0  0  0  0  0  0  0
   20.1005   19.3858   24.9009 C   0  0  0  0  0  0  0  0  0  0  0  0
   20.6914   19.3437   25.8199 H   0  0  0  0  0  0  0  0  0  0  0  0
   20.2040   20.3884   24.4782 H   0  0  0  0  0  0  0  0  0  0  0  0
   20.6347   18.3391   23.9017 C   0  0  0  0  0  0  0  0  0  0  0  0
   21.7023   18.5296   23.7291 H   0  0  0  0  0  0  0  0  0  0  0  0
   20.5725   17.3430   24.3596 H   0  0  0  0  0  0  0  0  0  0  0  0
   19.8927   18.3232   22.5412 C   0  0  0  0  0  0  0  0  0  0  0  0
   18.8379   18.0587   22.6936 H   0  0  0  0  0  0  0  0  0  0  0  0
   20.3234   17.5206   21.9287 H   0  0  0  0  0  0  0  0  0  0  0  0
   19.9913   19.6679   21.7768 C   0  0  0  0  0  0  0  0  0  0  0  0
   19.5828   20.4754   22.3985 H   0  0  0  0  0  0  0  0  0  0  0  0
   21.0468   19.9172   21.6008 H   0  0  0  0  0  0  0  0  0  0  0  0
   19.2296   19.6676   20.4291 C   0  0  0  0  0  0  0  0  0  0  0  0
   19.2519   20.6844   20.0124 H   0  0  0  0  0  0  0  0  0  0  0  0
   18.1705   19.4293   20.6002 H   0  0  0  0  0  0  0  0  0  0  0  0
   19.8207   18.6914   19.3865 C   0  0  0  0  0  0  0  0  0  0  0  0
   20.8882   18.8878   19.2221 H   0  0  0  0  0  0  0  0  0  0  0  0
   19.3072   18.8022   18.4227 H   0  0  0  0  0  0  0  0  0  0  0  0
   19.7072   17.6468   19.7012 H   0  0  0  0  0  0  0  0  0  0  0  0
  1  2  1  0  0  0  0
  1  3  1  0  0  0  0
  1  4  1  0  0  0  0
  1  5  1  0  0  0  0
  5  6  1  0  0  0  0
  5  7  1  0  0  0  0
  5  8  1  0  0  0  0
  8  9  1  0  0  0  0
  8 10  1  0  0  0  0
  8 11  1  0  0  0  0
 11 12  1  0  0  0  0
 11 13  1  0  0  0  0
 11 14  1  0  0  0  0
 14 15  1  0  0  0  0
 14 16  1  0  0  0  0
 14 17  1  0  0  0  0
 17 18  1  0  0  0  0
 17 19  1  0  0  0  0
 17 20  1  0  0  0  0
 20 21  1  0  0  0  0
 20 22  1  0  0  0  0
 20 23  1  0  0  0  0
M  END
> <VConfSearch Rank>
7

> <Conf_Id>
50

> <Delta U+W>
1.252

> <U+W>
-7.130

> <U>
48.727

> <W>
-55.857

> <W(PB)>
-57.937

> <W(SA)>
2.080

> <Valence>
2.671

> <Coulomb>
45.371

> <VdW>
0.684

> <VdW6>
-6.511

> <VdW12>
7.196

> <Bond>
0.203

> <Angle>
0.915

> <Pdih>
1.554

> <Idih>
0.000

> <Tether>
0.000

$$$$
VeraChem MOL file


 23 22  0  0  0  0  0  0  0  0999 V2000     
   19.4176   19.1727   25.7881 N   0  3  0  0  0  0  0  0  0  0  0  0
   18.6053   19.6957   25.4471 H   0  0  0  0  0  0  0  0  0  0  0  0
   19.7067   19.6098   26.6697 H   0  0  0  0  0  0  0  0  0  0  0  0
   19.0955   18.2266   26.0153 H   0  0  0  0  0  0  0  0  0  0  0  0
   20.5434   19.1565   24.7724 C   0  0  0  0  0  0  0  0  0  0  0  0
   21.3849   18.6200   25.2192 H   0  0  0  0  0  0  0  0  0  0  0  0
   20.8544   20.1894   24.5939 H   0  0  0  0  0  0  0  0  0  0  0  0
   20.1656   18.4905   23.4350 C   0  0  0  0  0  0  0  0  0  0  0  0
   21.0676   18.4295   22.8158 H   0  0  0  0  0  0  0  0  0  0  0  0
   19.8492   17.4554   23.6201 H   0  0  0  0  0  0  0  0  0  0  0  0
   19.0480   19.2559   22.6815 C   0  0  0  0  0  0  0  0  0  0  0  0
   19.3153   20.3164   22.5755 H   0  0  0  0  0  0  0  0  0  0  0  0
   18.1357   19.2312   23.2922 H   0  0  0  0  0  0  0  0  0  0  0  0
   18.7164   18.6501   21.2926 C   0  0  0  0  0  0  0  0  0  0  0  0
   18.9117   17.5689   21.2912 H   0  0  0  0  0  0  0  0  0  0  0  0
   17.6358   18.7553   21.1225 H   0  0  0  0  0  0  0  0  0  0  0  0
   19.4429   19.3248   20.1009 C   0  0  0  0  0  0  0  0  0  0  0  0
   19.1604   20.3857   20.0502 H   0  0  0  0  0  0  0  0  0  0  0  0
   19.0805   18.8693   19.1687 H   0  0  0  0  0  0  0  0  0  0  0  0
   20.9821   19.2064   20.1436 C   0  0  0  0  0  0  0  0  0  0  0  0
   21.2962   18.1604   20.2532 H   0  0  0  0  0  0  0  0  0  0  0  0
   21.4038   19.7877   20.9727 H   0  0  0  0  0  0  0  0  0  0  0  0
   21.4222   19.5933   19.2154 H   0  0  0  0  0  0  0  0  0  0  0  0
  1  2  1  0  0  0  0
  1  3  1  0  0  0  0
  1  4  1  0  0  0  0
  1  5  1  0  0  0  0
  5  6  1  0  0  0  0
  5  7  1  0  0  0  0
  5  8  1  0  0  0  0
  8  9  1  0  0  0  0
  8 10  1  0  0  0  0
  8 11  1  0  0  0  0
 11 12  1  0  0  0  0
 11 13  1  0  0  0  0
 11 14  1  0  0  0  0
 14 15  1  0  0  0  0
 14 16  1  0  0  0  0
 14 17  1  0  0  0  0
 17 18  1  0  0  0  0
 17 19  1  0  0  0  0
 17 20  1  0  0  0  0
 20 21  1  0  0  0  0
 20 22  1  0  0  0  0
 20 23  1  0  0  0  0
M  END
> <VConfSearch Rank>
8

> <Conf_Id>
55

> <Delta U+W>
3.232

> <U+W>
-5.150

> <U>
50.625

> <W>
-55.776

> <W(PB)>
-57.839

> <W(SA)>
2.064

> <Valence>
4.837

> <Coulomb>
45.097

> <VdW>
0.692

> <VdW6>
-6.655

> <VdW12>
7.347

> <Bond>
0.223

> <Angle>
1.167

> <Pdih>
3.447

> <Idih>
0.000

> <Tether>
0.000

$$$$
VeraChem MOL file


 23 22  0  0  0  0  0  0  0  0999 V2000     
   20.7313   18.7923   25.6017 N   0  3  0  0  0  0  0  0  0  0  0  0
   20.0530   18.7412   26.3686 H   0  0  0  0  0  0  0  0  0  0  0  0
   21.5368   19.3220   25.9516 H   0  0  0  0  0  0  0  0  0  0  0  0
   21.0573   17.8368   25.4237 H   0  0  0  0  0  0  0  0  0  0  0  0
   20.1354   19.4270   24.3616 C   0  0  0  0  0  0  0  0  0  0  0  0
   20.9201   19.4807   23.6048 H   0  0  0  0  0  0  0  0  0  0  0  0
   19.8377   20.4476   24.6166 H   0  0  0  0  0  0  0  0  0  0  0  0
   18.9174   18.6558   23.8162 C   0  0  0  0  0  0  0  0  0  0  0  0
   19.1901   17.6146   23.5990 H   0  0  0  0  0  0  0  0  0  0  0  0
   18.1564   18.6184   24.6071 H   0  0  0  0  0  0  0  0  0  0  0  0
   18.2918   19.3158   22.5614 C   0  0  0  0  0  0  0  0  0  0  0  0
   18.3249   20.4101   22.6555 H   0  0  0  0  0  0  0  0  0  0  0  0
   17.2253   19.0526   22.5330 H   0  0  0  0  0  0  0  0  0  0  0  0
   18.9168   18.8777   21.2112 C   0  0  0  0  0  0  0  0  0  0  0  0
   18.7842   17.7948   21.0808 H   0  0  0  0  0  0  0  0  0  0  0  0
   18.3472   19.3536   20.4009 H   0  0  0  0  0  0  0  0  0  0  0  0
   20.4123   19.2343   21.0479 C   0  0  0  0  0  0  0  0  0  0  0  0
   21.0160   18.6453   21.7505 H   0  0  0  0  0  0  0  0  0  0  0  0
   20.5725   20.2945   21.2888 H   0  0  0  0  0  0  0  0  0  0  0  0
   20.9110   18.9542   19.6141 C   0  0  0  0  0  0  0  0  0  0  0  0
   20.3589   19.5543   18.8791 H   0  0  0  0  0  0  0  0  0  0  0  0
   20.7871   17.8950   19.3532 H   0  0  0  0  0  0  0  0  0  0  0  0
   21.9761   19.2023   19.5188 H   0  0  0  0  0  0  0  0  0  0  0  0
  1  2  1  0  0  0  0
  1  3  1  0  0  0  0
  1  4  1  0  0  0  0
  1  5  1  0  0  0  0
  5  6  1  0  0  0  0
  5  7  1  0  0  0  0
  5  8  1  0  0  0  0
  8  9  1  0  0  0  0
  8 10  1  0  0  0  0
  8 11  1  0  0  0  0
 11 12  1  0  0  0  0
 11 13  1  0  0  0  0
 11 14  1  0  0  0  0
 14 15  1  0  0  0  0
 14 16  1  0  0  0  0
 14 17  1  0  0  0  0
 17 18  1  0  0  0  0
 17 19  1  0  0  0  0
 17 20  1  0  0  0  0
 20 21  1  0  0  0  0
 20 22  1  0  0  0  0
 20 23  1  0  0  0  0
M  END
> <VConfSearch Rank>
9

> <Conf_Id>
93

> <Delta U+W>
2.589

> <U+W>
-5.793

> <U>
50.122

> <W>
-55.915

> <W(PB)>
-58.031

> <W(SA)>
2.115

> <Valence>
4.132

> <Coulomb>
45.536

> <VdW>
0.454

> <VdW6>
-6.262

> <VdW12>
6.715

> <Bond>
0.182

> <Angle>
1.157

> <Pdih>
2.794

> <Idih>
0.000

> <Tether>
0.000

$$$$
VeraChem MOL file


 23 22  0  0  0  0  0  0  0  0999 V2000     
   19.0174   18.0796   25.5236 N   0  3  0  0  0  0  0  0  0  0  0  0
   19.4784   17.1803   25.3517 H   0  0  0  0  0  0  0  0  0  0  0  0
   18.0497   17.8720   25.7928 H   0  0  0  0  0  0  0  0  0  0  0  0
   19.4704   18.4989   26.3420 H   0  0  0  0  0  0  0  0  0  0  0  0
   19.0827   18.9892   24.3136 C   0  0  0  0  0  0  0  0  0  0  0  0
   18.5496   19.9120   24.5579 H   0  0  0  0  0  0  0  0  0  0  0  0
   18.5524   18.4961   23.4969 H   0  0  0  0  0  0  0  0  0  0  0  0
   20.5261   19.3248   23.8895 C   0  0  0  0  0  0  0  0  0  0  0  0
   21.0256   19.8115   24.7378 H   0  0  0  0  0  0  0  0  0  0  0  0
   21.0884   18.4039   23.6855 H   0  0  0  0  0  0  0  0  0  0  0  0
   20.5956   20.2738   22.6663 C   0  0  0  0  0  0  0  0  0  0  0  0
   21.5329   20.8438   22.7293 H   0  0  0  0  0  0  0  0  0  0  0  0
   19.7904   21.0195   22.7223 H   0  0  0  0  0  0  0  0  0  0  0  0
   20.5715   19.5658   21.2866 C   0  0  0  0  0  0  0  0  0  0  0  0
   20.6974   20.3309   20.5080 H   0  0  0  0  0  0  0  0  0  0  0  0
   21.4413   18.8997   21.2019 H   0  0  0  0  0  0  0  0  0  0  0  0
   19.2817   18.7641   20.9964 C   0  0  0  0  0  0  0  0  0  0  0  0
   18.4002   19.3910   21.1899 H   0  0  0  0  0  0  0  0  0  0  0  0
   19.2203   17.8985   21.6686 H   0  0  0  0  0  0  0  0  0  0  0  0
   19.2410   18.2598   19.5380 C   0  0  0  0  0  0  0  0  0  0  0  0
   18.3250   17.6840   19.3525 H   0  0  0  0  0  0  0  0  0  0  0  0
   20.0980   17.6086   19.3217 H   0  0  0  0  0  0  0  0  0  0  0  0
   19.2608   19.0978   18.8291 H   0  0  0  0  0  0  0  0  0  0  0  0
  1  2  1  0  0  0  0
  1  3  1  0  0  0  0
  1  4  1  0  0  0  0
  1  5  1  0  0  0  0
  5  6  1  0  0  0  0
  5  7  1  0  0  0  0
  5  8  1  0  0  0  0
  8  9  1  0  0  0  0
  8 10  1  0  0  0  0
  8 11  1  0  0  0  0
 11 12  1  0  0  0  0
 11 13  1  0  0  0  0
 11 14  1  0  0  0  0
 14 15  1  0  0  0  0
 14 16  1  0  0  0  0
 14 17  1  0  0  0  0
 17 18  1  0  0  0  0
 17 19  1  0  0  0  0
 17 20  1  0  0  0  0
 20 21  1  0  0  0  0
 20 22  1  0  0  0  0
 20 23  1  0  0  0  0
M  END
> <VConfSearch Rank>
10

> <Conf_Id>
70

> <Delta U+W>
2.599

> <U+W>
-5.783

> <U>
50.122

> <W>
-55.906

> <W(PB)>
-58.010

> <W(SA)>
2.105

> <Valence>
4.132

> <Coulomb>
45.536

> <VdW>
0.454

> <VdW6>
-6.262

> <VdW12>
6.715

> <Bond>
0.182

> <Angle>
1.157

> <Pdih>
2.794

> <Idih>
0.000

> <Tether>
0.000

$$$$
VeraChem MOL file


 23 22  0  0  0  0  0  0  0  0999 V2000     
   20.0737   18.1585   25.2941 N   0  3  0  0  0  0  0  0  0  0  0  0
   19.4455   18.4439   26.0521 H   0  0  0  0  0  0  0  0  0  0  0  0
   20.8889   17.7161   25.7316 H   0  0  0  0  0  0  0  0  0  0  0  0
   19.5895   17.4333   24.7565 H   0  0  0  0  0  0  0  0  0  0  0  0
   20.4702   19.3319   24.4200 C   0  0  0  0  0  0  0  0  0  0  0  0
   21.1628   18.9680   23.6566 H   0  0  0  0  0  0  0  0  0  0  0  0
   21.0041   20.0499   25.0484 H   0  0  0  0  0  0  0  0  0  0  0  0
   19.2734   20.0321   23.7454 C   0  0  0  0  0  0  0  0  0  0  0  0
   18.6025   20.4236   24.5215 H   0  0  0  0  0  0  0  0  0  0  0  0
   19.6395   20.9094   23.1969 H   0  0  0  0  0  0  0  0  0  0  0  0
   18.4658   19.1170   22.7876 C   0  0  0  0  0  0  0  0  0  0  0  0
   17.6633   19.7086   22.3257 H   0  0  0  0  0  0  0  0  0  0  0  0
   17.9597   18.3374   23.3728 H   0  0  0  0  0  0  0  0  0  0  0  0
   19.3023   18.4404   21.6708 C   0  0  0  0  0  0  0  0  0  0  0  0
   20.0506   17.7700   22.1139 H   0  0  0  0  0  0  0  0  0  0  0  0
   18.6348   17.7992   21.0787 H   0  0  0  0  0  0  0  0  0  0  0  0
   19.9998   19.4469   20.7256 C   0  0  0  0  0  0  0  0  0  0  0  0
   20.7255   20.0519   21.2853 H   0  0  0  0  0  0  0  0  0  0  0  0
   19.2570   20.1425   20.3110 H   0  0  0  0  0  0  0  0  0  0  0  0
   20.7309   18.7302   19.5705 C   0  0  0  0  0  0  0  0  0  0  0  0
   21.2219   19.4581   18.9116 H   0  0  0  0  0  0  0  0  0  0  0  0
   20.0294   18.1448   18.9617 H   0  0  0  0  0  0  0  0  0  0  0  0
   21.5018   18.0490   19.9538 H   0  0  0  0  0  0  0  0  0  0  0  0
  1  2  1  0  0  0  0
  1  3  1  0  0  0  0
  1  4  1  0  0  0  0
  1  5  1  0  0  0  0
  5  6  1  0  0  0  0
  5  7  1  0  0  0  0
  5  8  1  0  0  0  0
  8  9  1  0  0  0  0
  8 10  1  0  0  0  0
  8 11  1  0  0  0  0
 11 12  1  0  0  0  0
 11 13  1  0  0  0  0
 11 14  1  0  0  0  0
 14 15  1  0  0  0  0
 14 16  1  0  0  0  0
 14 17  1  0  0  0  0
 17 18  1  0  0  0  0
 17 19  1  0  0  0  0
 17 20  1  0  0  0  0
 20 21  1  0  0  0  0
 20 22  1  0  0  0  0
 20 23  1  0  0  0  0
M  END
> <VConfSearch Rank>
11

> <Conf_Id>
72

> <Delta U+W>
1.051

> <U+W>
-7.331

> <U>
48.590

> <W>
-55.922

> <W(PB)>
-58.012

> <W(SA)>
2.090

> <Valence>
2.601

> <Coulomb>
45.520

> <VdW>
0.469

> <VdW6>
-6.867

> <VdW12>
7.336

> <Bond>
0.205

> <Angle>
0.962

> <Pdih>
1.434

> <Idih>
0.000

> <Tether>
0.000

$$$$
VeraChem MOL file


 23 22  0  0  0  0  0  0  0  0999 V2000     
   19.2150   18.1527   25.5915 N   0  3  0  0  0  0  0  0  0  0  0  0
   18.4000   18.3333   26.1875 H   0  0  0  0  0  0  0  0  0  0  0  0
   20.0389   18.1690   26.2011 H   0  0  0  0  0  0  0  0  0  0  0  0
   19.1198   17.1950   25.2386 H   0  0  0  0  0  0  0  0  0  0  0  0
   19.3243   19.1619   24.4667 C   0  0  0  0  0  0  0  0  0  0  0  0
   19.3934   20.1581   24.9118 H   0  0  0  0  0  0  0  0  0  0  0  0
   18.4042   19.1106   23.8787 H   0  0  0  0  0  0  0  0  0  0  0  0
   20.5392   18.9179   23.5522 C   0  0  0  0  0  0  0  0  0  0  0  0
   21.4545   18.9343   24.1586 H   0  0  0  0  0  0  0  0  0  0  0  0
   20.4776   17.9132   23.1149 H   0  0  0  0  0  0  0  0  0  0  0  0
   20.6645   19.9775   22.4294 C   0  0  0  0  0  0  0  0  0  0  0  0
   21.5584   19.7609   21.8295 H   0  0  0  0  0  0  0  0  0  0  0  0
   20.8465   20.9596   22.8873 H   0  0  0  0  0  0  0  0  0  0  0  0
   19.4280   20.0880   21.4969 C   0  0  0  0  0  0  0  0  0  0  0  0
   18.5709   20.4656   22.0706 H   0  0  0  0  0  0  0  0  0  0  0  0
   19.6315   20.8521   20.7341 H   0  0  0  0  0  0  0  0  0  0  0  0
   19.0166   18.7722   20.7886 C   0  0  0  0  0  0  0  0  0  0  0  0
   18.1293   18.9696   20.1711 H   0  0  0  0  0  0  0  0  0  0  0  0
   18.7062   18.0231   21.5293 H   0  0  0  0  0  0  0  0  0  0  0  0
   20.1284   18.1869   19.8888 C   0  0  0  0  0  0  0  0  0  0  0  0
   20.4641   18.9234   19.1472 H   0  0  0  0  0  0  0  0  0  0  0  0
   19.7603   17.3071   19.3455 H   0  0  0  0  0  0  0  0  0  0  0  0
   20.9984   17.8714   20.4779 H   0  0  0  0  0  0  0  0  0  0  0  0
  1  2  1  0  0  0  0
  1  3  1  0  0  0  0
  1  4  1  0  0  0  0
  1  5  1  0  0  0  0
  5  6  1  0  0  0  0
  5  7  1  0  0  0  0
  5  8  1  0  0  0  0
  8  9  1  0  0  0  0
  8 10  1  0  0  0  0
  8 11  1  0  0  0  0
 11 12  1  0  0  0  0
 11 13  1  0  0  0  0
 11 14  1  0  0  0  0
 14 15  1  0  0  0  0
 14 16  1  0  0  0  0
 14 17  1  0  0  0  0
 17 18  1  0  0  0  0
 17 19  1  0  0  0  0
 17 20  1  0  0  0  0
 20 21  1  0  0  0  0
 20 22  1  0  0  0  0
 20 23  1  0  0  0  0
M  END
> <VConfSearch Rank>
12

> <Conf_Id>
26

> <Delta U+W>
1.076

> <U+W>
-7.306

> <U>
48.641

> <W>
-55.947

> <W(PB)>
-58.031

> <W(SA)>
2.084

> <Valence>
2.922

> <Coulomb>
45.269

> <VdW>
0.449

> <VdW6>
-7.045

> <VdW12>
7.494

> <Bond>
0.220

> <Angle>
1.205

> <Pdih>
1.497

> <Idih>
0.000

> <Tether>
0.000

$$$$
VeraChem MOL file


 23 22  0  0  0  0  0  0  0  0999 V2000     
   20.5356   18.7017   25.6516 N   0  3  0  0  0  0  0  0  0  0  0  0
   19.8981   18.1105   26.1946 H   0  0  0  0  0  0  0  0  0  0  0  0
   20.9339   19.3867   26.3028 H   0  0  0  0  0  0  0  0  0  0  0  0
   21.3075   18.1045   25.3381 H   0  0  0  0  0  0  0  0  0  0  0  0
   19.8317   19.3728   24.4898 C   0  0  0  0  0  0  0  0  0  0  0  0
   20.5597   20.0068   23.9769 H   0  0  0  0  0  0  0  0  0  0  0  0
   19.0437   20.0126   24.8959 H   0  0  0  0  0  0  0  0  0  0  0  0
   19.2222   18.3703   23.4921 C   0  0  0  0  0  0  0  0  0  0  0  0
   20.0104   17.7189   23.0936 H   0  0  0  0  0  0  0  0  0  0  0  0
   18.5208   17.7147   24.0250 H   0  0  0  0  0  0  0  0  0  0  0  0
   18.4714   19.0658   22.3295 C   0  0  0  0  0  0  0  0  0  0  0  0
   17.6130   19.6153   22.7400 H   0  0  0  0  0  0  0  0  0  0  0  0
   18.0435   18.2996   21.6693 H   0  0  0  0  0  0  0  0  0  0  0  0
   19.3339   20.0489   21.4926 C   0  0  0  0  0  0  0  0  0  0  0  0
   18.7095   20.4688   20.6921 H   0  0  0  0  0  0  0  0  0  0  0  0
   19.6241   20.9034   22.1186 H   0  0  0  0  0  0  0  0  0  0  0  0
   20.6090   19.4342   20.8613 C   0  0  0  0  0  0  0  0  0  0  0  0
   21.2996   19.1012   21.6476 H   0  0  0  0  0  0  0  0  0  0  0  0
   21.1403   20.2214   20.3083 H   0  0  0  0  0  0  0  0  0  0  0  0
   20.3122   18.2633   19.8972 C   0  0  0  0  0  0  0  0  0  0  0  0
   19.8789   17.4059   20.4270 H   0  0  0  0  0  0  0  0  0  0  0  0
   21.2355   17.9204   19.4127 H   0  0  0  0  0  0  0  0  0  0  0  0
   19.6127   18.5695   19.1085 H   0  0  0  0  0  0  0  0  0  0  0  0
  1  2  1  0  0  0  0
  1  3  1  0  0  0  0
  1  4  1  0  0  0  0
  1  5  1  0  0  0  0
  5  6  1  0  0  0  0
  5  7  1  0  0  0  0
  5  8  1  0  0  0  0
  8  9  1  0  0  0  0
  8 10  1  0  0  0  0
  8 11  1  0  0  0  0
 11 12  1  0  0  0  0
 11 13  1  0  0  0  0
 11 14  1  0  0  0  0
 14 15  1  0  0  0  0
 14 16  1  0  0  0  0
 14 17  1  0  0  0  0
 17 18  1  0  0  0  0
 17 19  1  0  0  0  0
 17 20  1  0  0  0  0
 20 21  1  0  0  0  0
 20 22  1  0  0  0  0
 20 23  1  0  0  0  0
M  END
> <VConfSearch Rank>
13

> <Conf_Id>
90

> <Delta U+W>
1.131

> <U+W>
-7.251

> <U>
48.641

> <W>
-55.892

> <W(PB)>
-57.962

> <W(SA)>
2.070

> <Valence>
2.922

> <Coulomb>
45.269

> <VdW>
0.450

> <VdW6>
-7.045

> <VdW12>
7.495

> <Bond>
0.220

> <Angle>
1.205

> <Pdih>
1.497

> <Idih>
0.000

> <Tether>
0.000

$$$$
VeraChem MOL file


 23 22  0  0  0  0  0  0  0  0999 V2000     
   20.3537   17.8786   24.9469 N   0  3  0  0  0  0  0  0  0  0  0  0
   21.1937   17.7170   25.5127 H   0  0  0  0  0  0  0  0  0  0  0  0
   20.5212   17.4522   24.0305 H   0  0  0  0  0  0  0  0  0  0  0  0
   19.5901   17.3574   25.3894 H   0  0  0  0  0  0  0  0  0  0  0  0
   20.0314   19.3550   24.8259 C   0  0  0  0  0  0  0  0  0  0  0  0
   20.8939   19.8545   24.3772 H   0  0  0  0  0  0  0  0  0  0  0  0
   19.8985   19.7507   25.8364 H   0  0  0  0  0  0  0  0  0  0  0  0
   18.7674   19.6470   23.9916 C   0  0  0  0  0  0  0  0  0  0  0  0
   17.9002   19.1802   24.4771 H   0  0  0  0  0  0  0  0  0  0  0  0
   18.5793   20.7288   24.0046 H   0  0  0  0  0  0  0  0  0  0  0  0
   18.8559   19.1612   22.5231 C   0  0  0  0  0  0  0  0  0  0  0  0
   17.9095   19.3988   22.0182 H   0  0  0  0  0  0  0  0  0  0  0  0
   18.9465   18.0677   22.5042 H   0  0  0  0  0  0  0  0  0  0  0  0
   20.0260   19.8080   21.7395 C   0  0  0  0  0  0  0  0  0  0  0  0
   19.9653   20.9003   21.8420 H   0  0  0  0  0  0  0  0  0  0  0  0
   20.9872   19.5089   22.1782 H   0  0  0  0  0  0  0  0  0  0  0  0
   20.0246   19.4549   20.2326 C   0  0  0  0  0  0  0  0  0  0  0  0
   20.8146   20.0337   19.7339 H   0  0  0  0  0  0  0  0  0  0  0  0
   19.0766   19.7731   19.7767 H   0  0  0  0  0  0  0  0  0  0  0  0
   20.2569   17.9523   19.9545 C   0  0  0  0  0  0  0  0  0  0  0  0
   21.1862   17.6029   20.4227 H   0  0  0  0  0  0  0  0  0  0  0  0
   20.3362   17.7696   18.8750 H   0  0  0  0  0  0  0  0  0  0  0  0
   19.4291   17.3394   20.3321 H   0  0  0  0  0  0  0  0  0  0  0  0
  1  2  1  0  0  0  0
  1  3  1  0  0  0  0
  1  4  1  0  0  0  0
  1  5  1  0  0  0  0
  5  6  1  0  0  0  0
  5  7  1  0  0  0  0
  5  8  1  0  0  0  0
  8  9  1  0  0  0  0
  8 10  1  0  0  0  0
  8 11  1  0  0  0  0
 11 12  1  0  0  0  0
 11 13  1  0  0  0  0
 11 14  1  0  0  0  0
 14 15  1  0  0  0  0
 14 16  1  0  0  0  0
 14 17  1  0  0  0  0
 17 18  1  0  0  0  0
 17 19  1  0  0  0  0
 17 20  1  0  0  0  0
 20 21  1  0  0  0  0
 20 22  1  0  0  0  0
 20 23  1  0  0  0  0
M  END
> <VConfSearch Rank>
14

> <Conf_Id>
85

> <Delta U+W>
1.193

> <U+W>
-7.189

> <U>
48.775

> <W>
-55.965

> <W(PB)>
-58.038

> <W(SA)>
2.073

> <Valence>
2.602

> <Coulomb>
45.581

> <VdW>
0.592

> <VdW6>
-6.616

> <VdW12>
7.208

> <Bond>
0.196

> <Angle>
0.832

> <Pdih>
1.574

> <Idih>
0.000

> <Tether>
0.000

$$$$
VeraChem MOL file


 23 22  0  0  0  0  0  0  0  0999 V2000     
   19.2696   17.5935   24.0685 N   0  3  0  0  0  0  0  0  0  0  0  0
   19.4552   17.5259   23.0627 H   0  0  0  0  0  0  0  0  0  0  0  0
   18.4341   17.0317   24.2654 H   0  0  0  0  0  0  0  0  0  0  0  0
   20.0525   17.1449   24.5550 H   0  0  0  0  0  0  0  0  0  0  0  0
   19.0928   19.0361   24.5013 C   0  0  0  0  0  0  0  0  0  0  0  0
   18.9014   19.0253   25.5777 H   0  0  0  0  0  0  0  0  0  0  0  0
   18.2095   19.4454   24.0039 H   0  0  0  0  0  0  0  0  0  0  0  0
   20.3164   19.9308   24.2166 C   0  0  0  0  0  0  0  0  0  0  0  0
   20.2625   20.7946   24.8924 H   0  0  0  0  0  0  0  0  0  0  0  0
   21.2372   19.3972   24.4873 H   0  0  0  0  0  0  0  0  0  0  0  0
   20.4186   20.4709   22.7647 C   0  0  0  0  0  0  0  0  0  0  0  0
   21.2962   21.1307   22.7209 H   0  0  0  0  0  0  0  0  0  0  0  0
   19.5563   21.1147   22.5425 H   0  0  0  0  0  0  0  0  0  0  0  0
   20.5757   19.3900   21.6646 C   0  0  0  0  0  0  0  0  0  0  0  0
   21.2437   19.7808   20.8844 H   0  0  0  0  0  0  0  0  0  0  0  0
   21.0833   18.5055   22.0718 H   0  0  0  0  0  0  0  0  0  0  0  0
   19.2350   19.0047   20.9927 C   0  0  0  0  0  0  0  0  0  0  0  0
   18.8377   19.8754   20.4522 H   0  0  0  0  0  0  0  0  0  0  0  0
   18.4781   18.7435   21.7418 H   0  0  0  0  0  0  0  0  0  0  0  0
   19.4079   17.8311   20.0056 C   0  0  0  0  0  0  0  0  0  0  0  0
   20.1226   18.0861   19.2121 H   0  0  0  0  0  0  0  0  0  0  0  0
   18.4512   17.5821   19.5283 H   0  0  0  0  0  0  0  0  0  0  0  0
   19.7734   16.9310   20.5166 H   0  0  0  0  0  0  0  0  0  0  0  0
  1  2  1  0  0  0  0
  1  3  1  0  0  0  0
  1  4  1  0  0  0  0
  1  5  1  0  0  0  0
  5  6  1  0  0  0  0
  5  7  1  0  0  0  0
  5  8  1  0  0  0  0
  8  9  1  0  0  0  0
  8 10  1  0  0  0  0
  8 11  1  0  0  0  0
 11 12  1  0  0  0  0
 11 13  1  0  0  0  0
 11 14  1  0  0  0  0
 14 15  1  0  0  0  0
 14 16  1  0  0  0  0
 14 17  1  0  0  0  0
 17 18  1  0  0  0  0
 17 19  1  0  0  0  0
 17 20  1  0  0  0  0
 20 21  1  0  0  0  0
 20 22  1  0  0  0  0
 20 23  1  0  0  0  0
M  END
> <VConfSearch Rank>
15

> <Conf_Id>
82

> <Delta U+W>
5.994

> <U+W>
-2.388

> <U>
52.836

> <W>
-55.224

> <W(PB)>
-57.261

> <W(SA)>
2.037

> <Valence>
5.785

> <Coulomb>
46.744

> <VdW>
0.307

> <VdW6>
-7.672

> <VdW12>
7.979

> <Bond>
0.217

> <Angle>
1.470

> <Pdih>
4.098

> <Idih>
0.000

> <Tether>
0.000

$$$$
VeraChem MOL file


 23 22  0  0  0  0  0  0  0  0999 V2000     
   21.0111   18.3177   24.1477 N   0  3  0  0  0  0  0  0  0  0  0  0
   20.7411   17.4312   24.5862 H   0  0  0  0  0  0  0  0  0  0  0  0
   21.9801   18.5061   24.4268 H   0  0  0  0  0  0  0  0  0  0  0  0
   21.0066   18.1711   23.1332 H   0  0  0  0  0  0  0  0  0  0  0  0
   20.0807   19.4468   24.5463 C   0  0  0  0  0  0  0  0  0  0  0  0
   20.4498   20.3769   24.1060 H   0  0  0  0  0  0  0  0  0  0  0  0
   20.1393   19.5399   25.6341 H   0  0  0  0  0  0  0  0  0  0  0  0
   18.6103   19.2214   24.1389 C   0  0  0  0  0  0  0  0  0  0  0  0
   18.3204   18.1844   24.3544 H   0  0  0  0  0  0  0  0  0  0  0  0
   17.9843   19.8474   24.7886 H   0  0  0  0  0  0  0  0  0  0  0  0
   18.2689   19.5770   22.6668 C   0  0  0  0  0  0  0  0  0  0  0  0
   18.4360   20.6488   22.4915 H   0  0  0  0  0  0  0  0  0  0  0  0
   17.1891   19.4229   22.5338 H   0  0  0  0  0  0  0  0  0  0  0  0
   19.0090   18.7385   21.5932 C   0  0  0  0  0  0  0  0  0  0  0  0
   19.2470   17.7419   21.9881 H   0  0  0  0  0  0  0  0  0  0  0  0
   18.3238   18.5667   20.7514 H   0  0  0  0  0  0  0  0  0  0  0  0
   20.2750   19.4372   21.0401 C   0  0  0  0  0  0  0  0  0  0  0  0
   20.9333   19.7646   21.8536 H   0  0  0  0  0  0  0  0  0  0  0  0
   19.9797   20.3502   20.5040 H   0  0  0  0  0  0  0  0  0  0  0  0
   21.0610   18.5184   20.0811 C   0  0  0  0  0  0  0  0  0  0  0  0
   21.4020   17.6082   20.5911 H   0  0  0  0  0  0  0  0  0  0  0  0
   21.9459   19.0353   19.6876 H   0  0  0  0  0  0  0  0  0  0  0  0
   20.4403   18.2178   19.2268 H   0  0  0  0  0  0  0  0  0  0  0  0
  1  2  1  0  0  0  0
  1  3  1  0  0  0  0
  1  4  1  0  0  0  0
  1  5  1  0  0  0  0
  5  6  1  0  0  0  0
  5  7  1  0  0  0  0
  5  8  1  0  0  0  0
  8  9  1  0  0  0  0
  8 10  1  0  0  0  0
  8 11  1  0  0  0  0
 11 12  1  0  0  0  0
 11 13  1  0  0  0  0
 11 14  1  0  0  0  0
 14 15  1  0  0  0  0
 14 16  1  0  0  0  0
 14 17  1  0  0  0  0
 17 18  1  0  0  0  0
 17 19  1  0  0  0  0
 17 20  1  0  0  0  0
 20 21  1  0  0  0  0
 20 22  1  0  0  0  0
 20 23  1  0  0  0  0
M  END
> <VConfSearch Rank>
16

> <Conf_Id>
5

> <Delta U+W>
6.087

> <U+W>
-2.295

> <U>
52.836

> <W>
-55.131

> <W(PB)>
-57.202

> <W(SA)>
2.071

> <Valence>
5.785

> <Coulomb>
46.744

> <VdW>
0.307

> <VdW6>
-7.672

> <VdW12>
7.980

> <Bond>
0.217

> <Angle>
1.470

> <Pdih>
4.098

> <Idih>
0.000

> <Tether>
0.000

$$$$
VeraChem MOL file


 23 22  0  0  0  0  0  0  0  0999 V2000     
   19.6537   15.4332   24.0007 N   0  3  0  0  0  0  0  0  0  0  0  0
   20.4452   15.0720   23.4585 H   0  0  0  0  0  0  0  0  0  0  0  0
   18.9928   14.6572   24.1159 H   0  0  0  0  0  0  0  0  0  0  0  0
   20.0080   15.6636   24.9346 H   0  0  0  0  0  0  0  0  0  0  0  0
   19.0071   16.6283   23.3302 C   0  0  0  0  0  0  0  0  0  0  0  0
   18.1578   16.9408   23.9437 H   0  0  0  0  0  0  0  0  0  0  0  0
   18.6277   16.3049   22.3571 H   0  0  0  0  0  0  0  0  0  0  0  0
   19.9736   17.8112   23.1423 C   0  0  0  0  0  0  0  0  0  0  0  0
   20.3646   18.1219   24.1204 H   0  0  0  0  0  0  0  0  0  0  0  0
   20.8329   17.4883   22.5395 H   0  0  0  0  0  0  0  0  0  0  0  0
   19.2769   19.0072   22.4566 C   0  0  0  0  0  0  0  0  0  0  0  0
   18.4147   19.3239   23.0600 H   0  0  0  0  0  0  0  0  0  0  0  0
   18.8825   18.6909   21.4807 H   0  0  0  0  0  0  0  0  0  0  0  0
   20.2388   20.2015   22.2628 C   0  0  0  0  0  0  0  0  0  0  0  0
   20.6330   20.5180   23.2385 H   0  0  0  0  0  0  0  0  0  0  0  0
   21.1009   19.8850   21.6594 H   0  0  0  0  0  0  0  0  0  0  0  0
   19.5417   21.3974   21.5769 C   0  0  0  0  0  0  0  0  0  0  0  0
   18.6797   21.7194   22.1780 H   0  0  0  0  0  0  0  0  0  0  0  0
   19.1476   21.0864   20.5991 H   0  0  0  0  0  0  0  0  0  0  0  0
   20.5052   22.5880   21.3851 C   0  0  0  0  0  0  0  0  0  0  0  0
   19.9925   23.4269   20.8969 H   0  0  0  0  0  0  0  0  0  0  0  0
   21.3614   22.3059   20.7586 H   0  0  0  0  0  0  0  0  0  0  0  0
   20.8900   22.9438   22.3498 H   0  0  0  0  0  0  0  0  0  0  0  0
  1  2  1  0  0  0  0
  1  3  1  0  0  0  0
  1  4  1  0  0  0  0
  1  5  1  0  0  0  0
  5  6  1  0  0  0  0
  5  7  1  0  0  0  0
  5  8  1  0  0  0  0
  8  9  1  0  0  0  0
  8 10  1  0  0  0  0
  8 11  1  0  0  0  0
 11 12  1  0  0  0  0
 11 13  1  0  0  0  0
 11 14  1  0  0  0  0
 14 15  1  0  0  0  0
 14 16  1  0  0  0  0
 14 17  1  0  0  0  0
 17 18  1  0  0  0  0
 17 19  1  0  0  0  0
 17 20  1  0  0  0  0
 20 21  1  0  0  0  0
 20 22  1  0  0  0  0
 20 23  1  0  0  0  0
M  END
> <VConfSearch Rank>
17

> <Conf_Id>
40

> <Delta U+W>
0.000

> <U+W>
-8.382

> <U>
46.604

> <W>
-54.986

> <W(PB)>
-57.162

> <W(SA)>
2.176

> <Valence>
1.727

> <Coulomb>
44.434

> <VdW>
0.443

> <VdW6>
-4.623

> <VdW12>
5.066

> <Bond>
0.112

> <Angle>
0.386

> <Pdih>
1.228

> <Idih>
0.000

> <Tether>
0.000

$$$$
VeraChem MOL file


 23 22  0  0  0  0  0  0  0  0999 V2000     
   19.1019   15.7896   23.9901 N   0  3  0  0  0  0  0  0  0  0  0  0
   19.9618   15.3816   24.3710 H   0  0  0  0  0  0  0  0  0  0  0  0
   18.9088   15.3124   23.1036 H   0  0  0  0  0  0  0  0  0  0  0  0
   18.3435   15.5405   24.6341 H   0  0  0  0  0  0  0  0  0  0  0  0
   19.2189   17.2896   23.8112 C   0  0  0  0  0  0  0  0  0  0  0  0
   19.3951   17.7340   24.7945 H   0  0  0  0  0  0  0  0  0  0  0  0
   18.2613   17.6573   23.4339 H   0  0  0  0  0  0  0  0  0  0  0  0
   20.3509   17.6960   22.8487 C   0  0  0  0  0  0  0  0  0  0  0  0
   21.2985   17.2794   23.2154 H   0  0  0  0  0  0  0  0  0  0  0  0
   20.1738   17.2508   21.8605 H   0  0  0  0  0  0  0  0  0  0  0  0
   20.4988   19.2297   22.7092 C   0  0  0  0  0  0  0  0  0  0  0  0
   21.3908   19.4347   22.1032 H   0  0  0  0  0  0  0  0  0  0  0  0
   20.6856   19.6711   23.6980 H   0  0  0  0  0  0  0  0  0  0  0  0
   19.2631   19.9034   22.0599 C   0  0  0  0  0  0  0  0  0  0  0  0
   19.0893   19.4761   21.0627 H   0  0  0  0  0  0  0  0  0  0  0  0
   18.3673   19.6772   22.6532 H   0  0  0  0  0  0  0  0  0  0  0  0
   19.3888   21.4422   21.9469 C   0  0  0  0  0  0  0  0  0  0  0  0
   19.5523   21.8761   22.9433 H   0  0  0  0  0  0  0  0  0  0  0  0
   18.4323   21.8479   21.5887 H   0  0  0  0  0  0  0  0  0  0  0  0
   20.5120   21.9007   20.9889 C   0  0  0  0  0  0  0  0  0  0  0  0
   21.5040   21.6279   21.3693 H   0  0  0  0  0  0  0  0  0  0  0  0
   20.4937   22.9919   20.8706 H   0  0  0  0  0  0  0  0  0  0  0  0
   20.3895   21.4536   19.9939 H   0  0  0  0  0  0  0  0  0  0  0  0
  1  2  1  0  0  0  0
  1  3  1  0  0  0  0
  1  4  1  0  0  0  0
  1  5  1  0  0  0  0
  5  6  1  0  0  0  0
  5  7  1  0  0  0  0
  5  8  1  0  0  0  0
  8  9  1  0  0  0  0
  8 10  1  0  0  0  0
  8 11  1  0  0  0  0
 11 12  1  0  0  0  0
 11 13  1  0  0  0  0
 11 14  1  0  0  0  0
 14 15  1  0  0  0  0
 14 16  1  0  0  0  0
 14 17  1  0  0  0  0
 17 18  1  0  0  0  0
 17 19  1  0  0  0  0
 17 20  1  0  0  0  0
 20 21  1  0  0  0  0
 20 22  1  0  0  0  0
 20 23  1  0  0  0  0
M  END
> <VConfSearch Rank>
18

> <Conf_Id>
65

> <Delta U+W>
1.004

> <U+W>
-7.378

> <U>
48.047

> <W>
-55.425

> <W(PB)>
-57.542

> <W(SA)>
2.116

> <Valence>
2.583

> <Coulomb>
44.791

> <VdW>
0.673

> <VdW6>
-5.788

> <VdW12>
6.462

> <Bond>
0.177

> <Angle>
0.787

> <Pdih>
1.619

> <Idih>
0.000

> <Tether>
0.000

$$$$
VeraChem MOL file


 23 22  0  0  0  0  0  0  0  0999 V2000     
   16.5189   20.2136   21.7131 N   0  3  0  0  0  0  0  0  0  0  0  0
   16.5826   21.1569   21.3170 H   0  0  0  0  0  0  0  0  0  0  0  0
   15.6741   20.1911   22.2944 H   0  0  0  0  0  0  0  0  0  0  0  0
   16.3606   19.5687   20.9322 H   0  0  0  0  0  0  0  0  0  0  0  0
   17.7576   19.8485   22.5058 C   0  0  0  0  0  0  0  0  0  0  0  0
   17.6065   18.8490   22.9213 H   0  0  0  0  0  0  0  0  0  0  0  0
   17.8486   20.5559   23.3345 H   0  0  0  0  0  0  0  0  0  0  0  0
   19.0445   19.8737   21.6594 C   0  0  0  0  0  0  0  0  0  0  0  0
   18.9541   19.1625   20.8276 H   0  0  0  0  0  0  0  0  0  0  0  0
   19.1575   20.8694   21.2104 H   0  0  0  0  0  0  0  0  0  0  0  0
   20.3124   19.5500   22.4849 C   0  0  0  0  0  0  0  0  0  0  0  0
   20.4055   20.2691   23.3105 H   0  0  0  0  0  0  0  0  0  0  0  0
   21.1887   19.6999   21.8410 H   0  0  0  0  0  0  0  0  0  0  0  0
   20.3205   18.1050   23.0457 C   0  0  0  0  0  0  0  0  0  0  0  0
   19.4309   17.9480   23.6697 H   0  0  0  0  0  0  0  0  0  0  0  0
   20.2483   17.3859   22.2181 H   0  0  0  0  0  0  0  0  0  0  0  0
   21.5702   17.7832   23.9008 C   0  0  0  0  0  0  0  0  0  0  0  0
   21.4411   16.7896   24.3524 H   0  0  0  0  0  0  0  0  0  0  0  0
   21.6418   18.4932   24.7367 H   0  0  0  0  0  0  0  0  0  0  0  0
   22.8890   17.7940   23.0945 C   0  0  0  0  0  0  0  0  0  0  0  0
   23.1293   18.7990   22.7263 H   0  0  0  0  0  0  0  0  0  0  0  0
   22.8309   17.1161   22.2331 H   0  0  0  0  0  0  0  0  0  0  0  0
   23.7262   17.4654   23.7239 H   0  0  0  0  0  0  0  0  0  0  0  0
  1  2  1  0  0  0  0
  1  3  1  0  0  0  0
  1  4  1  0  0  0  0
  1  5  1  0  0  0  0
  5  6  1  0  0  0  0
  5  7  1  0  0  0  0
  5  8  1  0  0  0  0
  8  9  1  0  0  0  0
  8 10  1  0  0  0  0
  8 11  1  0  0  0  0
 11 12  1  0  0  0  0
 11 13  1  0  0  0  0
 11 14  1  0  0  0  0
 14 15  1  0  0  0  0
 14 16  1  0  0  0  0
 14 17  1  0  0  0  0
 17 18  1  0  0  0  0
 17 19  1  0  0  0  0
 17 20  1  0  0  0  0
 20 21  1  0  0  0  0
 20 22  1  0  0  0  0
 20 23  1  0  0  0  0
M  END
> <VConfSearch Rank>
19

> <Conf_Id>
92

> <Delta U+W>
0.973

> <U+W>
-7.409

> <U>
48.047

> <W>
-55.456

> <W(PB)>
-57.595

> <W(SA)>
2.138

> <Valence>
2.583

> <Coulomb>
44.791

> <VdW>
0.674

> <VdW6>
-5.789

> <VdW12>
6.462

> <Bond>
0.177

> <Angle>
0.787

> <Pdih>
1.619

> <Idih>
0.000

> <Tether>
0.000

$$$$
VeraChem MOL file


 23 22  0  0  0  0  0  0  0  0999 V2000     
   20.4693   22.1530   23.9567 N   0  3  0  0  0  0  0  0  0  0  0  0
   20.4992   22.9892   23.3635 H   0  0  0  0  0  0  0  0  0  0  0  0
   21.2760   22.2062   24.5870 H   0  0  0  0  0  0  0  0  0  0  0  0
   19.6278   22.2294   24.5371 H   0  0  0  0  0  0  0  0  0  0  0  0
   20.4763   20.8796   23.1356 C   0  0  0  0  0  0  0  0  0  0  0  0
   21.3821   20.8779   22.5232 H   0  0  0  0  0  0  0  0  0  0  0  0
   19.6103   20.9058   22.4693 H   0  0  0  0  0  0  0  0  0  0  0  0
   20.4322   19.6047   23.9989 C   0  0  0  0  0  0  0  0  0  0  0  0
   21.2823   19.6126   24.6940 H   0  0  0  0  0  0  0  0  0  0  0  0
   19.5228   19.6069   24.6146 H   0  0  0  0  0  0  0  0  0  0  0  0
   20.4857   18.3090   23.1554 C   0  0  0  0  0  0  0  0  0  0  0  0
   20.5447   17.4481   23.8358 H   0  0  0  0  0  0  0  0  0  0  0  0
   21.4092   18.2976   22.5597 H   0  0  0  0  0  0  0  0  0  0  0  0
   19.2613   18.1386   22.2242 C   0  0  0  0  0  0  0  0  0  0  0  0
   18.3385   18.1836   22.8190 H   0  0  0  0  0  0  0  0  0  0  0  0
   19.2176   18.9679   21.5056 H   0  0  0  0  0  0  0  0  0  0  0  0
   19.3098   16.8016   21.4517 C   0  0  0  0  0  0  0  0  0  0  0  0
   19.3453   15.9633   22.1616 H   0  0  0  0  0  0  0  0  0  0  0  0
   20.2316   16.7510   20.8553 H   0  0  0  0  0  0  0  0  0  0  0  0
   18.0889   16.6333   20.5223 C   0  0  0  0  0  0  0  0  0  0  0  0
   17.1522   16.6461   21.0948 H   0  0  0  0  0  0  0  0  0  0  0  0
   18.1409   15.6786   19.9831 H   0  0  0  0  0  0  0  0  0  0  0  0
   18.0455   17.4387   19.7776 H   0  0  0  0  0  0  0  0  0  0  0  0
  1  2  1  0  0  0  0
  1  3  1  0  0  0  0
  1  4  1  0  0  0  0
  1  5  1  0  0  0  0
  5  6  1  0  0  0  0
  5  7  1  0  0  0  0
  5  8  1  0  0  0  0
  8  9  1  0  0  0  0
  8 10  1  0  0  0  0
  8 11  1  0  0  0  0
 11 12  1  0  0  0  0
 11 13  1  0  0  0  0
 11 14  1  0  0  0  0
 14 15  1  0  0  0  0
 14 16  1  0  0  0  0
 14 17  1  0  0  0  0
 17 18  1  0  0  0  0
 17 19  1  0  0  0  0
 17 20  1  0  0  0  0
 20 21  1  0  0  0  0
 20 22  1  0  0  0  0
 20 23  1  0  0  0  0
M  END
> <VConfSearch Rank>
20

> <Conf_Id>
42

> <Delta U+W>
0.365

> <U+W>
-8.017

> <U>
47.375

> <W>
-55.392

> <W(PB)>
-57.543

> <W(SA)>
2.152

> <Valence>
2.032

> <Coulomb>
44.843

> <VdW>
0.499

> <VdW6>
-5.218

> <VdW12>
5.717

> <Bond>
0.135

> <Angle>
0.514

> <Pdih>
1.383

> <Idih>
0.000

> <Tether>
0.000

$$$$
VeraChem MOL file


 23 22  0  0  0  0  0  0  0  0999 V2000     
   18.2186   19.5123   19.8903 N   0  3  0  0  0  0  0  0  0  0  0  0
   19.0512   19.8880   19.4252 H   0  0  0  0  0  0  0  0  0  0  0  0
   17.4090   19.7945   19.3273 H   0  0  0  0  0  0  0  0  0  0  0  0
   18.2775   18.4910   19.8382 H   0  0  0  0  0  0  0  0  0  0  0  0
   18.1049   19.9985   21.3222 C   0  0  0  0  0  0  0  0  0  0  0  0
   17.1888   19.5832   21.7508 H   0  0  0  0  0  0  0  0  0  0  0  0
   18.0044   21.0869   21.2940 H   0  0  0  0  0  0  0  0  0  0  0  0
   19.3093   19.6209   22.2065 C   0  0  0  0  0  0  0  0  0  0  0  0
   20.2314   20.0154   21.7595 H   0  0  0  0  0  0  0  0  0  0  0  0
   19.1835   20.1204   23.1749 H   0  0  0  0  0  0  0  0  0  0  0  0
   19.4341   18.0937   22.4277 C   0  0  0  0  0  0  0  0  0  0  0  0
   19.4551   17.5843   21.4553 H   0  0  0  0  0  0  0  0  0  0  0  0
   18.5371   17.7266   22.9455 H   0  0  0  0  0  0  0  0  0  0  0  0
   20.6969   17.6632   23.2182 C   0  0  0  0  0  0  0  0  0  0  0  0
   20.6952   16.5656   23.2704 H   0  0  0  0  0  0  0  0  0  0  0  0
   21.6030   17.9302   22.6570 H   0  0  0  0  0  0  0  0  0  0  0  0
   20.7805   18.2140   24.6653 C   0  0  0  0  0  0  0  0  0  0  0  0
   21.2371   17.4466   25.3061 H   0  0  0  0  0  0  0  0  0  0  0  0
   19.7725   18.3830   25.0691 H   0  0  0  0  0  0  0  0  0  0  0  0
   21.6308   19.5005   24.7842 C   0  0  0  0  0  0  0  0  0  0  0  0
   22.6618   19.3202   24.4533 H   0  0  0  0  0  0  0  0  0  0  0  0
   21.6711   19.8390   25.8276 H   0  0  0  0  0  0  0  0  0  0  0  0
   21.2236   20.3218   24.1843 H   0  0  0  0  0  0  0  0  0  0  0  0
  1  2  1  0  0  0  0
  1  3  1  0  0  0  0
  1  4  1  0  0  0  0
  1  5  1  0  0  0  0
  5  6  1  0  0  0  0
  5  7  1  0  0  0  0
  5  8  1  0  0  0  0
  8  9  1  0  0  0  0
  8 10  1  0  0  0  0
  8 11  1  0  0  0  0
 11 12  1  0  0  0  0
 11 13  1  0  0  0  0
 11 14  1  0  0  0  0
 14 15  1  0  0  0  0
 14 16  1  0  0  0  0
 14 17  1  0  0  0  0
 17 18  1  0  0  0  0
 17 19  1  0  0  0  0
 17 20  1  0  0  0  0
 20 21  1  0  0  0  0
 20 22  1  0  0  0  0
 20 23  1  0  0  0  0
M  END
> <VConfSearch Rank>
21

> <Conf_Id>
3

> <Delta U+W>
3.283

> <U+W>
-5.099

> <U>
50.701

> <W>
-55.800

> <W(PB)>
-57.867

> <W(SA)>
2.067

> <Valence>
4.880

> <Coulomb>
45.095

> <VdW>
0.726

> <VdW6>
-6.620

> <VdW12>
7.346

> <Bond>
0.222

> <Angle>
1.260

> <Pdih>
3.398

> <Idih>
0.000

> <Tether>
0.000

$$$$
VeraChem MOL file


 23 22  0  0  0  0  0  0  0  0999 V2000     
   20.5212   16.2880   23.0571 N   0  3  0  0  0  0  0  0  0  0  0  0
   20.6327   16.0582   24.0498 H   0  0  0  0  0  0  0  0  0  0  0  0
   20.6665   15.4198   22.5308 H   0  0  0  0  0  0  0  0  0  0  0  0
   19.5447   16.5646   22.9176 H   0  0  0  0  0  0  0  0  0  0  0  0
   21.4794   17.3787   22.6206 C   0  0  0  0  0  0  0  0  0  0  0  0
   21.3309   17.5529   21.5519 H   0  0  0  0  0  0  0  0  0  0  0  0
   22.4968   17.0045   22.7639 H   0  0  0  0  0  0  0  0  0  0  0  0
   21.3078   18.7015   23.3951 C   0  0  0  0  0  0  0  0  0  0  0  0
   21.5104   18.5217   24.4593 H   0  0  0  0  0  0  0  0  0  0  0  0
   22.0732   19.4112   23.0542 H   0  0  0  0  0  0  0  0  0  0  0  0
   19.9080   19.3490   23.2439 C   0  0  0  0  0  0  0  0  0  0  0  0
   19.8836   20.2544   23.8640 H   0  0  0  0  0  0  0  0  0  0  0  0
   19.1397   18.6787   23.6517 H   0  0  0  0  0  0  0  0  0  0  0  0
   19.5604   19.7153   21.7785 C   0  0  0  0  0  0  0  0  0  0  0  0
   20.3151   20.4078   21.3810 H   0  0  0  0  0  0  0  0  0  0  0  0
   19.6081   18.8144   21.1528 H   0  0  0  0  0  0  0  0  0  0  0  0
   18.1525   20.3381   21.6165 C   0  0  0  0  0  0  0  0  0  0  0  0
   17.3921   19.6449   22.0026 H   0  0  0  0  0  0  0  0  0  0  0  0
   17.9422   20.4579   20.5445 H   0  0  0  0  0  0  0  0  0  0  0  0
   18.0025   21.7124   22.3080 C   0  0  0  0  0  0  0  0  0  0  0  0
   18.7729   22.4143   21.9631 H   0  0  0  0  0  0  0  0  0  0  0  0
   18.0784   21.6264   23.3989 H   0  0  0  0  0  0  0  0  0  0  0  0
   17.0227   22.1517   22.0801 H   0  0  0  0  0  0  0  0  0  0  0  0
  1  2  1  0  0  0  0
  1  3  1  0  0  0  0
  1  4  1  0  0  0  0
  1  5  1  0  0  0  0
  5  6  1  0  0  0  0
  5  7  1  0  0  0  0
  5  8  1  0  0  0  0
  8  9  1  0  0  0  0
  8 10  1  0  0  0  0
  8 11  1  0  0  0  0
 11 12  1  0  0  0  0
 11 13  1  0  0  0  0
 11 14  1  0  0  0  0
 14 15  1  0  0  0  0
 14 16  1  0  0  0  0
 14 17  1  0  0  0  0
 17 18  1  0  0  0  0
 17 19  1  0  0  0  0
 17 20  1  0  0  0  0
 20 21  1  0  0  0  0
 20 22  1  0  0  0  0
 20 23  1  0  0  0  0
M  END
> <VConfSearch Rank>
22

> <Conf_Id>
83

> <Delta U+W>
1.229

> <U+W>
-7.154

> <U>
48.727

> <W>
-55.880

> <W(PB)>
-57.960

> <W(SA)>
2.080

> <Valence>
2.671

> <Coulomb>
45.371

> <VdW>
0.684

> <VdW6>
-6.511

> <VdW12>
7.195

> <Bond>
0.203

> <Angle>
0.915

> <Pdih>
1.554

> <Idih>
0.000

> <Tether>
0.000

$$$$
VeraChem MOL file


 23 22  0  0  0  0  0  0  0  0999 V2000     
   20.6623   20.1443   20.0655 N   0  3  0  0  0  0  0  0  0  0  0  0
   20.2136   21.0315   19.8164 H   0  0  0  0  0  0  0  0  0  0  0  0
   19.9294   19.4287   20.0851 H   0  0  0  0  0  0  0  0  0  0  0  0
   21.2975   19.9039   19.2970 H   0  0  0  0  0  0  0  0  0  0  0  0
   21.3913   20.2348   21.3917 C   0  0  0  0  0  0  0  0  0  0  0  0
   22.1769   20.9882   21.2886 H   0  0  0  0  0  0  0  0  0  0  0  0
   21.8703   19.2710   21.5819 H   0  0  0  0  0  0  0  0  0  0  0  0
   20.4779   20.6081   22.5772 C   0  0  0  0  0  0  0  0  0  0  0  0
   21.0948   20.7045   23.4806 H   0  0  0  0  0  0  0  0  0  0  0  0
   20.0445   21.6007   22.3961 H   0  0  0  0  0  0  0  0  0  0  0  0
   19.3372   19.5936   22.8441 C   0  0  0  0  0  0  0  0  0  0  0  0
   18.6688   19.5449   21.9743 H   0  0  0  0  0  0  0  0  0  0  0  0
   18.7300   19.9759   23.6749 H   0  0  0  0  0  0  0  0  0  0  0  0
   19.8525   18.1733   23.1899 C   0  0  0  0  0  0  0  0  0  0  0  0
   20.4799   17.7998   22.3700 H   0  0  0  0  0  0  0  0  0  0  0  0
   20.4989   18.2198   24.0772 H   0  0  0  0  0  0  0  0  0  0  0  0
   18.7179   17.1482   23.4315 C   0  0  0  0  0  0  0  0  0  0  0  0
   19.1646   16.1514   23.5531 H   0  0  0  0  0  0  0  0  0  0  0  0
   18.0740   17.0894   22.5428 H   0  0  0  0  0  0  0  0  0  0  0  0
   17.8581   17.4616   24.6772 C   0  0  0  0  0  0  0  0  0  0  0  0
   18.4831   17.5583   25.5744 H   0  0  0  0  0  0  0  0  0  0  0  0
   17.1354   16.6553   24.8574 H   0  0  0  0  0  0  0  0  0  0  0  0
   17.2891   18.3910   24.5521 H   0  0  0  0  0  0  0  0  0  0  0  0
  1  2  1  0  0  0  0
  1  3  1  0  0  0  0
  1  4  1  0  0  0  0
  1  5  1  0  0  0  0
  5  6  1  0  0  0  0
  5  7  1  0  0  0  0
  5  8  1  0  0  0  0
  8  9  1  0  0  0  0
  8 10  1  0  0  0  0
  8 11  1  0  0  0  0
 11 12  1  0  0  0  0
 11 13  1  0  0  0  0
 11 14  1  0  0  0  0
 14 15  1  0  0  0  0
 14 16  1  0  0  0  0
 14 17  1  0  0  0  0
 17 18  1  0  0  0  0
 17 19  1  0  0  0  0
 17 20  1  0  0  0  0
 20 21  1  0  0  0  0
 20 22  1  0  0  0  0
 20 23  1  0  0  0  0
M  END
> <VConfSearch Rank>
23

> <Conf_Id>
50

> <Delta U+W>
1.252

> <U+W>
-7.130

> <U>
48.727

> <W>
-55.857

> <W(PB)>
-57.937

> <W(SA)>
2.080

> <Valence>
2.671

> <Coulomb>
45.371

> <VdW>
0.684

> <VdW6>
-6.511

> <VdW12>
7.196

> <Bond>
0.203

> <Angle>
0.915

> <Pdih>
1.554

> <Idih>
0.000

> <Tether>
0.000

$$$$
VeraChem MOL file


 23 22  0  0  0  0  0  0  0  0999 V2000     
   17.3199   18.0569   24.3679 N   0  3  0  0  0  0  0  0  0  0  0  0
   17.0682   19.0274   24.1573 H   0  0  0  0  0  0  0  0  0  0  0  0
   16.9577   17.8501   25.3050 H   0  0  0  0  0  0  0  0  0  0  0  0
   16.8062   17.4610   23.7110 H   0  0  0  0  0  0  0  0  0  0  0  0
   18.8169   17.8321   24.2810 C   0  0  0  0  0  0  0  0  0  0  0  0
   19.0123   16.7922   24.5568 H   0  0  0  0  0  0  0  0  0  0  0  0
   19.3004   18.4768   25.0199 H   0  0  0  0  0  0  0  0  0  0  0  0
   19.4080   18.1097   22.8852 C   0  0  0  0  0  0  0  0  0  0  0  0
   20.4634   17.8153   22.8953 H   0  0  0  0  0  0  0  0  0  0  0  0
   18.9158   17.4637   22.1461 H   0  0  0  0  0  0  0  0  0  0  0  0
   19.2689   19.5944   22.4623 C   0  0  0  0  0  0  0  0  0  0  0  0
   19.6746   20.2539   23.2420 H   0  0  0  0  0  0  0  0  0  0  0  0
   18.2005   19.8362   22.3844 H   0  0  0  0  0  0  0  0  0  0  0  0
   19.9367   19.9108   21.0984 C   0  0  0  0  0  0  0  0  0  0  0  0
   19.9253   19.0221   20.4525 H   0  0  0  0  0  0  0  0  0  0  0  0
   19.3208   20.6597   20.5813 H   0  0  0  0  0  0  0  0  0  0  0  0
   21.3754   20.4796   21.1975 C   0  0  0  0  0  0  0  0  0  0  0  0
   21.3602   21.4236   21.7601 H   0  0  0  0  0  0  0  0  0  0  0  0
   21.7197   20.7347   20.1855 H   0  0  0  0  0  0  0  0  0  0  0  0
   22.3979   19.5171   21.8401 C   0  0  0  0  0  0  0  0  0  0  0  0
   22.3954   18.5420   21.3361 H   0  0  0  0  0  0  0  0  0  0  0  0
   22.1848   19.3618   22.9049 H   0  0  0  0  0  0  0  0  0  0  0  0
   23.4122   19.9303   21.7663 H   0  0  0  0  0  0  0  0  0  0  0  0
  1  2  1  0  0  0  0
  1  3  1  0  0  0  0
  1  4  1  0  0  0  0
  1  5  1  0  0  0  0
  5  6  1  0  0  0  0
  5  7  1  0  0  0  0
  5  8  1  0  0  0  0
  8  9  1  0  0  0  0
  8 10  1  0  0  0  0
  8 11  1  0  0  0  0
 11 12  1  0  0  0  0
 11 13  1  0  0  0  0
 11 14  1  0  0  0  0
 14 15  1  0  0  0  0
 14 16  1  0  0  0  0
 14 17  1  0  0  0  0
 17 18  1  0  0  0  0
 17 19  1  0  0  0  0
 17 20  1  0  0  0  0
 20 21  1  0  0  0  0
 20 22  1  0  0  0  0
 20 23  1  0  0  0  0
M  END
> <VConfSearch Rank>
24

> <Conf_Id>
55

> <Delta U+W>
3.232

> <U+W>
-5.150

> <U>
50.625

> <W>
-55.776

> <W(PB)>
-57.839

> <W(SA)>
2.064

> <Valence>
4.837

> <Coulomb>
45.097

> <VdW>
0.692

> <VdW6>
-6.655

> <VdW12>
7.347

> <Bond>
0.223

> <Angle>
1.167

> <Pdih>
3.447

> <Idih>
0.000

> <Tether>
0.000

$$$$
VeraChem MOL file


 23 22  0  0  0  0  0  0  0  0999 V2000     
   18.5017   16.2187   23.0085 N   0  3  0  0  0  0  0  0  0  0  0  0
   18.9707   15.4556   23.5071 H   0  0  0  0  0  0  0  0  0  0  0  0
   17.9503   15.7891   22.2579 H   0  0  0  0  0  0  0  0  0  0  0  0
   17.8358   16.6418   23.6630 H   0  0  0  0  0  0  0  0  0  0  0  0
   19.4897   17.2340   22.4712 C   0  0  0  0  0  0  0  0  0  0  0  0
   18.9251   17.9918   21.9250 H   0  0  0  0  0  0  0  0  0  0  0  0
   20.1461   16.7216   21.7626 H   0  0  0  0  0  0  0  0  0  0  0  0
   20.3386   17.8920   23.5768 C   0  0  0  0  0  0  0  0  0  0  0  0
   19.6902   18.3716   24.3221 H   0  0  0  0  0  0  0  0  0  0  0  0
   20.8836   17.0983   24.1051 H   0  0  0  0  0  0  0  0  0  0  0  0
   21.3660   18.9139   23.0278 C   0  0  0  0  0  0  0  0  0  0  0  0
   21.7817   18.5553   22.0758 H   0  0  0  0  0  0  0  0  0  0  0  0
   22.2140   18.9539   23.7255 H   0  0  0  0  0  0  0  0  0  0  0  0
   20.8279   20.3592   22.8638 C   0  0  0  0  0  0  0  0  0  0  0  0
   20.5115   20.7452   23.8427 H   0  0  0  0  0  0  0  0  0  0  0  0
   21.6604   20.9988   22.5393 H   0  0  0  0  0  0  0  0  0  0  0  0
   19.6643   20.5028   21.8558 C   0  0  0  0  0  0  0  0  0  0  0  0
   18.7701   19.9970   22.2424 H   0  0  0  0  0  0  0  0  0  0  0  0
   19.9297   20.0168   20.9066 H   0  0  0  0  0  0  0  0  0  0  0  0
   19.3183   21.9840   21.5932 C   0  0  0  0  0  0  0  0  0  0  0  0
   20.1759   22.5211   21.1675 H   0  0  0  0  0  0  0  0  0  0  0  0
   19.0239   22.4909   22.5215 H   0  0  0  0  0  0  0  0  0  0  0  0
   18.4840   22.0674   20.8847 H   0  0  0  0  0  0  0  0  0  0  0  0
  1  2  1  0  0  0  0
  1  3  1  0  0  0  0
  1  4  1  0  0  0  0
  1  5  1  0  0  0  0
  5  6  1  0  0  0  0
  5  7  1  0  0  0  0
  5  8  1  0  0  0  0
  8  9  1  0  0  0  0
  8 10  1  0  0  0  0
  8 11  1  0  0  0  0
 11 12  1  0  0  0  0
 11 13  1  0  0  0  0
 11 14  1  0  0  0  0
 14 15  1  0  0  0  0
 14 16  1  0  0  0  0
 14 17  1  0  0  0  0
 17 18  1  0  0  0  0
 17 19  1  0  0  0  0
 17 20  1  0  0  0  0
 20 21  1  0  0  0  0
 20 22  1  0  0  0  0
 20 23  1  0  0  0  0
M  END
> <VConfSearch Rank>
25

> <Conf_Id>
93

> <Delta U+W>
2.589

> <U+W>
-5.793

> <U>
50.122

> <W>
-55.915

> <W(PB)>
-58.031

> <W(SA)>
2.115

> <Valence>
4.132

> <Coulomb>
45.536

> <VdW>
0.454

> <VdW6>
-6.262

> <VdW12>
6.715

> <Bond>
0.182

> <Angle>
1.157

> <Pdih>
2.794

> <Idih>
0.000

> <Tether>
0.000

$$$$
VeraChem MOL file


 23 22  0  0  0  0  0  0  0  0999 V2000     
   18.2298   17.3480   20.3526 N   0  3  0  0  0  0  0  0  0  0  0  0
   18.5110   16.4740   20.8086 H   0  0  0  0  0  0  0  0  0  0  0  0
   18.6014   17.3189   19.3971 H   0  0  0  0  0  0  0  0  0  0  0  0
   17.2077   17.3319   20.2749 H   0  0  0  0  0  0  0  0  0  0  0  0
   18.7198   18.5648   21.1107 C   0  0  0  0  0  0  0  0  0  0  0  0
   18.4102   19.4540   20.5550 H   0  0  0  0  0  0  0  0  0  0  0  0
   19.8107   18.5336   21.1219 H   0  0  0  0  0  0  0  0  0  0  0  0
   18.1714   18.6394   22.5493 C   0  0  0  0  0  0  0  0  0  0  0  0
   17.0748   18.6621   22.4947 H   0  0  0  0  0  0  0  0  0  0  0  0
   18.4352   17.7307   23.1066 H   0  0  0  0  0  0  0  0  0  0  0  0
   18.6525   19.8953   23.3193 C   0  0  0  0  0  0  0  0  0  0  0  0
   17.8916   20.1471   24.0711 H   0  0  0  0  0  0  0  0  0  0  0  0
   18.6966   20.7587   22.6410 H   0  0  0  0  0  0  0  0  0  0  0  0
   20.0047   19.7302   24.0608 C   0  0  0  0  0  0  0  0  0  0  0  0
   20.2013   20.6541   24.6222 H   0  0  0  0  0  0  0  0  0  0  0  0
   19.9158   18.9319   24.8105 H   0  0  0  0  0  0  0  0  0  0  0  0
   21.2122   19.4372   23.1408 C   0  0  0  0  0  0  0  0  0  0  0  0
   21.2418   20.1662   22.3190 H   0  0  0  0  0  0  0  0  0  0  0  0
   21.1062   18.4419   22.6902 H   0  0  0  0  0  0  0  0  0  0  0  0
   22.5451   19.4873   23.9177 C   0  0  0  0  0  0  0  0  0  0  0  0
   23.3900   19.2665   23.2525 H   0  0  0  0  0  0  0  0  0  0  0  0
   22.5554   18.7505   24.7314 H   0  0  0  0  0  0  0  0  0  0  0  0
   22.7115   20.4809   24.3539 H   0  0  0  0  0  0  0  0  0  0  0  0
  1  2  1  0  0  0  0
  1  3  1  0  0  0  0
  1  4  1  0  0  0  0
  1  5  1  0  0  0  0
  5  6  1  0  0  0  0
  5  7  1  0  0  0  0
  5  8  1  0  0  0  0
  8  9  1  0  0  0  0
  8 10  1  0  0  0  0
  8 11  1  0  0  0  0
 11 12  1  0  0  0  0
 11 13  1  0  0  0  0
 11 14  1  0  0  0  0
 14 15  1  0  0  0  0
 14 16  1  0  0  0  0
 14 17  1  0  0  0  0
 17 18  1  0  0  0  0
 17 19  1  0  0  0  0
 17 20  1  0  0  0  0
 20 21  1  0  0  0  0
 20 22  1  0  0  0  0
 20 23  1  0  0  0  0
M  END
> <VConfSearch Rank>
26

> <Conf_Id>
70

> <Delta U+W>
2.599

> <U+W>
-5.783

> <U>
50.122

> <W>
-55.906

> <W(PB)>
-58.010

> <W(SA)>
2.105

> <Valence>
4.132

> <Coulomb>
45.536

> <VdW>
0.454

> <VdW6>
-6.262

> <VdW12>
6.715

> <Bond>
0.182

> <Angle>
1.157

> <Pdih>
2.794

> <Idih>
0.000

> <Tether>
0.000

$$$$
VeraChem MOL file


 23 22  0  0  0  0  0  0  0  0999 V2000     
   21.1895   17.6414   20.4937 N   0  3  0  0  0  0  0  0  0  0  0  0
   22.1604   17.8277   20.2232 H   0  0  0  0  0  0  0  0  0  0  0  0
   20.7797   17.0594   19.7554 H   0  0  0  0  0  0  0  0  0  0  0  0
   21.2162   17.0730   21.3456 H   0  0  0  0  0  0  0  0  0  0  0  0
   20.4071   18.9232   20.7007 C   0  0  0  0  0  0  0  0  0  0  0  0
   19.3776   18.6559   20.9526 H   0  0  0  0  0  0  0  0  0  0  0  0
   20.3949   19.4633   19.7501 H   0  0  0  0  0  0  0  0  0  0  0  0
   20.9919   19.8334   21.7995 C   0  0  0  0  0  0  0  0  0  0  0  0
   22.0132   20.1236   21.5193 H   0  0  0  0  0  0  0  0  0  0  0  0
   20.4146   20.7662   21.8312 H   0  0  0  0  0  0  0  0  0  0  0  0
   21.0148   19.1852   23.2089 C   0  0  0  0  0  0  0  0  0  0  0  0
   21.4073   19.9168   23.9286 H   0  0  0  0  0  0  0  0  0  0  0  0
   21.7308   18.3524   23.2127 H   0  0  0  0  0  0  0  0  0  0  0  0
   19.6423   18.6673   23.7118 C   0  0  0  0  0  0  0  0  0  0  0  0
   19.2777   17.8665   23.0548 H   0  0  0  0  0  0  0  0  0  0  0  0
   19.7868   18.2064   24.6987 H   0  0  0  0  0  0  0  0  0  0  0  0
   18.5686   19.7749   23.8277 C   0  0  0  0  0  0  0  0  0  0  0  0
   18.3565   20.2019   22.8384 H   0  0  0  0  0  0  0  0  0  0  0  0
   18.9472   20.5945   24.4542 H   0  0  0  0  0  0  0  0  0  0  0  0
   17.2553   19.2335   24.4314 C   0  0  0  0  0  0  0  0  0  0  0  0
   16.5044   20.0310   24.5040 H   0  0  0  0  0  0  0  0  0  0  0  0
   17.4196   18.8332   25.4403 H   0  0  0  0  0  0  0  0  0  0  0  0
   16.8362   18.4318   23.8094 H   0  0  0  0  0  0  0  0  0  0  0  0
  1  2  1  0  0  0  0
  1  3  1  0  0  0  0
  1  4  1  0  0  0  0
  1  5  1  0  0  0  0
  5  6  1  0  0  0  0
  5  7  1  0  0  0  0
  5  8  1  0  0  0  0
  8  9  1  0  0  0  0
  8 10  1  0  0  0  0
  8 11  1  0  0  0  0
 11 12  1  0  0  0  0
 11 13  1  0  0  0  0
 11 14  1  0  0  0  0
 14 15  1  0  0  0  0
 14 16  1  0  0  0  0
 14 17  1  0  0  0  0
 17 18  1  0  0  0  0
 17 19  1  0  0  0  0
 17 20  1  0  0  0  0
 20 21  1  0  0  0  0
 20 22  1  0  0  0  0
 20 23  1  0  0  0  0
M  END
> <VConfSearch Rank>
27

> <Conf_Id>
72

> <Delta U+W>
1.051

> <U+W>
-7.331

> <U>
48.590

> <W>
-55.922

> <W(PB)>
-58.012

> <W(SA)>
2.090

> <Valence>
2.601

> <Coulomb>
45.520

> <VdW>
0.469

> <VdW6>
-6.867

> <VdW12>
7.336

> <Bond>
0.205

> <Angle>
0.962

> <Pdih>
1.434

> <Idih>
0.000

> <Tether>
0.000

$$$$
VeraChem MOL file


 23 22  0  0  0  0  0  0  0  0999 V2000     
   19.4974   17.6677   25.4539 N   0  3  0  0  0  0  0  0  0  0  0  0
   19.5366   16.6818   25.7340 H   0  0  0  0  0  0  0  0  0  0  0  0
   18.8352   18.1302   26.0851 H   0  0  0  0  0  0  0  0  0  0  0  0
   20.4223   18.0678   25.6411 H   0  0  0  0  0  0  0  0  0  0  0  0
   19.0966   17.8245   24.0012 C   0  0  0  0  0  0  0  0  0  0  0  0
   18.1193   17.3530   23.8673 H   0  0  0  0  0  0  0  0  0  0  0  0
   19.8257   17.2845   23.3914 H   0  0  0  0  0  0  0  0  0  0  0  0
   19.0286   19.2950   23.5486 C   0  0  0  0  0  0  0  0  0  0  0  0
   18.3217   19.8363   24.1913 H   0  0  0  0  0  0  0  0  0  0  0  0
   20.0057   19.7729   23.6947 H   0  0  0  0  0  0  0  0  0  0  0  0
   18.5800   19.4463   22.0738 C   0  0  0  0  0  0  0  0  0  0  0  0
   18.5304   20.5139   21.8214 H   0  0  0  0  0  0  0  0  0  0  0  0
   17.5520   19.0711   21.9756 H   0  0  0  0  0  0  0  0  0  0  0  0
   19.4761   18.7101   21.0415 C   0  0  0  0  0  0  0  0  0  0  0  0
   19.3929   17.6256   21.1938 H   0  0  0  0  0  0  0  0  0  0  0  0
   19.0777   18.8976   20.0349 H   0  0  0  0  0  0  0  0  0  0  0  0
   20.9743   19.1063   21.0676 C   0  0  0  0  0  0  0  0  0  0  0  0
   21.5060   18.5156   20.3087 H   0  0  0  0  0  0  0  0  0  0  0  0
   21.4233   18.8310   22.0313 H   0  0  0  0  0  0  0  0  0  0  0  0
   21.2163   20.6071   20.7890 C   0  0  0  0  0  0  0  0  0  0  0  0
   20.7647   20.9089   19.8351 H   0  0  0  0  0  0  0  0  0  0  0  0
   22.2918   20.8195   20.7335 H   0  0  0  0  0  0  0  0  0  0  0  0
   20.7956   21.2367   21.5828 H   0  0  0  0  0  0  0  0  0  0  0  0
  1  2  1  0  0  0  0
  1  3  1  0  0  0  0
  1  4  1  0  0  0  0
  1  5  1  0  0  0  0
  5  6  1  0  0  0  0
  5  7  1  0  0  0  0
  5  8  1  0  0  0  0
  8  9  1  0  0  0  0
  8 10  1  0  0  0  0
  8 11  1  0  0  0  0
 11 12  1  0  0  0  0
 11 13  1  0  0  0  0
 11 14  1  0  0  0  0
 14 15  1  0  0  0  0
 14 16  1  0  0  0  0
 14 17  1  0  0  0  0
 17 18  1  0  0  0  0
 17 19  1  0  0  0  0
 17 20  1  0  0  0  0
 20 21  1  0  0  0  0
 20 22  1  0  0  0  0
 20 23  1  0  0  0  0
M  END
> <VConfSearch Rank>
28

> <Conf_Id>
26

> <Delta U+W>
1.076

> <U+W>
-7.306

> <U>
48.641

> <W>
-55.947

> <W(PB)>
-58.031

> <W(SA)>
2.084

> <Valence>
2.922

> <Coulomb>
45.269

> <VdW>
0.449

> <VdW6>
-7.045

> <VdW12>
7.494

> <Bond>
0.220

> <Angle>
1.205

> <Pdih>
1.497

> <Idih>
0.000

> <Tether>
0.000

$$$$
VeraChem MOL file


 23 22  0  0  0  0  0  0  0  0999 V2000     
   17.4991   16.9724   22.0025 N   0  3  0  0  0  0  0  0  0  0  0  0
   17.1881   16.9518   21.0260 H   0  0  0  0  0  0  0  0  0  0  0  0
   16.6952   16.6974   22.5770 H   0  0  0  0  0  0  0  0  0  0  0  0
   18.2067   16.2385   22.1092 H   0  0  0  0  0  0  0  0  0  0  0  0
   18.0329   18.3345   22.3968 C   0  0  0  0  0  0  0  0  0  0  0  0
   18.3159   18.2919   23.4518 H   0  0  0  0  0  0  0  0  0  0  0  0
   17.2224   19.0600   22.2868 H   0  0  0  0  0  0  0  0  0  0  0  0
   19.2422   18.7771   21.5521 C   0  0  0  0  0  0  0  0  0  0  0  0
   20.0518   18.0428   21.6515 H   0  0  0  0  0  0  0  0  0  0  0  0
   18.9578   18.7804   20.4916 H   0  0  0  0  0  0  0  0  0  0  0  0
   19.7557   20.1869   21.9364 C   0  0  0  0  0  0  0  0  0  0  0  0
   18.9704   20.9229   21.7152 H   0  0  0  0  0  0  0  0  0  0  0  0
   20.6000   20.4511   21.2858 H   0  0  0  0  0  0  0  0  0  0  0  0
   20.1767   20.3443   23.4226 C   0  0  0  0  0  0  0  0  0  0  0  0
   20.5368   21.3706   23.5780 H   0  0  0  0  0  0  0  0  0  0  0  0
   19.2919   20.2421   24.0652 H   0  0  0  0  0  0  0  0  0  0  0  0
   21.2657   19.3539   23.9078 C   0  0  0  0  0  0  0  0  0  0  0  0
   20.8897   18.3231   23.8613 H   0  0  0  0  0  0  0  0  0  0  0  0
   21.4706   19.5514   24.9693 H   0  0  0  0  0  0  0  0  0  0  0  0
   22.5893   19.4628   23.1174 C   0  0  0  0  0  0  0  0  0  0  0  0
   22.4573   19.1675   22.0691 H   0  0  0  0  0  0  0  0  0  0  0  0
   23.3526   18.8049   23.5526 H   0  0  0  0  0  0  0  0  0  0  0  0
   22.9783   20.4890   23.1392 H   0  0  0  0  0  0  0  0  0  0  0  0
  1  2  1  0  0  0  0
  1  3  1  0  0  0  0
  1  4  1  0  0  0  0
  1  5  1  0  0  0  0
  5  6  1  0  0  0  0
  5  7  1  0  0  0  0
  5  8  1  0  0  0  0
  8  9  1  0  0  0  0
  8 10  1  0  0  0  0
  8 11  1  0  0  0  0
 11 12  1  0  0  0  0
 11 13  1  0  0  0  0
 11 14  1  0  0  0  0
 14 15  1  0  0  0  0
 14 16  1  0  0  0  0
 14 17  1  0  0  0  0
 17 18  1  0  0  0  0
 17 19  1  0  0  0  0
 17 20  1  0  0  0  0
 20 21  1  0  0  0  0
 20 22  1  0  0  0  0
 20 23  1  0  0  0  0
M  END
> <VConfSearch Rank>
29

> <Conf_Id>
90

> <Delta U+W>
1.131

> <U+W>
-7.251

> <U>
48.641

> <W>
-55.892

> <W(PB)>
-57.962

> <W(SA)>
2.070

> <Valence>
2.922

> <Coulomb>
45.269

> <VdW>
0.450

> <VdW6>
-7.045

> <VdW12>
7.495

> <Bond>
0.220

> <Angle>
1.205

> <Pdih>
1.497

> <Idih>
0.000

> <Tether>
0.000

$$$$
VeraChem MOL file


 23 22  0  0  0  0  0  0  0  0999 V2000     
   19.3556   16.8226   21.0723 N   0  3  0  0  0  0  0  0  0  0  0  0
   19.2238   16.6381   20.0721 H   0  0  0  0  0  0  0  0  0  0  0  0
   18.6736   17.5390   21.3390 H   0  0  0  0  0  0  0  0  0  0  0  0
   19.1040   15.9631   21.5707 H   0  0  0  0  0  0  0  0  0  0  0  0
   20.7741   17.2584   21.3826 C   0  0  0  0  0  0  0  0  0  0  0  0
   20.9879   18.1574   20.7989 H   0  0  0  0  0  0  0  0  0  0  0  0
   21.4475   16.4664   21.0438 H   0  0  0  0  0  0  0  0  0  0  0  0
   21.0236   17.5367   22.8790 C   0  0  0  0  0  0  0  0  0  0  0  0
   20.8517   16.6146   23.4500 H   0  0  0  0  0  0  0  0  0  0  0  0
   22.0832   17.7893   23.0183 H   0  0  0  0  0  0  0  0  0  0  0  0
   20.1464   18.6724   23.4632 C   0  0  0  0  0  0  0  0  0  0  0  0
   20.3840   18.7846   24.5300 H   0  0  0  0  0  0  0  0  0  0  0  0
   19.0897   18.3806   23.4143 H   0  0  0  0  0  0  0  0  0  0  0  0
   20.3592   20.0315   22.7497 C   0  0  0  0  0  0  0  0  0  0  0  0
   21.4330   20.2639   22.7348 H   0  0  0  0  0  0  0  0  0  0  0  0
   20.0428   19.9624   21.7004 H   0  0  0  0  0  0  0  0  0  0  0  0
   19.6117   21.2044   23.4286 C   0  0  0  0  0  0  0  0  0  0  0  0
   19.8985   22.1410   22.9302 H   0  0  0  0  0  0  0  0  0  0  0  0
   19.9394   21.2997   24.4732 H   0  0  0  0  0  0  0  0  0  0  0  0
   18.0734   21.0634   23.3768 C   0  0  0  0  0  0  0  0  0  0  0  0
   17.7225   20.9400   22.3440 H   0  0  0  0  0  0  0  0  0  0  0  0
   17.5917   21.9592   23.7896 H   0  0  0  0  0  0  0  0  0  0  0  0
   17.7271   20.2036   23.9635 H   0  0  0  0  0  0  0  0  0  0  0  0
  1  2  1  0  0  0  0
  1  3  1  0  0  0  0
  1  4  1  0  0  0  0
  1  5  1  0  0  0  0
  5  6  1  0  0  0  0
  5  7  1  0  0  0  0
  5  8  1  0  0  0  0
  8  9  1  0  0  0  0
  8 10  1  0  0  0  0
  8 11  1  0  0  0  0
 11 12  1  0  0  0  0
 11 13  1  0  0  0  0
 11 14  1  0  0  0  0
 14 15  1  0  0  0  0
 14 16  1  0  0  0  0
 14 17  1  0  0  0  0
 17 18  1  0  0  0  0
 17 19  1  0  0  0  0
 17 20  1  0  0  0  0
 20 21  1  0  0  0  0
 20 22  1  0  0  0  0
 20 23  1  0  0  0  0
M  END
> <VConfSearch Rank>
30

> <Conf_Id>
85

> <Delta U+W>
1.193

> <U+W>
-7.189

> <U>
48.775

> <W>
-55.965

> <W(PB)>
-58.038

> <W(SA)>
2.073

> <Valence>
2.602

> <Coulomb>
45.581

> <VdW>
0.592

> <VdW6>
-6.616

> <VdW12>
7.208

> <Bond>
0.196

> <Angle>
0.832

> <Pdih>
1.574

> <Idih>
0.000

> <Tether>
0.000

$$$$
VeraChem MOL file


 23 22  0  0  0  0  0  0  0  0999 V2000     
   19.2392   16.9189   22.6509 N   0  3  0  0  0  0  0  0  0  0  0  0
   19.1469   17.7268   23.2749 H   0  0  0  0  0  0  0  0  0  0  0  0
   19.6159   16.1430   23.2062 H   0  0  0  0  0  0  0  0  0  0  0  0
   18.2944   16.6471   22.3603 H   0  0  0  0  0  0  0  0  0  0  0  0
   20.1218   17.2394   21.4601 C   0  0  0  0  0  0  0  0  0  0  0  0
   20.1697   16.3360   20.8459 H   0  0  0  0  0  0  0  0  0  0  0  0
   21.1305   17.4583   21.8204 H   0  0  0  0  0  0  0  0  0  0  0  0
   19.6086   18.4090   20.5957 C   0  0  0  0  0  0  0  0  0  0  0  0
   20.0524   18.3054   19.5967 H   0  0  0  0  0  0  0  0  0  0  0  0
   18.5240   18.3158   20.4514 H   0  0  0  0  0  0  0  0  0  0  0  0
   19.9577   19.8263   21.1244 C   0  0  0  0  0  0  0  0  0  0  0  0
   19.5835   20.5523   20.3893 H   0  0  0  0  0  0  0  0  0  0  0  0
   21.0479   19.9621   21.1419 H   0  0  0  0  0  0  0  0  0  0  0  0
   19.3524   20.1866   22.5054 C   0  0  0  0  0  0  0  0  0  0  0  0
   19.0814   21.2516   22.5004 H   0  0  0  0  0  0  0  0  0  0  0  0
   18.4109   19.6432   22.6602 H   0  0  0  0  0  0  0  0  0  0  0  0
   20.3327   19.9516   23.6806 C   0  0  0  0  0  0  0  0  0  0  0  0
   21.1877   20.6350   23.5810 H   0  0  0  0  0  0  0  0  0  0  0  0
   20.7510   18.9385   23.6499 H   0  0  0  0  0  0  0  0  0  0  0  0
   19.6530   20.1859   25.0462 C   0  0  0  0  0  0  0  0  0  0  0  0
   19.2711   21.2123   25.1249 H   0  0  0  0  0  0  0  0  0  0  0  0
   20.3664   20.0295   25.8659 H   0  0  0  0  0  0  0  0  0  0  0  0
   18.8117   19.4971   25.1962 H   0  0  0  0  0  0  0  0  0  0  0  0
  1  2  1  0  0  0  0
  1  3  1  0  0  0  0
  1  4  1  0  0  0  0
  1  5  1  0  0  0  0
  5  6  1  0  0  0  0
  5  7  1  0  0  0  0
  5  8  1  0  0  0  0
  8  9  1  0  0  0  0
  8 10  1  0  0  0  0
  8 11  1  0  0  0  0
 11 12  1  0  0  0  0
 11 13  1  0  0  0  0
 11 14  1  0  0  0  0
 14 15  1  0  0  0  0
 14 16  1  0  0  0  0
 14 17  1  0  0  0  0
 17 18  1  0  0  0  0
 17 19  1  0  0  0  0
 17 20  1  0  0  0  0
 20 21  1  0  0  0  0
 20 22  1  0  0  0  0
 20 23  1  0  0  0  0
M  END
> <VConfSearch Rank>
31

> <Conf_Id>
82

> <Delta U+W>
5.994

> <U+W>
-2.388

> <U>
52.836

> <W>
-55.224

> <W(PB)>
-57.261

> <W(SA)>
2.037

> <Valence>
5.785

> <Coulomb>
46.744

> <VdW>
0.307

> <VdW6>
-7.672

> <VdW12>
7.979

> <Bond>
0.217

> <Angle>
1.470

> <Pdih>
4.098

> <Idih>
0.000

> <Tether>
0.000

$$$$
VeraChem MOL file


 23 22  0  0  0  0  0  0  0  0999 V2000     
   21.6631   19.2839   21.5818 N   0  3  0  0  0  0  0  0  0  0  0  0
   22.5099   19.3378   22.1571 H   0  0  0  0  0  0  0  0  0  0  0  0
   21.9667   19.0948   20.6203 H   0  0  0  0  0  0  0  0  0  0  0  0
   21.1279   18.4699   21.9006 H   0  0  0  0  0  0  0  0  0  0  0  0
   20.8412   20.5550   21.6730 C   0  0  0  0  0  0  0  0  0  0  0  0
   19.9887   20.4705   20.9940 H   0  0  0  0  0  0  0  0  0  0  0  0
   21.4764   21.3720   21.3199 H   0  0  0  0  0  0  0  0  0  0  0  0
   20.3468   20.8814   23.0970 C   0  0  0  0  0  0  0  0  0  0  0  0
   21.1567   20.7119   23.8189 H   0  0  0  0  0  0  0  0  0  0  0  0
   20.1318   21.9575   23.1371 H   0  0  0  0  0  0  0  0  0  0  0  0
   19.0662   20.1256   23.5430 C   0  0  0  0  0  0  0  0  0  0  0  0
   18.2229   20.4017   22.8949 H   0  0  0  0  0  0  0  0  0  0  0  0
   18.7997   20.4933   24.5436 H   0  0  0  0  0  0  0  0  0  0  0  0
   19.1991   18.5829   23.6184 C   0  0  0  0  0  0  0  0  0  0  0  0
   20.2368   18.3021   23.8421 H   0  0  0  0  0  0  0  0  0  0  0  0
   18.6055   18.2229   24.4704 H   0  0  0  0  0  0  0  0  0  0  0  0
   18.6878   17.8642   22.3460 C   0  0  0  0  0  0  0  0  0  0  0  0
   19.1431   18.2875   21.4428 H   0  0  0  0  0  0  0  0  0  0  0  0
   17.6060   18.0310   22.2460 H   0  0  0  0  0  0  0  0  0  0  0  0
   18.9638   16.3466   22.3979 C   0  0  0  0  0  0  0  0  0  0  0  0
   20.0395   16.1392   22.4650 H   0  0  0  0  0  0  0  0  0  0  0  0
   18.5813   15.8522   21.4954 H   0  0  0  0  0  0  0  0  0  0  0  0
   18.4734   15.8868   23.2659 H   0  0  0  0  0  0  0  0  0  0  0  0
  1  2  1  0  0  0  0
  1  3  1  0  0  0  0
  1  4  1  0  0  0  0
  1  5  1  0  0  0  0
  5  6  1  0  0  0  0
  5  7  1  0  0  0  0
  5  8  1  0  0  0  0
  8  9  1  0  0  0  0
  8 10  1  0  0  0  0
  8 11  1  0  0  0  0
 11 12  1  0  0  0  0
 11 13  1  0  0  0  0
 11 14  1  0  0  0  0
 14 15  1  0  0  0  0
 14 16  1  0  0  0  0
 14 17  1  0  0  0  0
 17 18  1  0  0  0  0
 17 19  1  0  0  0  0
 17 20  1  0  0  0  0
 20 21  1  0  0  0  0
 20 22  1  0  0  0  0
 20 23  1  0  0  0  0
M  END
> <VConfSearch Rank>
32

> <Conf_Id>
5

> <Delta U+W>
6.087

> <U+W>
-2.295

> <U>
52.836

> <W>
-55.131

> <W(PB)>
-57.202

> <W(SA)>
2.071

> <Valence>
5.785

> <Coulomb>
46.744

> <VdW>
0.307

> <VdW6>
-7.672

> <VdW12>
7.980

> <Bond>
0.217

> <Angle>
1.470

> <Pdih>
4.098

> <Idih>
0.000

> <Tether>
0.000

$$$$
VeraChem MOL file


 23 22  0  0  0  0  0  0  0  0999 V2000     
   18.3298   17.3777   25.7675 N   0  3  0  0  0  0  0  0  0  0  0  0
   17.3424   17.5060   25.5233 H   0  0  0  0  0  0  0  0  0  0  0  0
   18.3963   17.4526   26.7883 H   0  0  0  0  0  0  0  0  0  0  0  0
   18.5781   16.4137   25.5229 H   0  0  0  0  0  0  0  0  0  0  0  0
   19.2205   18.3857   25.0700 C   0  0  0  0  0  0  0  0  0  0  0  0
   20.2489   18.2107   25.3974 H   0  0  0  0  0  0  0  0  0  0  0  0
   18.9207   19.3848   25.3979 H   0  0  0  0  0  0  0  0  0  0  0  0
   19.1436   18.2993   23.5354 C   0  0  0  0  0  0  0  0  0  0  0  0
   19.4298   17.2896   23.2118 H   0  0  0  0  0  0  0  0  0  0  0  0
   18.1062   18.4594   23.2123 H   0  0  0  0  0  0  0  0  0  0  0  0
   20.0646   19.3417   22.8634 C   0  0  0  0  0  0  0  0  0  0  0  0
   21.1006   19.1815   23.1933 H   0  0  0  0  0  0  0  0  0  0  0  0
   19.7785   20.3500   23.1937 H   0  0  0  0  0  0  0  0  0  0  0  0
   19.9952   19.2638   21.3213 C   0  0  0  0  0  0  0  0  0  0  0  0
   20.2815   18.2556   20.9909 H   0  0  0  0  0  0  0  0  0  0  0  0
   18.9594   19.4239   20.9914 H   0  0  0  0  0  0  0  0  0  0  0  0
   20.9164   20.3064   20.6497 C   0  0  0  0  0  0  0  0  0  0  0  0
   21.9544   20.1488   20.9748 H   0  0  0  0  0  0  0  0  0  0  0  0
   20.6324   21.3170   20.9752 H   0  0  0  0  0  0  0  0  0  0  0  0
   20.8445   20.2256   19.1099 C   0  0  0  0  0  0  0  0  0  0  0  0
   21.5048   20.9730   18.6512 H   0  0  0  0  0  0  0  0  0  0  0  0
   19.8237   20.4131   18.7520 H   0  0  0  0  0  0  0  0  0  0  0  0
   21.1560   19.2358   18.7515 H   0  0  0  0  0  0  0  0  0  0  0  0
  1  2  1  0  0  0  0
  1  3  1  0  0  0  0
  1  4  1  0  0  0  0
  1  5  1  0  0  0  0
  5  6  1  0  0  0  0
  5  7  1  0  0  0  0
  5  8  1  0  0  0  0
  8  9  1  0  0  0  0
  8 10  1  0  0  0  0
  8 11  1  0  0  0  0
 11 12  1  0  0  0  0
 11 13  1  0  0  0  0
 11 14  1  0  0  0  0
 14 15  1  0  0  0  0
 14 16  1  0  0  0  0
 14 17  1  0  0  0  0
 17 18  1  0  0  0  0
 17 19  1  0  0  0  0
 17 20  1  0  0  0  0
 20 21  1  0  0  0  0
 20 22  1  0  0  0  0
 20 23  1  0  0  0  0
M  END
> <VConfSearch Rank>
33

> <Conf_Id>
40

> <Delta U+W>
0.000

> <U+W>
-8.382

> <U>
46.604

> <W>
-54.986

> <W(PB)>
-57.162

> <W(SA)>
2.176

> <Valence>
1.727

> <Coulomb>
44.434

> <VdW>
0.443

> <VdW6>
-4.623

> <VdW12>
5.066

> <Bond>
0.112

> <Angle>
0.386

> <Pdih>
1.228

> <Idih>
0.000

> <Tether>
0.000

$$$$
VeraChem MOL file


 23 22  0  0  0  0  0  0  0  0999 V2000     
   21.1062   19.4815   19.3300 N   0  3  0  0  0  0  0  0  0  0  0  0
   20.4900   19.0560   18.6299 H   0  0  0  0  0  0  0  0  0  0  0  0
   21.9148   18.8606   19.4372 H   0  0  0  0  0  0  0  0  0  0  0  0
   21.4548   20.3578   18.9266 H   0  0  0  0  0  0  0  0  0  0  0  0
   20.3921   19.7124   20.6462 C   0  0  0  0  0  0  0  0  0  0  0  0
   19.5634   20.4020   20.4641 H   0  0  0  0  0  0  0  0  0  0  0  0
   21.0966   20.1936   21.3293 H   0  0  0  0  0  0  0  0  0  0  0  0
   19.8559   18.4136   21.2776 C   0  0  0  0  0  0  0  0  0  0  0  0
   19.1873   17.9176   20.5615 H   0  0  0  0  0  0  0  0  0  0  0  0
   20.6881   17.7210   21.4619 H   0  0  0  0  0  0  0  0  0  0  0  0
   19.0836   18.6608   22.5952 C   0  0  0  0  0  0  0  0  0  0  0  0
   18.6406   17.7094   22.9170 H   0  0  0  0  0  0  0  0  0  0  0  0
   18.2460   19.3463   22.4058 H   0  0  0  0  0  0  0  0  0  0  0  0
   19.9780   19.2271   23.7274 C   0  0  0  0  0  0  0  0  0  0  0  0
   20.8036   18.5311   23.9306 H   0  0  0  0  0  0  0  0  0  0  0  0
   20.4403   20.1661   23.3955 H   0  0  0  0  0  0  0  0  0  0  0  0
   19.2062   19.5087   25.0394 C   0  0  0  0  0  0  0  0  0  0  0  0
   18.3853   20.2128   24.8442 H   0  0  0  0  0  0  0  0  0  0  0  0
   19.8823   20.0134   25.7438 H   0  0  0  0  0  0  0  0  0  0  0  0
   18.6493   18.2340   25.7134 C   0  0  0  0  0  0  0  0  0  0  0  0
   17.8728   17.7594   25.1009 H   0  0  0  0  0  0  0  0  0  0  0  0
   18.1987   18.4787   26.6840 H   0  0  0  0  0  0  0  0  0  0  0  0
   19.4462   17.4998   25.8894 H   0  0  0  0  0  0  0  0  0  0  0  0
  1  2  1  0  0  0  0
  1  3  1  0  0  0  0
  1  4  1  0  0  0  0
  1  5  1  0  0  0  0
  5  6  1  0  0  0  0
  5  7  1  0  0  0  0
  5  8  1  0  0  0  0
  8  9  1  0  0  0  0
  8 10  1  0  0  0  0
  8 11  1  0  0  0  0
 11 12  1  0  0  0  0
 11 13  1  0  0  0  0
 11 14  1  0  0  0  0
 14 15  1  0  0  0  0
 14 16  1  0  0  0  0
 14 17  1  0  0  0  0
 17 18  1  0  0  0  0
 17 19  1  0  0  0  0
 17 20  1  0  0  0  0
 20 21  1  0  0  0  0
 20 22  1  0  0  0  0
 20 23  1  0  0  0  0
M  END
> <VConfSearch Rank>
34

> <Conf_Id>
65

> <Delta U+W>
1.004

> <U+W>
-7.378

> <U>
48.047

> <W>
-55.425

> <W(PB)>
-57.542

> <W(SA)>
2.116

> <Valence>
2.583

> <Coulomb>
44.791

> <VdW>
0.673

> <VdW6>
-5.788

> <VdW12>
6.462

> <Bond>
0.177

> <Angle>
0.787

> <Pdih>
1.619

> <Idih>
0.000

> <Tether>
0.000

$$$$
VeraChem MOL file


 23 22  0  0  0  0  0  0  0  0999 V2000     
   19.3288   22.4696   23.4442 N   0  3  0  0  0  0  0  0  0  0  0  0
   19.9883   23.0503   22.9163 H   0  0  0  0  0  0  0  0  0  0  0  0
   19.2667   22.8707   24.3862 H   0  0  0  0  0  0  0  0  0  0  0  0
   18.4082   22.5873   23.0090 H   0  0  0  0  0  0  0  0  0  0  0  0
   19.7567   21.0165   23.4781 C   0  0  0  0  0  0  0  0  0  0  0  0
   19.0283   20.4671   24.0799 H   0  0  0  0  0  0  0  0  0  0  0  0
   20.7275   20.9621   23.9780 H   0  0  0  0  0  0  0  0  0  0  0  0
   19.8596   20.3850   22.0767 C   0  0  0  0  0  0  0  0  0  0  0  0
   18.8844   20.4383   21.5746 H   0  0  0  0  0  0  0  0  0  0  0  0
   20.5583   20.9754   21.4692 H   0  0  0  0  0  0  0  0  0  0  0  0
   20.3458   18.9168   22.1140 C   0  0  0  0  0  0  0  0  0  0  0  0
   21.3260   18.8679   22.6081 H   0  0  0  0  0  0  0  0  0  0  0  0
   20.5009   18.5802   21.0807 H   0  0  0  0  0  0  0  0  0  0  0  0
   19.3519   17.9648   22.8271 C   0  0  0  0  0  0  0  0  0  0  0  0
   19.1783   18.3162   23.8528 H   0  0  0  0  0  0  0  0  0  0  0  0
   18.3778   17.9985   22.3198 H   0  0  0  0  0  0  0  0  0  0  0  0
   19.8459   16.4994   22.8982 C   0  0  0  0  0  0  0  0  0  0  0  0
   19.1447   15.9215   23.5164 H   0  0  0  0  0  0  0  0  0  0  0  0
   20.8154   16.4584   23.4142 H   0  0  0  0  0  0  0  0  0  0  0  0
   19.9636   15.8202   21.5147 C   0  0  0  0  0  0  0  0  0  0  0  0
   20.7457   16.2847   20.9017 H   0  0  0  0  0  0  0  0  0  0  0  0
   19.0153   15.8772   20.9647 H   0  0  0  0  0  0  0  0  0  0  0  0
   20.2218   14.7594   21.6287 H   0  0  0  0  0  0  0  0  0  0  0  0
  1  2  1  0  0  0  0
  1  3  1  0  0  0  0
  1  4  1  0  0  0  0
  1  5  1  0  0  0  0
  5  6  1  0  0  0  0
  5  7  1  0  0  0  0
  5  8  1  0  0  0  0
  8  9  1  0  0  0  0
  8 10  1  0  0  0  0
  8 11  1  0  0  0  0
 11 12  1  0  0  0  0
 11 13  1  0  0  0  0
 11 14  1  0  0  0  0
 14 15  1  0  0  0  0
 14 16  1  0  0  0  0
 14 17  1  0  0  0  0
 17 18  1  0  0  0  0
 17 19  1  0  0  0  0
 17 20  1  0  0  0  0
 20 21  1  0  0  0  0
 20 22  1  0  0  0  0
 20 23  1  0  0  0  0
M  END
> <VConfSearch Rank>
35

> <Conf_Id>
92

> <Delta U+W>
0.973

> <U+W>
-7.409

> <U>
48.047

> <W>
-55.456

> <W(PB)>
-57.595

> <W(SA)>
2.138

> <Valence>
2.583

> <Coulomb>
44.791

> <VdW>
0.674

> <VdW6>
-5.789

> <VdW12>
6.462

> <Bond>
0.177

> <Angle>
0.787

> <Pdih>
1.619

> <Idih>
0.000

> <Tether>
0.000

$$$$
VeraChem MOL file


 23 22  0  0  0  0  0  0  0  0999 V2000     
   23.2015   18.3220   22.2466 N   0  3  0  0  0  0  0  0  0  0  0  0
   23.8805   19.0867   22.1672 H   0  0  0  0  0  0  0  0  0  0  0  0
   23.4630   17.6181   21.5488 H   0  0  0  0  0  0  0  0  0  0  0  0
   23.3382   17.8970   23.1694 H   0  0  0  0  0  0  0  0  0  0  0  0
   21.7798   18.8090   22.0533 C   0  0  0  0  0  0  0  0  0  0  0  0
   21.7135   19.2738   21.0658 H   0  0  0  0  0  0  0  0  0  0  0  0
   21.5822   19.5746   22.8080 H   0  0  0  0  0  0  0  0  0  0  0  0
   20.7353   17.6825   22.1668 C   0  0  0  0  0  0  0  0  0  0  0  0
   20.9712   16.8996   21.4337 H   0  0  0  0  0  0  0  0  0  0  0  0
   20.8025   17.2152   23.1583 H   0  0  0  0  0  0  0  0  0  0  0  0
   19.2908   18.1794   21.9230 C   0  0  0  0  0  0  0  0  0  0  0  0
   18.6150   17.3130   21.9269 H   0  0  0  0  0  0  0  0  0  0  0  0
   19.2205   18.6234   20.9202 H   0  0  0  0  0  0  0  0  0  0  0  0
   18.8127   19.2021   22.9817 C   0  0  0  0  0  0  0  0  0  0  0  0
   18.9155   18.7669   23.9854 H   0  0  0  0  0  0  0  0  0  0  0  0
   19.4504   20.0959   22.9555 H   0  0  0  0  0  0  0  0  0  0  0  0
   17.3438   19.6217   22.7518 C   0  0  0  0  0  0  0  0  0  0  0  0
   16.6947   18.7353   22.7844 H   0  0  0  0  0  0  0  0  0  0  0  0
   17.2351   20.0573   21.7486 H   0  0  0  0  0  0  0  0  0  0  0  0
   16.8685   20.6427   23.8074 C   0  0  0  0  0  0  0  0  0  0  0  0
   16.9338   20.2232   24.8198 H   0  0  0  0  0  0  0  0  0  0  0  0
   15.8237   20.9279   23.6279 H   0  0  0  0  0  0  0  0  0  0  0  0
   17.4771   21.5558   23.7757 H   0  0  0  0  0  0  0  0  0  0  0  0
  1  2  1  0  0  0  0
  1  3  1  0  0  0  0
  1  4  1  0  0  0  0
  1  5  1  0  0  0  0
  5  6  1  0  0  0  0
  5  7  1  0  0  0  0
  5  8  1  0  0  0  0
  8  9  1  0  0  0  0
  8 10  1  0  0  0  0
  8 11  1  0  0  0  0
 11 12  1  0  0  0  0
 11 13  1  0  0  0  0
 11 14  1  0  0  0  0
 14 15  1  0  0  0  0
 14 16  1  0  0  0  0
 14 17  1  0  0  0  0
 17 18  1  0  0  0  0
 17 19  1  0  0  0  0
 17 20  1  0  0  0  0
 20 21  1  0  0  0  0
 20 22  1  0  0  0  0
 20 23  1  0  0  0  0
M  END
> <VConfSearch Rank>
36

> <Conf_Id>
42

> <Delta U+W>
0.365

> <U+W>
-8.017

> <U>
47.375

> <W>
-55.392

> <W(PB)>
-57.543

> <W(SA)>
2.152

> <Valence>
2.032

> <Coulomb>
44.843

> <VdW>
0.499

> <VdW6>
-5.218

> <VdW12>
5.717

> <Bond>
0.135

> <Angle>
0.514

> <Pdih>
1.383

> <Idih>
0.000

> <Tether>
0.000

$$$$
VeraChem MOL file


 23 22  0  0  0  0  0  0  0  0999 V2000     
   21.4356   16.3374   23.1151 N   0  3  0  0  0  0  0  0  0  0  0  0
   20.6066   15.7355   23.0848 H   0  0  0  0  0  0  0  0  0  0  0  0
   22.1873   15.7893   23.5470 H   0  0  0  0  0  0  0  0  0  0  0  0
   21.7153   16.5167   22.1461 H   0  0  0  0  0  0  0  0  0  0  0  0
   21.1709   17.6240   23.8729 C   0  0  0  0  0  0  0  0  0  0  0  0
   22.0962   18.2062   23.8887 H   0  0  0  0  0  0  0  0  0  0  0  0
   20.9206   17.3548   24.9027 H   0  0  0  0  0  0  0  0  0  0  0  0
   20.0321   18.4752   23.2780 C   0  0  0  0  0  0  0  0  0  0  0  0
   19.1107   17.8795   23.2376 H   0  0  0  0  0  0  0  0  0  0  0  0
   19.8442   19.3099   23.9643 H   0  0  0  0  0  0  0  0  0  0  0  0
   20.3710   19.0305   21.8731 C   0  0  0  0  0  0  0  0  0  0  0  0
   20.6608   18.2024   21.2131 H   0  0  0  0  0  0  0  0  0  0  0  0
   21.2496   19.6866   21.9436 H   0  0  0  0  0  0  0  0  0  0  0  0
   19.2087   19.7984   21.1916 C   0  0  0  0  0  0  0  0  0  0  0  0
   19.5539   20.1010   20.1932 H   0  0  0  0  0  0  0  0  0  0  0  0
   18.3602   19.1223   21.0179 H   0  0  0  0  0  0  0  0  0  0  0  0
   18.7365   21.0696   21.9437 C   0  0  0  0  0  0  0  0  0  0  0  0
   18.4587   21.8319   21.2023 H   0  0  0  0  0  0  0  0  0  0  0  0
   19.5645   21.5007   22.5235 H   0  0  0  0  0  0  0  0  0  0  0  0
   17.5114   20.8238   22.8553 C   0  0  0  0  0  0  0  0  0  0  0  0
   16.6546   20.4641   22.2709 H   0  0  0  0  0  0  0  0  0  0  0  0
   17.2084   21.7553   23.3506 H   0  0  0  0  0  0  0  0  0  0  0  0
   17.7196   20.0849   23.6369 H   0  0  0  0  0  0  0  0  0  0  0  0
  1  2  1  0  0  0  0
  1  3  1  0  0  0  0
  1  4  1  0  0  0  0
  1  5  1  0  0  0  0
  5  6  1  0  0  0  0
  5  7  1  0  0  0  0
  5  8  1  0  0  0  0
  8  9  1  0  0  0  0
  8 10  1  0  0  0  0
  8 11  1  0  0  0  0
 11 12  1  0  0  0  0
 11 13  1  0  0  0  0
 11 14  1  0  0  0  0
 14 15  1  0  0  0  0
 14 16  1  0  0  0  0
 14 17  1  0  0  0  0
 17 18  1  0  0  0  0
 17 19  1  0  0  0  0
 17 20  1  0  0  0  0
 20 21  1  0  0  0  0
 20 22  1  0  0  0  0
 20 23  1  0  0  0  0
M  END
> <VConfSearch Rank>
37

> <Conf_Id>
3

> <Delta U+W>
3.283

> <U+W>
-5.099

> <U>
50.701

> <W>
-55.800

> <W(PB)>
-57.867

> <W(SA)>
2.067

> <Valence>
4.880

> <Coulomb>
45.095

> <VdW>
0.726

> <VdW6>
-6.620

> <VdW12>
7.346

> <Bond>
0.222

> <Angle>
1.260

> <Pdih>
3.398

> <Idih>
0.000

> <Tether>
0.000

$$$$
VeraChem MOL file


 23 22  0  0  0  0  0  0  0  0999 V2000     
   18.9573   16.3208   22.1078 N   0  3  0  0  0  0  0  0  0  0  0  0
   18.7291   16.1263   21.1277 H   0  0  0  0  0  0  0  0  0  0  0  0
   18.8511   15.4390   22.6206 H   0  0  0  0  0  0  0  0  0  0  0  0
   19.9498   16.5723   22.1440 H   0  0  0  0  0  0  0  0  0  0  0  0
   18.0813   17.4162   22.6831 C   0  0  0  0  0  0  0  0  0  0  0  0
   18.3535   17.5520   23.7329 H   0  0  0  0  0  0  0  0  0  0  0  0
   17.0454   17.0682   22.6448 H   0  0  0  0  0  0  0  0  0  0  0  0
   18.1968   18.7600   21.9347 C   0  0  0  0  0  0  0  0  0  0  0  0
   17.8712   18.6197   20.8954 H   0  0  0  0  0  0  0  0  0  0  0  0
   17.4922   19.4739   22.3816 H   0  0  0  0  0  0  0  0  0  0  0  0
   19.6201   19.3729   21.9459 C   0  0  0  0  0  0  0  0  0  0  0  0
   19.5965   20.2975   21.3548 H   0  0  0  0  0  0  0  0  0  0  0  0
   20.3209   18.7005   21.4334 H   0  0  0  0  0  0  0  0  0  0  0  0
   20.1394   19.6833   23.3729 C   0  0  0  0  0  0  0  0  0  0  0  0
   19.4514   20.3780   23.8742 H   0  0  0  0  0  0  0  0  0  0  0  0
   20.1405   18.7635   23.9723 H   0  0  0  0  0  0  0  0  0  0  0  0
   21.5714   20.2711   23.3930 C   0  0  0  0  0  0  0  0  0  0  0  0
   22.2662   19.5753   22.9023 H   0  0  0  0  0  0  0  0  0  0  0  0
   21.9040   20.3511   24.4375 H   0  0  0  0  0  0  0  0  0  0  0  0
   21.6760   21.6640   22.7311 C   0  0  0  0  0  0  0  0  0  0  0  0
   20.9667   22.3700   23.1823 H   0  0  0  0  0  0  0  0  0  0  0  0
   21.4756   21.6156   21.6538 H   0  0  0  0  0  0  0  0  0  0  0  0
   22.6857   22.0751   22.8597 H   0  0  0  0  0  0  0  0  0  0  0  0
  1  2  1  0  0  0  0
  1  3  1  0  0  0  0
  1  4  1  0  0  0  0
  1  5  1  0  0  0  0
  5  6  1  0  0  0  0
  5  7  1  0  0  0  0
  5  8  1  0  0  0  0
  8  9  1  0  0  0  0
  8 10  1  0  0  0  0
  8 11  1  0  0  0  0
 11 12  1  0  0  0  0
 11 13  1  0  0  0  0
 11 14  1  0  0  0  0
 14 15  1  0  0  0  0
 14 16  1  0  0  0  0
 14 17  1  0  0  0  0
 17 18  1  0  0  0  0
 17 19  1  0  0  0  0
 17 20  1  0  0  0  0
 20 21  1  0  0  0  0
 20 22  1  0  0  0  0
 20 23  1  0  0  0  0
M  END
> <VConfSearch Rank>
38

> <Conf_Id>
83

> <Delta U+W>
1.229

> <U+W>
-7.154

> <U>
48.727

> <W>
-55.880

> <W(PB)>
-57.960

> <W(SA)>
2.080

> <Valence>
2.671

> <Coulomb>
45.371

> <VdW>
0.684

> <VdW6>
-6.511

> <VdW12>
7.195

> <Bond>
0.203

> <Angle>
0.915

> <Pdih>
1.554

> <Idih>
0.000

> <Tether>
0.000

$$$$
VeraChem MOL file


 23 22  0  0  0  0  0  0  0  0999 V2000     
   19.0224   19.4270   19.7826 N   0  3  0  0  0  0  0  0  0  0  0  0
   18.7604   20.3924   19.5591 H   0  0  0  0  0  0  0  0  0  0  0  0
   18.3341   19.0736   20.4541 H   0  0  0  0  0  0  0  0  0  0  0  0
   18.9119   18.8801   18.9221 H   0  0  0  0  0  0  0  0  0  0  0  0
   20.4337   19.3387   20.3292 C   0  0  0  0  0  0  0  0  0  0  0  0
   21.1143   19.6975   19.5523 H   0  0  0  0  0  0  0  0  0  0  0  0
   20.6596   18.2859   20.5165 H   0  0  0  0  0  0  0  0  0  0  0  0
   20.6520   20.1580   21.6177 C   0  0  0  0  0  0  0  0  0  0  0  0
   21.7079   20.0808   21.9096 H   0  0  0  0  0  0  0  0  0  0  0  0
   20.4718   21.2194   21.4016 H   0  0  0  0  0  0  0  0  0  0  0  0
   19.7605   19.7203   22.8074 C   0  0  0  0  0  0  0  0  0  0  0  0
   18.7018   19.8648   22.5543 H   0  0  0  0  0  0  0  0  0  0  0  0
   19.9670   20.3909   23.6514 H   0  0  0  0  0  0  0  0  0  0  0  0
   20.0004   18.2519   23.2416 C   0  0  0  0  0  0  0  0  0  0  0  0
   19.8175   17.5821   22.3912 H   0  0  0  0  0  0  0  0  0  0  0  0
   21.0543   18.1159   23.5210 H   0  0  0  0  0  0  0  0  0  0  0  0
   19.0939   17.7998   24.4122 C   0  0  0  0  0  0  0  0  0  0  0  0
   19.2436   16.7236   24.5775 H   0  0  0  0  0  0  0  0  0  0  0  0
   18.0378   17.9234   24.1344 H   0  0  0  0  0  0  0  0  0  0  0  0
   19.3750   18.5485   25.7350 C   0  0  0  0  0  0  0  0  0  0  0  0
   20.4326   18.4677   26.0176 H   0  0  0  0  0  0  0  0  0  0  0  0
   18.7766   18.1234   26.5512 H   0  0  0  0  0  0  0  0  0  0  0  0
   19.1189   19.6124   25.6595 H   0  0  0  0  0  0  0  0  0  0  0  0
  1  2  1  0  0  0  0
  1  3  1  0  0  0  0
  1  4  1  0  0  0  0
  1  5  1  0  0  0  0
  5  6  1  0  0  0  0
  5  7  1  0  0  0  0
  5  8  1  0  0  0  0
  8  9  1  0  0  0  0
  8 10  1  0  0  0  0
  8 11  1  0  0  0  0
 11 12  1  0  0  0  0
 11 13  1  0  0  0  0
 11 14  1  0  0  0  0
 14 15  1  0  0  0  0
 14 16  1  0  0  0  0
 14 17  1  0  0  0  0
 17 18  1  0  0  0  0
 17 19  1  0  0  0  0
 17 20  1  0  0  0  0
 20 21  1  0  0  0  0
 20 22  1  0  0  0  0
 20 23  1  0  0  0  0
M  END
> <VConfSearch Rank>
39

> <Conf_Id>
50

> <Delta U+W>
1.252

> <U+W>
-7.130

> <U>
48.727

> <W>
-55.857

> <W(PB)>
-57.937

> <W(SA)>
2.080

> <Valence>
2.671

> <Coulomb>
45.371

> <VdW>
0.684

> <VdW6>
-6.511

> <VdW12>
7.196

> <Bond>
0.203

> <Angle>
0.915

> <Pdih>
1.554

> <Idih>
0.000

> <Tether>
0.000

$$$$
VeraChem MOL file


 23 22  0  0  0  0  0  0  0  0999 V2000     
   19.4105   16.1351   21.4183 N   0  3  0  0  0  0  0  0  0  0  0  0
   18.4851   16.3364   21.8091 H   0  0  0  0  0  0  0  0  0  0  0  0
   19.5729   15.1292   21.5355 H   0  0  0  0  0  0  0  0  0  0  0  0
   19.3593   16.3139   20.4103 H   0  0  0  0  0  0  0  0  0  0  0  0
   20.4942   16.9614   22.0832 C   0  0  0  0  0  0  0  0  0  0  0  0
   21.4517   16.6647   21.6465 H   0  0  0  0  0  0  0  0  0  0  0  0
   20.5112   16.7064   23.1462 H   0  0  0  0  0  0  0  0  0  0  0  0
   20.3071   18.4821   21.9180 C   0  0  0  0  0  0  0  0  0  0  0  0
   21.1892   18.9828   22.3325 H   0  0  0  0  0  0  0  0  0  0  0  0
   20.2854   18.7324   20.8491 H   0  0  0  0  0  0  0  0  0  0  0  0
   19.0203   19.0037   22.6071 C   0  0  0  0  0  0  0  0  0  0  0  0
   18.9880   18.6760   23.6554 H   0  0  0  0  0  0  0  0  0  0  0  0
   18.1516   18.5440   22.1173 H   0  0  0  0  0  0  0  0  0  0  0  0
   18.8610   20.5446   22.5269 C   0  0  0  0  0  0  0  0  0  0  0  0
   19.3435   20.9316   21.6188 H   0  0  0  0  0  0  0  0  0  0  0  0
   17.7921   20.7727   22.4134 H   0  0  0  0  0  0  0  0  0  0  0  0
   19.3716   21.3147   23.7716 C   0  0  0  0  0  0  0  0  0  0  0  0
   18.8105   20.9923   24.6599 H   0  0  0  0  0  0  0  0  0  0  0  0
   19.1435   22.3816   23.6391 H   0  0  0  0  0  0  0  0  0  0  0  0
   20.8850   21.1619   24.0387 C   0  0  0  0  0  0  0  0  0  0  0  0
   21.4726   21.4211   23.1486 H   0  0  0  0  0  0  0  0  0  0  0  0
   21.1355   20.1366   24.3377 H   0  0  0  0  0  0  0  0  0  0  0  0
   21.1994   21.8265   24.8537 H   0  0  0  0  0  0  0  0  0  0  0  0
  1  2  1  0  0  0  0
  1  3  1  0  0  0  0
  1  4  1  0  0  0  0
  1  5  1  0  0  0  0
  5  6  1  0  0  0  0
  5  7  1  0  0  0  0
  5  8  1  0  0  0  0
  8  9  1  0  0  0  0
  8 10  1  0  0  0  0
  8 11  1  0  0  0  0
 11 12  1  0  0  0  0
 11 13  1  0  0  0  0
 11 14  1  0  0  0  0
 14 15  1  0  0  0  0
 14 16  1  0  0  0  0
 14 17  1  0  0  0  0
 17 18  1  0  0  0  0
 17 19  1  0  0  0  0
 17 20  1  0  0  0  0
 20 21  1  0  0  0  0
 20 22  1  0  0  0  0
 20 23  1  0  0  0  0
M  END
> <VConfSearch Rank>
40

> <Conf_Id>
55

> <Delta U+W>
3.232

> <U+W>
-5.150

> <U>
50.625

> <W>
-55.776

> <W(PB)>
-57.839

> <W(SA)>
2.064

> <Valence>
4.837

> <Coulomb>
45.097

> <VdW>
0.692

> <VdW6>
-6.655

> <VdW12>
7.347

> <Bond>
0.223

> <Angle>
1.167

> <Pdih>
3.447

> <Idih>
0.000

> <Tether>
0.000

$$$$
VeraChem MOL file


 23 22  0  0  0  0  0  0  0  0999 V2000     
   19.1144   17.5225   25.2570 N   0  3  0  0  0  0  0  0  0  0  0  0
   18.4977   17.9346   25.9646 H   0  0  0  0  0  0  0  0  0  0  0  0
   19.8208   16.9751   25.7603 H   0  0  0  0  0  0  0  0  0  0  0  0
   18.5513   16.8579   24.7168 H   0  0  0  0  0  0  0  0  0  0  0  0
   19.7453   18.5790   24.3730 C   0  0  0  0  0  0  0  0  0  0  0  0
   20.4122   18.0729   23.6728 H   0  0  0  0  0  0  0  0  0  0  0  0
   20.3502   19.2314   25.0085 H   0  0  0  0  0  0  0  0  0  0  0  0
   18.7068   19.4233   23.6084 C   0  0  0  0  0  0  0  0  0  0  0  0
   18.0608   18.7760   23.0005 H   0  0  0  0  0  0  0  0  0  0  0  0
   18.0535   19.9087   24.3457 H   0  0  0  0  0  0  0  0  0  0  0  0
   19.3487   20.5199   22.7213 C   0  0  0  0  0  0  0  0  0  0  0  0
   20.2252   20.9480   23.2273 H   0  0  0  0  0  0  0  0  0  0  0  0
   18.6294   21.3450   22.6245 H   0  0  0  0  0  0  0  0  0  0  0  0
   19.7302   20.0628   21.2892 C   0  0  0  0  0  0  0  0  0  0  0  0
   18.8268   19.7343   20.7570 H   0  0  0  0  0  0  0  0  0  0  0  0
   20.1053   20.9376   20.7401 H   0  0  0  0  0  0  0  0  0  0  0  0
   20.7943   18.9426   21.2326 C   0  0  0  0  0  0  0  0  0  0  0  0
   20.3784   18.0110   21.6379 H   0  0  0  0  0  0  0  0  0  0  0  0
   21.6567   19.2141   21.8573 H   0  0  0  0  0  0  0  0  0  0  0  0
   21.2706   18.6824   19.7876 C   0  0  0  0  0  0  0  0  0  0  0  0
   21.7310   19.5803   19.3552 H   0  0  0  0  0  0  0  0  0  0  0  0
   20.4330   18.3837   19.1438 H   0  0  0  0  0  0  0  0  0  0  0  0
   22.0169   17.8776   19.7645 H   0  0  0  0  0  0  0  0  0  0  0  0
  1  2  1  0  0  0  0
  1  3  1  0  0  0  0
  1  4  1  0  0  0  0
  1  5  1  0  0  0  0
  5  6  1  0  0  0  0
  5  7  1  0  0  0  0
  5  8  1  0  0  0  0
  8  9  1  0  0  0  0
  8 10  1  0  0  0  0
  8 11  1  0  0  0  0
 11 12  1  0  0  0  0
 11 13  1  0  0  0  0
 11 14  1  0  0  0  0
 14 15  1  0  0  0  0
 14 16  1  0  0  0  0
 14 17  1  0  0  0  0
 17 18  1  0  0  0  0
 17 19  1  0  0  0  0
 17 20  1  0  0  0  0
 20 21  1  0  0  0  0
 20 22  1  0  0  0  0
 20 23  1  0  0  0  0
M  END
> <VConfSearch Rank>
41

> <Conf_Id>
93

> <Delta U+W>
2.589

> <U+W>
-5.793

> <U>
50.122

> <W>
-55.915

> <W(PB)>
-58.031

> <W(SA)>
2.115

> <Valence>
4.132

> <Coulomb>
45.536

> <VdW>
0.454

> <VdW6>
-6.262

> <VdW12>
6.715

> <Bond>
0.182

> <Angle>
1.157

> <Pdih>
2.794

> <Idih>
0.000

> <Tether>
0.000

$$$$
VeraChem MOL file


 23 22  0  0  0  0  0  0  0  0999 V2000     
   19.5552   15.8378   22.7655 N   0  3  0  0  0  0  0  0  0  0  0  0
   20.5704   15.8035   22.9034 H   0  0  0  0  0  0  0  0  0  0  0  0
   19.3484   15.2780   21.9313 H   0  0  0  0  0  0  0  0  0  0  0  0
   19.1265   15.3548   23.5616 H   0  0  0  0  0  0  0  0  0  0  0  0
   19.0504   17.2598   22.6289 C   0  0  0  0  0  0  0  0  0  0  0  0
   17.9716   17.2183   22.4565 H   0  0  0  0  0  0  0  0  0  0  0  0
   19.5194   17.6965   21.7453 H   0  0  0  0  0  0  0  0  0  0  0  0
   19.3408   18.1241   23.8717 C   0  0  0  0  0  0  0  0  0  0  0  0
   18.8593   17.6488   24.7367 H   0  0  0  0  0  0  0  0  0  0  0  0
   20.4179   18.1373   24.0850 H   0  0  0  0  0  0  0  0  0  0  0  0
   18.8050   19.5726   23.7439 C   0  0  0  0  0  0  0  0  0  0  0  0
   18.5904   19.9476   24.7543 H   0  0  0  0  0  0  0  0  0  0  0  0
   17.8409   19.5721   23.2166 H   0  0  0  0  0  0  0  0  0  0  0  0
   19.7799   20.5740   23.0715 C   0  0  0  0  0  0  0  0  0  0  0  0
   19.3205   21.5717   23.1036 H   0  0  0  0  0  0  0  0  0  0  0  0
   20.7008   20.6440   23.6669 H   0  0  0  0  0  0  0  0  0  0  0  0
   20.1411   20.2364   21.6066 C   0  0  0  0  0  0  0  0  0  0  0  0
   19.2249   20.0515   21.0286 H   0  0  0  0  0  0  0  0  0  0  0  0
   20.7399   19.3171   21.5715 H   0  0  0  0  0  0  0  0  0  0  0  0
   20.9449   21.3742   20.9418 C   0  0  0  0  0  0  0  0  0  0  0  0
   21.2021   21.1136   19.9069 H   0  0  0  0  0  0  0  0  0  0  0  0
   21.8804   21.5651   21.4837 H   0  0  0  0  0  0  0  0  0  0  0  0
   20.3661   22.3067   20.9197 H   0  0  0  0  0  0  0  0  0  0  0  0
  1  2  1  0  0  0  0
  1  3  1  0  0  0  0
  1  4  1  0  0  0  0
  1  5  1  0  0  0  0
  5  6  1  0  0  0  0
  5  7  1  0  0  0  0
  5  8  1  0  0  0  0
  8  9  1  0  0  0  0
  8 10  1  0  0  0  0
  8 11  1  0  0  0  0
 11 12  1  0  0  0  0
 11 13  1  0  0  0  0
 11 14  1  0  0  0  0
 14 15  1  0  0  0  0
 14 16  1  0  0  0  0
 14 17  1  0  0  0  0
 17 18  1  0  0  0  0
 17 19  1  0  0  0  0
 17 20  1  0  0  0  0
 20 21  1  0  0  0  0
 20 22  1  0  0  0  0
 20 23  1  0  0  0  0
M  END
> <VConfSearch Rank>
42

> <Conf_Id>
70

> <Delta U+W>
2.599

> <U+W>
-5.783

> <U>
50.122

> <W>
-55.906

> <W(PB)>
-58.010

> <W(SA)>
2.105

> <Valence>
4.132

> <Coulomb>
45.536

> <VdW>
0.454

> <VdW6>
-6.262

> <VdW12>
6.715

> <Bond>
0.182

> <Angle>
1.157

> <Pdih>
2.794

> <Idih>
0.000

> <Tether>
0.000

$$$$
VeraChem MOL file


 23 22  0  0  0  0  0  0  0  0999 V2000     
   18.1059   17.0377   21.4137 N   0  3  0  0  0  0  0  0  0  0  0  0
   17.0872   17.0153   21.5245 H   0  0  0  0  0  0  0  0  0  0  0  0
   18.3814   16.1420   20.9971 H   0  0  0  0  0  0  0  0  0  0  0  0
   18.3199   17.7677   20.7276 H   0  0  0  0  0  0  0  0  0  0  0  0
   18.8102   17.2862   22.7330 C   0  0  0  0  0  0  0  0  0  0  0  0
   19.8880   17.2646   22.5521 H   0  0  0  0  0  0  0  0  0  0  0  0
   18.5618   16.4594   23.4040 H   0  0  0  0  0  0  0  0  0  0  0  0
   18.4211   18.6213   23.3992 C   0  0  0  0  0  0  0  0  0  0  0  0
   17.3431   18.6178   23.6076 H   0  0  0  0  0  0  0  0  0  0  0  0
   18.9142   18.6859   24.3775 H   0  0  0  0  0  0  0  0  0  0  0  0
   18.7726   19.8737   22.5535 C   0  0  0  0  0  0  0  0  0  0  0  0
   18.4978   20.7730   23.1218 H   0  0  0  0  0  0  0  0  0  0  0  0
   18.1452   19.8896   21.6522 H   0  0  0  0  0  0  0  0  0  0  0  0
   20.2605   19.9786   22.1292 C   0  0  0  0  0  0  0  0  0  0  0  0
   20.5280   19.1339   21.4805 H   0  0  0  0  0  0  0  0  0  0  0  0
   20.3825   20.8817   21.5153 H   0  0  0  0  0  0  0  0  0  0  0  0
   21.2404   20.0480   23.3241 C   0  0  0  0  0  0  0  0  0  0  0  0
   21.1862   19.1225   23.9128 H   0  0  0  0  0  0  0  0  0  0  0  0
   20.9508   20.8695   23.9942 H   0  0  0  0  0  0  0  0  0  0  0  0
   22.6958   20.2586   22.8552 C   0  0  0  0  0  0  0  0  0  0  0  0
   23.3773   20.3029   23.7146 H   0  0  0  0  0  0  0  0  0  0  0  0
   22.7987   21.1973   22.2954 H   0  0  0  0  0  0  0  0  0  0  0  0
   23.0243   19.4359   22.2068 H   0  0  0  0  0  0  0  0  0  0  0  0
  1  2  1  0  0  0  0
  1  3  1  0  0  0  0
  1  4  1  0  0  0  0
  1  5  1  0  0  0  0
  5  6  1  0  0  0  0
  5  7  1  0  0  0  0
  5  8  1  0  0  0  0
  8  9  1  0  0  0  0
  8 10  1  0  0  0  0
  8 11  1  0  0  0  0
 11 12  1  0  0  0  0
 11 13  1  0  0  0  0
 11 14  1  0  0  0  0
 14 15  1  0  0  0  0
 14 16  1  0  0  0  0
 14 17  1  0  0  0  0
 17 18  1  0  0  0  0
 17 19  1  0  0  0  0
 17 20  1  0  0  0  0
 20 21  1  0  0  0  0
 20 22  1  0  0  0  0
 20 23  1  0  0  0  0
M  END
> <VConfSearch Rank>
43

> <Conf_Id>
72

> <Delta U+W>
1.051

> <U+W>
-7.331

> <U>
48.590

> <W>
-55.922

> <W(PB)>
-58.012

> <W(SA)>
2.090

> <Valence>
2.601

> <Coulomb>
45.520

> <VdW>
0.469

> <VdW6>
-6.867

> <VdW12>
7.336

> <Bond>
0.205

> <Angle>
0.962

> <Pdih>
1.434

> <Idih>
0.000

> <Tether>
0.000

$$$$
VeraChem MOL file


 23 22  0  0  0  0  0  0  0  0999 V2000     
   17.1603   20.1789   23.8919 N   0  3  0  0  0  0  0  0  0  0  0  0
   16.4205   19.7253   24.4385 H   0  0  0  0  0  0  0  0  0  0  0  0
   16.7134   20.9221   23.3454 H   0  0  0  0  0  0  0  0  0  0  0  0
   17.7894   20.6335   24.5613 H   0  0  0  0  0  0  0  0  0  0  0  0
   17.8934   19.1906   23.0079 C   0  0  0  0  0  0  0  0  0  0  0  0
   17.1617   18.7248   22.3424 H   0  0  0  0  0  0  0  0  0  0  0  0
   18.3169   18.4146   23.6509 H   0  0  0  0  0  0  0  0  0  0  0  0
   19.0123   19.8411   22.1731 C   0  0  0  0  0  0  0  0  0  0  0  0
   18.5822   20.6435   21.5591 H   0  0  0  0  0  0  0  0  0  0  0  0
   19.7407   20.3202   22.8397 H   0  0  0  0  0  0  0  0  0  0  0  0
   19.7293   18.8303   21.2440 C   0  0  0  0  0  0  0  0  0  0  0  0
   20.4968   19.3588   20.6628 H   0  0  0  0  0  0  0  0  0  0  0  0
   19.0076   18.4529   20.5064 H   0  0  0  0  0  0  0  0  0  0  0  0
   20.3722   17.6189   21.9718 C   0  0  0  0  0  0  0  0  0  0  0  0
   19.5819   16.9982   22.4152 H   0  0  0  0  0  0  0  0  0  0  0  0
   20.8630   16.9809   21.2240 H   0  0  0  0  0  0  0  0  0  0  0  0
   21.4017   17.9812   23.0723 C   0  0  0  0  0  0  0  0  0  0  0  0
   21.7760   17.0508   23.5216 H   0  0  0  0  0  0  0  0  0  0  0  0
   20.9101   18.5311   23.8861 H   0  0  0  0  0  0  0  0  0  0  0  0
   22.6033   18.7964   22.5430 C   0  0  0  0  0  0  0  0  0  0  0  0
   23.1036   18.2714   21.7190 H   0  0  0  0  0  0  0  0  0  0  0  0
   23.3424   18.9533   23.3393 H   0  0  0  0  0  0  0  0  0  0  0  0
   22.2915   19.7844   22.1821 H   0  0  0  0  0  0  0  0  0  0  0  0
  1  2  1  0  0  0  0
  1  3  1  0  0  0  0
  1  4  1  0  0  0  0
  1  5  1  0  0  0  0
  5  6  1  0  0  0  0
  5  7  1  0  0  0  0
  5  8  1  0  0  0  0
  8  9  1  0  0  0  0
  8 10  1  0  0  0  0
  8 11  1  0  0  0  0
 11 12  1  0  0  0  0
 11 13  1  0  0  0  0
 11 14  1  0  0  0  0
 14 15  1  0  0  0  0
 14 16  1  0  0  0  0
 14 17  1  0  0  0  0
 17 18  1  0  0  0  0
 17 19  1  0  0  0  0
 17 20  1  0  0  0  0
 20 21  1  0  0  0  0
 20 22  1  0  0  0  0
 20 23  1  0  0  0  0
M  END
> <VConfSearch Rank>
44

> <Conf_Id>
26

> <Delta U+W>
1.076

> <U+W>
-7.306

> <U>
48.641

> <W>
-55.947

> <W(PB)>
-58.031

> <W(SA)>
2.084

> <Valence>
2.922

> <Coulomb>
45.269

> <VdW>
0.449

> <VdW6>
-7.045

> <VdW12>
7.494

> <Bond>
0.220

> <Angle>
1.205

> <Pdih>
1.497

> <Idih>
0.000

> <Tether>
0.000

$$$$
VeraChem MOL file


 23 22  0  0  0  0  0  0  0  0999 V2000     
   22.5396   20.4460   23.1467 N   0  3  0  0  0  0  0  0  0  0  0  0
   22.6101   20.9190   24.0534 H   0  0  0  0  0  0  0  0  0  0  0  0
   23.1545   20.9505   22.4992 H   0  0  0  0  0  0  0  0  0  0  0  0
   22.9358   19.5080   23.2643 H   0  0  0  0  0  0  0  0  0  0  0  0
   21.1111   20.3979   22.6442 C   0  0  0  0  0  0  0  0  0  0  0  0
   21.1154   19.9102   21.6658 H   0  0  0  0  0  0  0  0  0  0  0  0
   20.7634   21.4263   22.5147 H   0  0  0  0  0  0  0  0  0  0  0  0
   20.1612   19.6459   23.5950 C   0  0  0  0  0  0  0  0  0  0  0  0
   20.5165   18.6171   23.7360 H   0  0  0  0  0  0  0  0  0  0  0  0
   20.1929   20.1211   24.5844 H   0  0  0  0  0  0  0  0  0  0  0  0
   18.6963   19.6361   23.0918 C   0  0  0  0  0  0  0  0  0  0  0  0
   18.3208   20.6686   23.0734 H   0  0  0  0  0  0  0  0  0  0  0  0
   18.0696   19.1067   23.8217 H   0  0  0  0  0  0  0  0  0  0  0  0
   18.4949   19.0112   21.6848 C   0  0  0  0  0  0  0  0  0  0  0  0
   17.4248   19.0419   21.4377 H   0  0  0  0  0  0  0  0  0  0  0  0
   18.9891   19.6400   20.9321 H   0  0  0  0  0  0  0  0  0  0  0  0
   19.0014   17.5544   21.5317 C   0  0  0  0  0  0  0  0  0  0  0  0
   20.0900   17.5141   21.6707 H   0  0  0  0  0  0  0  0  0  0  0  0
   18.8180   17.2267   20.4989 H   0  0  0  0  0  0  0  0  0  0  0  0
   18.3148   16.5621   22.4975 C   0  0  0  0  0  0  0  0  0  0  0  0
   18.5595   16.7844   23.5436 H   0  0  0  0  0  0  0  0  0  0  0  0
   18.6437   15.5353   22.2919 H   0  0  0  0  0  0  0  0  0  0  0  0
   17.2233   16.5940   22.3854 H   0  0  0  0  0  0  0  0  0  0  0  0
  1  2  1  0  0  0  0
  1  3  1  0  0  0  0
  1  4  1  0  0  0  0
  1  5  1  0  0  0  0
  5  6  1  0  0  0  0
  5  7  1  0  0  0  0
  5  8  1  0  0  0  0
  8  9  1  0  0  0  0
  8 10  1  0  0  0  0
  8 11  1  0  0  0  0
 11 12  1  0  0  0  0
 11 13  1  0  0  0  0
 11 14  1  0  0  0  0
 14 15  1  0  0  0  0
 14 16  1  0  0  0  0
 14 17  1  0  0  0  0
 17 18  1  0  0  0  0
 17 19  1  0  0  0  0
 17 20  1  0  0  0  0
 20 21  1  0  0  0  0
 20 22  1  0  0  0  0
 20 23  1  0  0  0  0
M  END
> <VConfSearch Rank>
45

> <Conf_Id>
90

> <Delta U+W>
1.131

> <U+W>
-7.251

> <U>
48.641

> <W>
-55.892

> <W(PB)>
-57.962

> <W(SA)>
2.070

> <Valence>
2.922

> <Coulomb>
45.269

> <VdW>
0.450

> <VdW6>
-7.045

> <VdW12>
7.495

> <Bond>
0.220

> <Angle>
1.205

> <Pdih>
1.497

> <Idih>
0.000

> <Tether>
0.000

$$$$
VeraChem MOL file


 23 22  0  0  0  0  0  0  0  0999 V2000     
   22.4445   18.9852   22.4000 N   0  3  0  0  0  0  0  0  0  0  0  0
   23.1400   19.4438   21.8019 H   0  0  0  0  0  0  0  0  0  0  0  0
   21.7957   18.4888   21.7816 H   0  0  0  0  0  0  0  0  0  0  0  0
   22.9424   18.2773   22.9491 H   0  0  0  0  0  0  0  0  0  0  0  0
   21.7210   19.9793   23.2870 C   0  0  0  0  0  0  0  0  0  0  0  0
   21.2396   20.7200   22.6434 H   0  0  0  0  0  0  0  0  0  0  0  0
   22.4722   20.4936   23.8925 H   0  0  0  0  0  0  0  0  0  0  0  0
   20.6713   19.3332   24.2142 C   0  0  0  0  0  0  0  0  0  0  0  0
   21.1731   18.6260   24.8879 H   0  0  0  0  0  0  0  0  0  0  0  0
   20.2406   20.1133   24.8558 H   0  0  0  0  0  0  0  0  0  0  0  0
   19.5307   18.6029   23.4616 C   0  0  0  0  0  0  0  0  0  0  0  0
   18.8467   18.1658   24.2020 H   0  0  0  0  0  0  0  0  0  0  0  0
   19.9468   17.7605   22.8949 H   0  0  0  0  0  0  0  0  0  0  0  0
   18.7298   19.5372   22.5197 C   0  0  0  0  0  0  0  0  0  0  0  0
   18.3946   20.4163   23.0873 H   0  0  0  0  0  0  0  0  0  0  0  0
   19.3792   19.9151   21.7188 H   0  0  0  0  0  0  0  0  0  0  0  0
   17.4906   18.8572   21.8895 C   0  0  0  0  0  0  0  0  0  0  0  0
   16.9230   19.6109   21.3261 H   0  0  0  0  0  0  0  0  0  0  0  0
   16.8201   18.4972   22.6823 H   0  0  0  0  0  0  0  0  0  0  0  0
   17.8475   17.6904   20.9406 C   0  0  0  0  0  0  0  0  0  0  0  0
   18.5386   18.0185   20.1535 H   0  0  0  0  0  0  0  0  0  0  0  0
   16.9439   17.3023   20.4528 H   0  0  0  0  0  0  0  0  0  0  0  0
   18.3125   16.8576   21.4824 H   0  0  0  0  0  0  0  0  0  0  0  0
  1  2  1  0  0  0  0
  1  3  1  0  0  0  0
  1  4  1  0  0  0  0
  1  5  1  0  0  0  0
  5  6  1  0  0  0  0
  5  7  1  0  0  0  0
  5  8  1  0  0  0  0
  8  9  1  0  0  0  0
  8 10  1  0  0  0  0
  8 11  1  0  0  0  0
 11 12  1  0  0  0  0
 11 13  1  0  0  0  0
 11 14  1  0  0  0  0
 14 15  1  0  0  0  0
 14 16  1  0  0  0  0
 14 17  1  0  0  0  0
 17 18  1  0  0  0  0
 17 19  1  0  0  0  0
 17 20  1  0  0  0  0
 20 21  1  0  0  0  0
 20 22  1  0  0  0  0
 20 23  1  0  0  0  0
M  END
> <VConfSearch Rank>
46

> <Conf_Id>
85

> <Delta U+W>
1.193

> <U+W>
-7.189

> <U>
48.775

> <W>
-55.965

> <W(PB)>
-58.038

> <W(SA)>
2.073

> <Valence>
2.602

> <Coulomb>
45.581

> <VdW>
0.592

> <VdW6>
-6.616

> <VdW12>
7.208

> <Bond>
0.196

> <Angle>
0.832

> <Pdih>
1.574

> <Idih>
0.000

> <Tether>
0.000

$$$$
VeraChem MOL file


 23 22  0  0  0  0  0  0  0  0999 V2000     
   20.3942   20.7169   23.3575 N   0  3  0  0  0  0  0  0  0  0  0  0
   20.7420   19.7534   23.3227 H   0  0  0  0  0  0  0  0  0  0  0  0
   20.4937   21.0450   24.3244 H   0  0  0  0  0  0  0  0  0  0  0  0
   21.0203   21.2893   22.7820 H   0  0  0  0  0  0  0  0  0  0  0  0
   18.9577   20.8027   22.8791 C   0  0  0  0  0  0  0  0  0  0  0  0
   18.6618   21.8533   22.9439 H   0  0  0  0  0  0  0  0  0  0  0  0
   18.3259   20.2296   23.5628 H   0  0  0  0  0  0  0  0  0  0  0  0
   18.7477   20.3090   21.4331 C   0  0  0  0  0  0  0  0  0  0  0  0
   17.8229   20.7652   21.0558 H   0  0  0  0  0  0  0  0  0  0  0  0
   19.5522   20.6904   20.7902 H   0  0  0  0  0  0  0  0  0  0  0  0
   18.6176   18.7706   21.2708 C   0  0  0  0  0  0  0  0  0  0  0  0
   18.4176   18.5682   20.2094 H   0  0  0  0  0  0  0  0  0  0  0  0
   17.7307   18.4103   21.8102 H   0  0  0  0  0  0  0  0  0  0  0  0
   19.8659   17.9517   21.6883 C   0  0  0  0  0  0  0  0  0  0  0  0
   19.9674   17.0973   21.0046 H   0  0  0  0  0  0  0  0  0  0  0  0
   20.7759   18.5504   21.5496 H   0  0  0  0  0  0  0  0  0  0  0  0
   19.7765   17.3973   23.1311 C   0  0  0  0  0  0  0  0  0  0  0  0
   18.9533   16.6714   23.1897 H   0  0  0  0  0  0  0  0  0  0  0  0
   19.5296   18.1917   23.8454 H   0  0  0  0  0  0  0  0  0  0  0  0
   21.0898   16.7098   23.5607 C   0  0  0  0  0  0  0  0  0  0  0  0
   21.3335   15.8739   22.8920 H   0  0  0  0  0  0  0  0  0  0  0  0
   21.0027   16.3102   24.5795 H   0  0  0  0  0  0  0  0  0  0  0  0
   21.9316   17.4141   23.5462 H   0  0  0  0  0  0  0  0  0  0  0  0
  1  2  1  0  0  0  0
  1  3  1  0  0  0  0
  1  4  1  0  0  0  0
  1  5  1  0  0  0  0
  5  6  1  0  0  0  0
  5  7  1  0  0  0  0
  5  8  1  0  0  0  0
  8  9  1  0  0  0  0
  8 10  1  0  0  0  0
  8 11  1  0  0  0  0
 11 12  1  0  0  0  0
 11 13  1  0  0  0  0
 11 14  1  0  0  0  0
 14 15  1  0  0  0  0
 14 16  1  0  0  0  0
 14 17  1  0  0  0  0
 17 18  1  0  0  0  0
 17 19  1  0  0  0  0
 17 20  1  0  0  0  0
 20 21  1  0  0  0  0
 20 22  1  0  0  0  0
 20 23  1  0  0  0  0
M  END
> <VConfSearch Rank>
47

> <Conf_Id>
82

> <Delta U+W>
5.994

> <U+W>
-2.388

> <U>
52.836

> <W>
-55.224

> <W(PB)>
-57.261

> <W(SA)>
2.037

> <Valence>
5.785

> <Coulomb>
46.744

> <VdW>
0.307

> <VdW6>
-7.672

> <VdW12>
7.979

> <Bond>
0.217

> <Angle>
1.470

> <Pdih>
4.098

> <Idih>
0.000

> <Tether>
0.000

$$$$
VeraChem MOL file


 23 22  0  0  0  0  0  0  0  0999 V2000     
   20.9437   20.6016   23.2720 N   0  3  0  0  0  0  0  0  0  0  0  0
   21.9082   20.7076   22.9411 H   0  0  0  0  0  0  0  0  0  0  0  0
   20.6578   21.5092   23.6551 H   0  0  0  0  0  0  0  0  0  0  0  0
   20.3574   20.4158   22.4520 H   0  0  0  0  0  0  0  0  0  0  0  0
   20.8221   19.4932   24.2999 C   0  0  0  0  0  0  0  0  0  0  0  0
   19.7923   19.4662   24.6658 H   0  0  0  0  0  0  0  0  0  0  0  0
   21.4726   19.7612   25.1369 H   0  0  0  0  0  0  0  0  0  0  0  0
   21.2277   18.1017   23.7727 C   0  0  0  0  0  0  0  0  0  0  0  0
   22.1465   18.1840   23.1769 H   0  0  0  0  0  0  0  0  0  0  0  0
   21.4888   17.4797   24.6392 H   0  0  0  0  0  0  0  0  0  0  0  0
   20.1324   17.3540   22.9657 C   0  0  0  0  0  0  0  0  0  0  0  0
   19.2629   17.1561   23.6078 H   0  0  0  0  0  0  0  0  0  0  0  0
   20.5347   16.3655   22.7040 H   0  0  0  0  0  0  0  0  0  0  0  0
   19.6818   18.0506   21.6561 C   0  0  0  0  0  0  0  0  0  0  0  0
   20.5033   18.6517   21.2444 H   0  0  0  0  0  0  0  0  0  0  0  0
   19.4753   17.2774   20.9029 H   0  0  0  0  0  0  0  0  0  0  0  0
   18.3992   18.9006   21.8281 C   0  0  0  0  0  0  0  0  0  0  0  0
   18.4961   19.5969   22.6696 H   0  0  0  0  0  0  0  0  0  0  0  0
   17.5575   18.2394   22.0780 H   0  0  0  0  0  0  0  0  0  0  0  0
   18.0608   19.6889   20.5451 C   0  0  0  0  0  0  0  0  0  0  0  0
   18.8666   20.3859   20.2813 H   0  0  0  0  0  0  0  0  0  0  0  0
   17.1413   20.2731   20.6806 H   0  0  0  0  0  0  0  0  0  0  0  0
   17.9055   19.0106   19.6959 H   0  0  0  0  0  0  0  0  0  0  0  0
  1  2  1  0  0  0  0
  1  3  1  0  0  0  0
  1  4  1  0  0  0  0
  1  5  1  0  0  0  0
  5  6  1  0  0  0  0
  5  7  1  0  0  0  0
  5  8  1  0  0  0  0
  8  9  1  0  0  0  0
  8 10  1  0  0  0  0
  8 11  1  0  0  0  0
 11 12  1  0  0  0  0
 11 13  1  0  0  0  0
 11 14  1  0  0  0  0
 14 15  1  0  0  0  0
 14 16  1  0  0  0  0
 14 17  1  0  0  0  0
 17 18  1  0  0  0  0
 17 19  1  0  0  0  0
 17 20  1  0  0  0  0
 20 21  1  0  0  0  0
 20 22  1  0  0  0  0
 20 23  1  0  0  0  0
M  END
> <VConfSearch Rank>
48

> <Conf_Id>
5

> <Delta U+W>
6.087

> <U+W>
-2.295

> <U>
52.836

> <W>
-55.131

> <W(PB)>
-57.202

> <W(SA)>
2.071

> <Valence>
5.785

> <Coulomb>
46.744

> <VdW>
0.307

> <VdW6>
-7.672

> <VdW12>
7.980

> <Bond>
0.217

> <Angle>
1.470

> <Pdih>
4.098

> <Idih>
0.000

> <Tether>
0.000

$$$$
VeraChem MOL file


 23 22  0  0  0  0  0  0  0  0999 V2000     
   22.8805   17.1615   23.8959 N   0  3  0  0  0  0  0  0  0  0  0  0
   23.5693   17.8290   23.5342 H   0  0  0  0  0  0  0  0  0  0  0  0
   23.3151   16.2333   23.8547 H   0  0  0  0  0  0  0  0  0  0  0  0
   22.7399   17.3806   24.8874 H   0  0  0  0  0  0  0  0  0  0  0  0
   21.5822   17.2101   23.1162 C   0  0  0  0  0  0  0  0  0  0  0  0
   20.9091   16.4567   23.5343 H   0  0  0  0  0  0  0  0  0  0  0  0
   21.8006   16.9386   22.0798 H   0  0  0  0  0  0  0  0  0  0  0  0
   20.9041   18.5910   23.1581 C   0  0  0  0  0  0  0  0  0  0  0  0
   20.7015   18.8666   24.2017 H   0  0  0  0  0  0  0  0  0  0  0  0
   21.5899   19.3468   22.7525 H   0  0  0  0  0  0  0  0  0  0  0  0
   19.5861   18.5985   22.3526 C   0  0  0  0  0  0  0  0  0  0  0  0
   18.9048   17.8374   22.7581 H   0  0  0  0  0  0  0  0  0  0  0  0
   19.7923   18.3172   21.3104 H   0  0  0  0  0  0  0  0  0  0  0  0
   18.8963   19.9812   22.3880 C   0  0  0  0  0  0  0  0  0  0  0  0
   18.6899   20.2626   23.4300 H   0  0  0  0  0  0  0  0  0  0  0  0
   19.5773   20.7423   21.9825 H   0  0  0  0  0  0  0  0  0  0  0  0
   17.5782   19.9884   21.5822 C   0  0  0  0  0  0  0  0  0  0  0  0
   16.8923   19.2301   21.9856 H   0  0  0  0  0  0  0  0  0  0  0  0
   17.7797   19.7099   20.5382 H   0  0  0  0  0  0  0  0  0  0  0  0
   16.8922   21.3706   21.6198 C   0  0  0  0  0  0  0  0  0  0  0  0
   15.9586   21.3560   21.0425 H   0  0  0  0  0  0  0  0  0  0  0  0
   17.5413   22.1452   21.1909 H   0  0  0  0  0  0  0  0  0  0  0  0
   16.6470   21.6618   22.6495 H   0  0  0  0  0  0  0  0  0  0  0  0
  1  2  1  0  0  0  0
  1  3  1  0  0  0  0
  1  4  1  0  0  0  0
  1  5  1  0  0  0  0
  5  6  1  0  0  0  0
  5  7  1  0  0  0  0
  5  8  1  0  0  0  0
  8  9  1  0  0  0  0
  8 10  1  0  0  0  0
  8 11  1  0  0  0  0
 11 12  1  0  0  0  0
 11 13  1  0  0  0  0
 11 14  1  0  0  0  0
 14 15  1  0  0  0  0
 14 16  1  0  0  0  0
 14 17  1  0  0  0  0
 17 18  1  0  0  0  0
 17 19  1  0  0  0  0
 17 20  1  0  0  0  0
 20 21  1  0  0  0  0
 20 22  1  0  0  0  0
 20 23  1  0  0  0  0
M  END
> <VConfSearch Rank>
49

> <Conf_Id>
40

> <Delta U+W>
0.000

> <U+W>
-8.382

> <U>
46.604

> <W>
-54.986

> <W(PB)>
-57.162

> <W(SA)>
2.176

> <Valence>
1.727

> <Coulomb>
44.434

> <VdW>
0.443

> <VdW6>
-4.623

> <VdW12>
5.066

> <Bond>
0.112

> <Angle>
0.386

> <Pdih>
1.228

> <Idih>
0.000

> <Tether>
0.000

$$$$
VeraChem MOL file


 23 22  0  0  0  0  0  0  0  0999 V2000     
   19.0628   16.5340   25.0816 N   0  3  0  0  0  0  0  0  0  0  0  0
   18.0757   16.5724   25.3555 H   0  0  0  0  0  0  0  0  0  0  0  0
   19.6035   16.9578   25.8424 H   0  0  0  0  0  0  0  0  0  0  0  0
   19.3237   15.5426   25.0467 H   0  0  0  0  0  0  0  0  0  0  0  0
   19.3096   17.2281   23.7576 C   0  0  0  0  0  0  0  0  0  0  0  0
   18.7275   16.7095   22.9910 H   0  0  0  0  0  0  0  0  0  0  0  0
   20.3701   17.1207   23.5159 H   0  0  0  0  0  0  0  0  0  0  0  0
   18.9266   18.7201   23.7780 C   0  0  0  0  0  0  0  0  0  0  0  0
   17.8718   18.8143   24.0685 H   0  0  0  0  0  0  0  0  0  0  0  0
   19.5119   19.2417   24.5470 H   0  0  0  0  0  0  0  0  0  0  0  0
   19.1327   19.4116   22.4094 C   0  0  0  0  0  0  0  0  0  0  0  0
   18.7327   20.4316   22.4766 H   0  0  0  0  0  0  0  0  0  0  0  0
   18.5384   18.8936   21.6440 H   0  0  0  0  0  0  0  0  0  0  0  0
   20.6188   19.4638   21.9720 C   0  0  0  0  0  0  0  0  0  0  0  0
   21.2089   20.0001   22.7278 H   0  0  0  0  0  0  0  0  0  0  0  0
   21.0251   18.4447   21.9289 H   0  0  0  0  0  0  0  0  0  0  0  0
   20.8306   20.1245   20.5881 C   0  0  0  0  0  0  0  0  0  0  0  0
   20.2507   19.5855   19.8259 H   0  0  0  0  0  0  0  0  0  0  0  0
   21.8867   20.0153   20.3042 H   0  0  0  0  0  0  0  0  0  0  0  0
   20.4616   21.6253   20.5580 C   0  0  0  0  0  0  0  0  0  0  0  0
   19.3866   21.7802   20.7116 H   0  0  0  0  0  0  0  0  0  0  0  0
   20.7216   22.0650   19.5864 H   0  0  0  0  0  0  0  0  0  0  0  0
   21.0042   22.1812   21.3335 H   0  0  0  0  0  0  0  0  0  0  0  0
  1  2  1  0  0  0  0
  1  3  1  0  0  0  0
  1  4  1  0  0  0  0
  1  5  1  0  0  0  0
  5  6  1  0  0  0  0
  5  7  1  0  0  0  0
  5  8  1  0  0  0  0
  8  9  1  0  0  0  0
  8 10  1  0  0  0  0
  8 11  1  0  0  0  0
 11 12  1  0  0  0  0
 11 13  1  0  0  0  0
 11 14  1  0  0  0  0
 14 15  1  0  0  0  0
 14 16  1  0  0  0  0
 14 17  1  0  0  0  0
 17 18  1  0  0  0  0
 17 19  1  0  0  0  0
 17 20  1  0  0  0  0
 20 21  1  0  0  0  0
 20 22  1  0  0  0  0
 20 23  1  0  0  0  0
M  END
> <VConfSearch Rank>
50

> <Conf_Id>
65

> <Delta U+W>
1.004

> <U+W>
-7.378

> <U>
48.047

> <W>
-55.425

> <W(PB)>
-57.542

> <W(SA)>
2.116

> <Valence>
2.583

> <Coulomb>
44.791

> <VdW>
0.673

> <VdW6>
-5.788

> <VdW12>
6.462

> <Bond>
0.177

> <Angle>
0.787

> <Pdih>
1.619

> <Idih>
0.000

> <Tether>
0.000

$$$$
VeraChem MOL file


 23 22  0  0  0  0  0  0  0  0999 V2000     
   19.8387   15.5262   21.8647 N   0  3  0  0  0  0  0  0  0  0  0  0
   19.9765   15.3791   20.8596 H   0  0  0  0  0  0  0  0  0  0  0  0
   19.1684   14.8169   22.1803 H   0  0  0  0  0  0  0  0  0  0  0  0
   20.7309   15.3185   22.3248 H   0  0  0  0  0  0  0  0  0  0  0  0
   19.3584   16.9303   22.1701 C   0  0  0  0  0  0  0  0  0  0  0  0
   19.2044   17.0040   23.2497 H   0  0  0  0  0  0  0  0  0  0  0  0
   18.3944   17.0726   21.6742 H   0  0  0  0  0  0  0  0  0  0  0  0
   20.3447   18.0194   21.7073 C   0  0  0  0  0  0  0  0  0  0  0  0
   21.3128   17.8777   22.2060 H   0  0  0  0  0  0  0  0  0  0  0  0
   20.5261   17.9030   20.6305 H   0  0  0  0  0  0  0  0  0  0  0  0
   19.8263   19.4522   21.9756 C   0  0  0  0  0  0  0  0  0  0  0  0
   18.8625   19.5942   21.4674 H   0  0  0  0  0  0  0  0  0  0  0  0
   20.5273   20.1621   21.5178 H   0  0  0  0  0  0  0  0  0  0  0  0
   19.6745   19.7714   23.4848 C   0  0  0  0  0  0  0  0  0  0  0  0
   18.9924   19.0458   23.9470 H   0  0  0  0  0  0  0  0  0  0  0  0
   20.6433   19.6493   23.9886 H   0  0  0  0  0  0  0  0  0  0  0  0
   19.1247   21.1918   23.7616 C   0  0  0  0  0  0  0  0  0  0  0  0
   18.9379   21.2927   24.8400 H   0  0  0  0  0  0  0  0  0  0  0  0
   18.1504   21.3161   23.2686 H   0  0  0  0  0  0  0  0  0  0  0  0
   20.0813   22.3214   23.3161 C   0  0  0  0  0  0  0  0  0  0  0  0
   20.2016   22.3425   22.2260 H   0  0  0  0  0  0  0  0  0  0  0  0
   21.0734   22.2008   23.7701 H   0  0  0  0  0  0  0  0  0  0  0  0
   19.6890   23.2997   23.6227 H   0  0  0  0  0  0  0  0  0  0  0  0
  1  2  1  0  0  0  0
  1  3  1  0  0  0  0
  1  4  1  0  0  0  0
  1  5  1  0  0  0  0
  5  6  1  0  0  0  0
  5  7  1  0  0  0  0
  5  8  1  0  0  0  0
  8  9  1  0  0  0  0
  8 10  1  0  0  0  0
  8 11  1  0  0  0  0
 11 12  1  0  0  0  0
 11 13  1  0  0  0  0
 11 14  1  0  0  0  0
 14 15  1  0  0  0  0
 14 16  1  0  0  0  0
 14 17  1  0  0  0  0
 17 18  1  0  0  0  0
 17 19  1  0  0  0  0
 17 20  1  0  0  0  0
 20 21  1  0  0  0  0
 20 22  1  0  0  0  0
 20 23  1  0  0  0  0
M  END
> <VConfSearch Rank>
51

> <Conf_Id>
92

> <Delta U+W>
0.973

> <U+W>
-7.409

> <U>
48.047

> <W>
-55.456

> <W(PB)>
-57.595

> <W(SA)>
2.138

> <Valence>
2.583

> <Coulomb>
44.791

> <VdW>
0.674

> <VdW6>
-5.789

> <VdW12>
6.462

> <Bond>
0.177

> <Angle>
0.787

> <Pdih>
1.619

> <Idih>
0.000

> <Tether>
0.000

$$$$
VeraChem MOL file


 23 22  0  0  0  0  0  0  0  0999 V2000     
   18.5465   16.6954   25.0250 N   0  3  0  0  0  0  0  0  0  0  0  0
   19.0889   15.8662   25.2901 H   0  0  0  0  0  0  0  0  0  0  0  0
   17.5722   16.3936   24.9229 H   0  0  0  0  0  0  0  0  0  0  0  0
   18.5805   17.3405   25.8209 H   0  0  0  0  0  0  0  0  0  0  0  0
   19.0767   17.3333   23.7570 C   0  0  0  0  0  0  0  0  0  0  0  0
   19.0383   16.5848   22.9610 H   0  0  0  0  0  0  0  0  0  0  0  0
   20.1226   17.6004   23.9282 H   0  0  0  0  0  0  0  0  0  0  0  0
   18.2819   18.5826   23.3322 C   0  0  0  0  0  0  0  0  0  0  0  0
   17.2255   18.3102   23.2068 H   0  0  0  0  0  0  0  0  0  0  0  0
   18.3199   19.3341   24.1321 H   0  0  0  0  0  0  0  0  0  0  0  0
   18.8006   19.2013   22.0126 C   0  0  0  0  0  0  0  0  0  0  0  0
   18.1337   20.0256   21.7241 H   0  0  0  0  0  0  0  0  0  0  0  0
   18.7375   18.4550   21.2084 H   0  0  0  0  0  0  0  0  0  0  0  0
   20.2502   19.7332   22.1189 C   0  0  0  0  0  0  0  0  0  0  0  0
   20.3170   20.4545   22.9452 H   0  0  0  0  0  0  0  0  0  0  0  0
   20.9359   18.9097   22.3590 H   0  0  0  0  0  0  0  0  0  0  0  0
   20.7107   20.4094   20.8084 C   0  0  0  0  0  0  0  0  0  0  0  0
   20.0359   21.2414   20.5625 H   0  0  0  0  0  0  0  0  0  0  0  0
   20.6451   19.6923   19.9780 H   0  0  0  0  0  0  0  0  0  0  0  0
   22.1569   20.9383   20.9150 C   0  0  0  0  0  0  0  0  0  0  0  0
   22.2466   21.6834   21.7162 H   0  0  0  0  0  0  0  0  0  0  0  0
   22.4655   21.4150   19.9756 H   0  0  0  0  0  0  0  0  0  0  0  0
   22.8610   20.1229   21.1260 H   0  0  0  0  0  0  0  0  0  0  0  0
  1  2  1  0  0  0  0
  1  3  1  0  0  0  0
  1  4  1  0  0  0  0
  1  5  1  0  0  0  0
  5  6  1  0  0  0  0
  5  7  1  0  0  0  0
  5  8  1  0  0  0  0
  8  9  1  0  0  0  0
  8 10  1  0  0  0  0
  8 11  1  0  0  0  0
 11 12  1  0  0  0  0
 11 13  1  0  0  0  0
 11 14  1  0  0  0  0
 14 15  1  0  0  0  0
 14 16  1  0  0  0  0
 14 17  1  0  0  0  0
 17 18  1  0  0  0  0
 17 19  1  0  0  0  0
 17 20  1  0  0  0  0
 20 21  1  0  0  0  0
 20 22  1  0  0  0  0
 20 23  1  0  0  0  0
M  END
> <VConfSearch Rank>
52

> <Conf_Id>
42

> <Delta U+W>
0.365

> <U+W>
-8.017

> <U>
47.375

> <W>
-55.392

> <W(PB)>
-57.543

> <W(SA)>
2.152

> <Valence>
2.032

> <Coulomb>
44.843

> <VdW>
0.499

> <VdW6>
-5.218

> <VdW12>
5.717

> <Bond>
0.135

> <Angle>
0.514

> <Pdih>
1.383

> <Idih>
0.000

> <Tether>
0.000

$$$$
VeraChem MOL file


 23 22  0  0  0  0  0  0  0  0999 V2000     
   19.0302   19.7601   19.6257 N   0  3  0  0  0  0  0  0  0  0  0  0
   19.8974   19.3628   19.2505 H   0  0  0  0  0  0  0  0  0  0  0  0
   18.6430   20.3717   18.8991 H   0  0  0  0  0  0  0  0  0  0  0  0
   18.3704   18.9860   19.7477 H   0  0  0  0  0  0  0  0  0  0  0  0
   19.2678   20.5084   20.9230 C   0  0  0  0  0  0  0  0  0  0  0  0
   18.3132   20.9252   21.2553 H   0  0  0  0  0  0  0  0  0  0  0  0
   19.9445   21.3393   20.7055 H   0  0  0  0  0  0  0  0  0  0  0  0
   19.8725   19.6390   22.0428 C   0  0  0  0  0  0  0  0  0  0  0  0
   20.8174   19.1994   21.6969 H   0  0  0  0  0  0  0  0  0  0  0  0
   20.1153   20.2986   22.8849 H   0  0  0  0  0  0  0  0  0  0  0  0
   18.9095   18.5257   22.5222 C   0  0  0  0  0  0  0  0  0  0  0  0
   18.5839   17.9282   21.6606 H   0  0  0  0  0  0  0  0  0  0  0  0
   18.0010   18.9842   22.9367 H   0  0  0  0  0  0  0  0  0  0  0  0
   19.5210   17.5583   23.5688 C   0  0  0  0  0  0  0  0  0  0  0  0
   18.7637   16.7948   23.7944 H   0  0  0  0  0  0  0  0  0  0  0  0
   20.3677   17.0130   23.1295 H   0  0  0  0  0  0  0  0  0  0  0  0
   19.9460   18.2240   24.9032 C   0  0  0  0  0  0  0  0  0  0  0  0
   19.7424   17.5228   25.7246 H   0  0  0  0  0  0  0  0  0  0  0  0
   19.3272   19.1099   25.1028 H   0  0  0  0  0  0  0  0  0  0  0  0
   21.4471   18.5933   24.9540 C   0  0  0  0  0  0  0  0  0  0  0  0
   22.0742   17.7007   24.8308 H   0  0  0  0  0  0  0  0  0  0  0  0
   21.6987   19.0452   25.9222 H   0  0  0  0  0  0  0  0  0  0  0  0
   21.7232   19.3091   24.1719 H   0  0  0  0  0  0  0  0  0  0  0  0
  1  2  1  0  0  0  0
  1  3  1  0  0  0  0
  1  4  1  0  0  0  0
  1  5  1  0  0  0  0
  5  6  1  0  0  0  0
  5  7  1  0  0  0  0
  5  8  1  0  0  0  0
  8  9  1  0  0  0  0
  8 10  1  0  0  0  0
  8 11  1  0  0  0  0
 11 12  1  0  0  0  0
 11 13  1  0  0  0  0
 11 14  1  0  0  0  0
 14 15  1  0  0  0  0
 14 16  1  0  0  0  0
 14 17  1  0  0  0  0
 17 18  1  0  0  0  0
 17 19  1  0  0  0  0
 17 20  1  0  0  0  0
 20 21  1  0  0  0  0
 20 22  1  0  0  0  0
 20 23  1  0  0  0  0
M  END
> <VConfSearch Rank>
53

> <Conf_Id>
3

> <Delta U+W>
3.283

> <U+W>
-5.099

> <U>
50.701

> <W>
-55.800

> <W(PB)>
-57.867

> <W(SA)>
2.067

> <Valence>
4.880

> <Coulomb>
45.095

> <VdW>
0.726

> <VdW6>
-6.620

> <VdW12>
7.346

> <Bond>
0.222

> <Angle>
1.260

> <Pdih>
3.398

> <Idih>
0.000

> <Tether>
0.000

$$$$
VeraChem MOL file


 23 22  0  0  0  0  0  0  0  0999 V2000     
   19.3534   16.4071   21.4870 N   0  3  0  0  0  0  0  0  0  0  0  0
   19.4803   16.3565   20.4712 H   0  0  0  0  0  0  0  0  0  0  0  0
   19.1419   15.4568   21.8098 H   0  0  0  0  0  0  0  0  0  0  0  0
   20.2569   16.6687   21.8929 H   0  0  0  0  0  0  0  0  0  0  0  0
   18.2628   17.3880   21.8701 C   0  0  0  0  0  0  0  0  0  0  0  0
   18.1580   17.3709   22.9578 H   0  0  0  0  0  0  0  0  0  0  0  0
   17.3259   17.0305   21.4344 H   0  0  0  0  0  0  0  0  0  0  0  0
   18.5305   18.8302   21.3930 C   0  0  0  0  0  0  0  0  0  0  0  0
   18.5821   18.8404   20.2961 H   0  0  0  0  0  0  0  0  0  0  0  0
   17.6700   19.4564   21.6640 H   0  0  0  0  0  0  0  0  0  0  0  0
   19.8227   19.4609   21.9710 C   0  0  0  0  0  0  0  0  0  0  0  0
   19.9354   20.4627   21.5368 H   0  0  0  0  0  0  0  0  0  0  0  0
   20.6987   18.8855   21.6433 H   0  0  0  0  0  0  0  0  0  0  0  0
   19.8118   19.5648   23.5175 C   0  0  0  0  0  0  0  0  0  0  0  0
   18.9501   20.1641   23.8422 H   0  0  0  0  0  0  0  0  0  0  0  0
   19.6748   18.5661   23.9524 H   0  0  0  0  0  0  0  0  0  0  0  0
   21.1109   20.1694   24.1034 C   0  0  0  0  0  0  0  0  0  0  0  0
   21.9756   19.5675   23.7907 H   0  0  0  0  0  0  0  0  0  0  0  0
   21.0683   20.0990   25.1993 H   0  0  0  0  0  0  0  0  0  0  0  0
   21.3360   21.6471   23.7097 C   0  0  0  0  0  0  0  0  0  0  0  0
   20.4702   22.2647   23.9820 H   0  0  0  0  0  0  0  0  0  0  0  0
   21.5116   21.7561   22.6324 H   0  0  0  0  0  0  0  0  0  0  0  0
   22.2139   22.0531   24.2288 H   0  0  0  0  0  0  0  0  0  0  0  0
  1  2  1  0  0  0  0
  1  3  1  0  0  0  0
  1  4  1  0  0  0  0
  1  5  1  0  0  0  0
  5  6  1  0  0  0  0
  5  7  1  0  0  0  0
  5  8  1  0  0  0  0
  8  9  1  0  0  0  0
  8 10  1  0  0  0  0
  8 11  1  0  0  0  0
 11 12  1  0  0  0  0
 11 13  1  0  0  0  0
 11 14  1  0  0  0  0
 14 15  1  0  0  0  0
 14 16  1  0  0  0  0
 14 17  1  0  0  0  0
 17 18  1  0  0  0  0
 17 19  1  0  0  0  0
 17 20  1  0  0  0  0
 20 21  1  0  0  0  0
 20 22  1  0  0  0  0
 20 23  1  0  0  0  0
M  END
> <VConfSearch Rank>
54

> <Conf_Id>
83

> <Delta U+W>
1.229

> <U+W>
-7.154

> <U>
48.727

> <W>
-55.880

> <W(PB)>
-57.960

> <W(SA)>
2.080

> <Valence>
2.671

> <Coulomb>
45.371

> <VdW>
0.684

> <VdW6>
-6.511

> <VdW12>
7.195

> <Bond>
0.203

> <Angle>
0.915

> <Pdih>
1.554

> <Idih>
0.000

> <Tether>
0.000

$$$$
VeraChem MOL file


 23 22  0  0  0  0  0  0  0  0999 V2000     
   18.3446   19.7501   25.0391 N   0  3  0  0  0  0  0  0  0  0  0  0
   17.8887   20.6673   25.0002 H   0  0  0  0  0  0  0  0  0  0  0  0
   19.3509   19.9066   24.9275 H   0  0  0  0  0  0  0  0  0  0  0  0
   18.1999   19.3839   25.9861 H   0  0  0  0  0  0  0  0  0  0  0  0
   17.8044   18.8075   23.9817 C   0  0  0  0  0  0  0  0  0  0  0  0
   16.7396   18.6593   24.1811 H   0  0  0  0  0  0  0  0  0  0  0  0
   18.3072   17.8441   24.0974 H   0  0  0  0  0  0  0  0  0  0  0  0
   17.9871   19.3232   22.5395 C   0  0  0  0  0  0  0  0  0  0  0  0
   17.5213   18.6084   21.8482 H   0  0  0  0  0  0  0  0  0  0  0  0
   17.4342   20.2648   22.4236 H   0  0  0  0  0  0  0  0  0  0  0  0
   19.4643   19.5440   22.1264 C   0  0  0  0  0  0  0  0  0  0  0  0
   19.9199   20.3136   22.7636 H   0  0  0  0  0  0  0  0  0  0  0  0
   19.4750   19.9472   21.1055 H   0  0  0  0  0  0  0  0  0  0  0  0
   20.3132   18.2483   22.1805 C   0  0  0  0  0  0  0  0  0  0  0  0
   20.2833   17.8310   23.1955 H   0  0  0  0  0  0  0  0  0  0  0  0
   19.8715   17.4886   21.5210 H   0  0  0  0  0  0  0  0  0  0  0  0
   21.7964   18.4669   21.7948 C   0  0  0  0  0  0  0  0  0  0  0  0
   22.3470   17.5324   21.9714 H   0  0  0  0  0  0  0  0  0  0  0  0
   22.2466   19.2184   22.4584 H   0  0  0  0  0  0  0  0  0  0  0  0
   21.9949   18.8886   20.3210 C   0  0  0  0  0  0  0  0  0  0  0  0
   21.5244   18.1698   19.6376 H   0  0  0  0  0  0  0  0  0  0  0  0
   23.0639   18.9341   20.0756 H   0  0  0  0  0  0  0  0  0  0  0  0
   21.5700   19.8804   20.1236 H   0  0  0  0  0  0  0  0  0  0  0  0
  1  2  1  0  0  0  0
  1  3  1  0  0  0  0
  1  4  1  0  0  0  0
  1  5  1  0  0  0  0
  5  6  1  0  0  0  0
  5  7  1  0  0  0  0
  5  8  1  0  0  0  0
  8  9  1  0  0  0  0
  8 10  1  0  0  0  0
  8 11  1  0  0  0  0
 11 12  1  0  0  0  0
 11 13  1  0  0  0  0
 11 14  1  0  0  0  0
 14 15  1  0  0  0  0
 14 16  1  0  0  0  0
 14 17  1  0  0  0  0
 17 18  1  0  0  0  0
 17 19  1  0  0  0  0
 17 20  1  0  0  0  0
 20 21  1  0  0  0  0
 20 22  1  0  0  0  0
 20 23  1  0  0  0  0
M  END
> <VConfSearch Rank>
55

> <Conf_Id>
50

> <Delta U+W>
1.252

> <U+W>
-7.130

> <U>
48.727

> <W>
-55.857

> <W(PB)>
-57.937

> <W(SA)>
2.080

> <Valence>
2.671

> <Coulomb>
45.371

> <VdW>
0.684

> <VdW6>
-6.511

> <VdW12>
7.196

> <Bond>
0.203

> <Angle>
0.915

> <Pdih>
1.554

> <Idih>
0.000

> <Tether>
0.000

$$$$
VeraChem MOL file


 23 22  0  0  0  0  0  0  0  0999 V2000     
   19.3810   19.6092   19.5281 N   0  3  0  0  0  0  0  0  0  0  0  0
   19.3861   18.5856   19.5709 H   0  0  0  0  0  0  0  0  0  0  0  0
   19.8183   19.8740   18.6390 H   0  0  0  0  0  0  0  0  0  0  0  0
   18.4011   19.9057   19.4791 H   0  0  0  0  0  0  0  0  0  0  0  0
   20.0980   20.2256   20.7136 C   0  0  0  0  0  0  0  0  0  0  0  0
   20.0881   21.3107   20.5790 H   0  0  0  0  0  0  0  0  0  0  0  0
   21.1382   19.8896   20.6932 H   0  0  0  0  0  0  0  0  0  0  0  0
   19.4664   19.8742   22.0746 C   0  0  0  0  0  0  0  0  0  0  0  0
   19.9828   20.4499   22.8508 H   0  0  0  0  0  0  0  0  0  0  0  0
   18.4207   20.2089   22.0881 H   0  0  0  0  0  0  0  0  0  0  0  0
   19.5383   18.3589   22.3928 C   0  0  0  0  0  0  0  0  0  0  0  0
   20.5697   17.9946   22.2885 H   0  0  0  0  0  0  0  0  0  0  0  0
   18.9465   17.8167   21.6433 H   0  0  0  0  0  0  0  0  0  0  0  0
   18.9870   17.9983   23.7971 C   0  0  0  0  0  0  0  0  0  0  0  0
   18.2090   18.7138   24.0971 H   0  0  0  0  0  0  0  0  0  0  0  0
   18.4818   17.0250   23.7270 H   0  0  0  0  0  0  0  0  0  0  0  0
   20.0636   17.8848   24.9067 C   0  0  0  0  0  0  0  0  0  0  0  0
   20.7808   17.0945   24.6445 H   0  0  0  0  0  0  0  0  0  0  0  0
   19.5748   17.5557   25.8343 H   0  0  0  0  0  0  0  0  0  0  0  0
   20.8281   19.1967   25.1889 C   0  0  0  0  0  0  0  0  0  0  0  0
   20.1353   20.0221   25.3974 H   0  0  0  0  0  0  0  0  0  0  0  0
   21.4635   19.4784   24.3403 H   0  0  0  0  0  0  0  0  0  0  0  0
   21.4822   19.0788   26.0625 H   0  0  0  0  0  0  0  0  0  0  0  0
  1  2  1  0  0  0  0
  1  3  1  0  0  0  0
  1  4  1  0  0  0  0
  1  5  1  0  0  0  0
  5  6  1  0  0  0  0
  5  7  1  0  0  0  0
  5  8  1  0  0  0  0
  8  9  1  0  0  0  0
  8 10  1  0  0  0  0
  8 11  1  0  0  0  0
 11 12  1  0  0  0  0
 11 13  1  0  0  0  0
 11 14  1  0  0  0  0
 14 15  1  0  0  0  0
 14 16  1  0  0  0  0
 14 17  1  0  0  0  0
 17 18  1  0  0  0  0
 17 19  1  0  0  0  0
 17 20  1  0  0  0  0
 20 21  1  0  0  0  0
 20 22  1  0  0  0  0
 20 23  1  0  0  0  0
M  END
> <VConfSearch Rank>
56

> <Conf_Id>
55

> <Delta U+W>
3.232

> <U+W>
-5.150

> <U>
50.625

> <W>
-55.776

> <W(PB)>
-57.839

> <W(SA)>
2.064

> <Valence>
4.837

> <Coulomb>
45.097

> <VdW>
0.692

> <VdW6>
-6.655

> <VdW12>
7.347

> <Bond>
0.223

> <Angle>
1.167

> <Pdih>
3.447

> <Idih>
0.000

> <Tether>
0.000

$$$$
VeraChem MOL file


 23 22  0  0  0  0  0  0  0  0999 V2000     
   19.3991   20.1733   25.4849 N   0  3  0  0  0  0  0  0  0  0  0  0
   19.0159   21.1105   25.6451 H   0  0  0  0  0  0  0  0  0  0  0  0
   20.0832   20.0002   26.2292 H   0  0  0  0  0  0  0  0  0  0  0  0
   18.6327   19.5067   25.6234 H   0  0  0  0  0  0  0  0  0  0  0  0
   20.0193   20.0443   24.1085 C   0  0  0  0  0  0  0  0  0  0  0  0
   20.4359   19.0390   24.0236 H   0  0  0  0  0  0  0  0  0  0  0  0
   20.8425   20.7608   24.0425 H   0  0  0  0  0  0  0  0  0  0  0  0
   19.0156   20.3061   22.9685 C   0  0  0  0  0  0  0  0  0  0  0  0
   18.1591   19.6236   23.0490 H   0  0  0  0  0  0  0  0  0  0  0  0
   18.6159   21.3213   23.0935 H   0  0  0  0  0  0  0  0  0  0  0  0
   19.6529   20.1976   21.5601 C   0  0  0  0  0  0  0  0  0  0  0  0
   20.6732   20.6055   21.5762 H   0  0  0  0  0  0  0  0  0  0  0  0
   19.0852   20.8452   20.8776 H   0  0  0  0  0  0  0  0  0  0  0  0
   19.6588   18.7706   20.9527 C   0  0  0  0  0  0  0  0  0  0  0  0
   18.6250   18.4145   20.8446 H   0  0  0  0  0  0  0  0  0  0  0  0
   20.0664   18.8347   19.9342 H   0  0  0  0  0  0  0  0  0  0  0  0
   20.4772   17.7325   21.7547 C   0  0  0  0  0  0  0  0  0  0  0  0
   19.9921   17.5391   22.7201 H   0  0  0  0  0  0  0  0  0  0  0  0
   21.4797   18.1297   21.9667 H   0  0  0  0  0  0  0  0  0  0  0  0
   20.6066   16.3971   20.9914 C   0  0  0  0  0  0  0  0  0  0  0  0
   21.1234   16.5377   20.0331 H   0  0  0  0  0  0  0  0  0  0  0  0
   19.6195   15.9622   20.7871 H   0  0  0  0  0  0  0  0  0  0  0  0
   21.1804   15.6688   21.5791 H   0  0  0  0  0  0  0  0  0  0  0  0
  1  2  1  0  0  0  0
  1  3  1  0  0  0  0
  1  4  1  0  0  0  0
  1  5  1  0  0  0  0
  5  6  1  0  0  0  0
  5  7  1  0  0  0  0
  5  8  1  0  0  0  0
  8  9  1  0  0  0  0
  8 10  1  0  0  0  0
  8 11  1  0  0  0  0
 11 12  1  0  0  0  0
 11 13  1  0  0  0  0
 11 14  1  0  0  0  0
 14 15  1  0  0  0  0
 14 16  1  0  0  0  0
 14 17  1  0  0  0  0
 17 18  1  0  0  0  0
 17 19  1  0  0  0  0
 17 20  1  0  0  0  0
 20 21  1  0  0  0  0
 20 22  1  0  0  0  0
 20 23  1  0  0  0  0
M  END
> <VConfSearch Rank>
57

> <Conf_Id>
93

> <Delta U+W>
2.589

> <U+W>
-5.793

> <U>
50.122

> <W>
-55.915

> <W(PB)>
-58.031

> <W(SA)>
2.115

> <Valence>
4.132

> <Coulomb>
45.536

> <VdW>
0.454

> <VdW6>
-6.262

> <VdW12>
6.715

> <Bond>
0.182

> <Angle>
1.157

> <Pdih>
2.794

> <Idih>
0.000

> <Tether>
0.000

$$$$
VeraChem MOL file


 23 22  0  0  0  0  0  0  0  0999 V2000     
   22.2652   17.6220   21.3737 N   0  3  0  0  0  0  0  0  0  0  0  0
   21.8567   17.7144   20.4381 H   0  0  0  0  0  0  0  0  0  0  0  0
   22.4528   16.6243   21.5201 H   0  0  0  0  0  0  0  0  0  0  0  0
   23.1741   18.0957   21.3538 H   0  0  0  0  0  0  0  0  0  0  0  0
   21.3566   18.1877   22.4461 C   0  0  0  0  0  0  0  0  0  0  0  0
   21.8402   18.0295   23.4139 H   0  0  0  0  0  0  0  0  0  0  0  0
   20.4278   17.6145   22.4325 H   0  0  0  0  0  0  0  0  0  0  0  0
   21.0624   19.6887   22.2562 C   0  0  0  0  0  0  0  0  0  0  0  0
   22.0193   20.2273   22.2691 H   0  0  0  0  0  0  0  0  0  0  0  0
   20.6184   19.8692   21.2682 H   0  0  0  0  0  0  0  0  0  0  0  0
   20.1521   20.2751   23.3648 C   0  0  0  0  0  0  0  0  0  0  0  0
   20.3839   21.3444   23.4668 H   0  0  0  0  0  0  0  0  0  0  0  0
   20.4019   19.8235   24.3350 H   0  0  0  0  0  0  0  0  0  0  0  0
   18.6298   20.1511   23.0951 C   0  0  0  0  0  0  0  0  0  0  0  0
   18.0962   20.6616   23.9088 H   0  0  0  0  0  0  0  0  0  0  0  0
   18.3754   20.6963   22.1757 H   0  0  0  0  0  0  0  0  0  0  0  0
   18.1104   18.6986   22.9901 C   0  0  0  0  0  0  0  0  0  0  0  0
   18.4583   18.1138   23.8530 H   0  0  0  0  0  0  0  0  0  0  0  0
   18.5149   18.2212   22.0882 H   0  0  0  0  0  0  0  0  0  0  0  0
   16.5690   18.6485   22.9257 C   0  0  0  0  0  0  0  0  0  0  0  0
   16.2182   17.6119   22.8404 H   0  0  0  0  0  0  0  0  0  0  0  0
   16.1922   19.2043   22.0571 H   0  0  0  0  0  0  0  0  0  0  0  0
   16.1211   19.0818   23.8295 H   0  0  0  0  0  0  0  0  0  0  0  0
  1  2  1  0  0  0  0
  1  3  1  0  0  0  0
  1  4  1  0  0  0  0
  1  5  1  0  0  0  0
  5  6  1  0  0  0  0
  5  7  1  0  0  0  0
  5  8  1  0  0  0  0
  8  9  1  0  0  0  0
  8 10  1  0  0  0  0
  8 11  1  0  0  0  0
 11 12  1  0  0  0  0
 11 13  1  0  0  0  0
 11 14  1  0  0  0  0
 14 15  1  0  0  0  0
 14 16  1  0  0  0  0
 14 17  1  0  0  0  0
 17 18  1  0  0  0  0
 17 19  1  0  0  0  0
 17 20  1  0  0  0  0
 20 21  1  0  0  0  0
 20 22  1  0  0  0  0
 20 23  1  0  0  0  0
M  END
> <VConfSearch Rank>
58

> <Conf_Id>
70

> <Delta U+W>
2.599

> <U+W>
-5.783

> <U>
50.122

> <W>
-55.906

> <W(PB)>
-58.010

> <W(SA)>
2.105

> <Valence>
4.132

> <Coulomb>
45.536

> <VdW>
0.454

> <VdW6>
-6.262

> <VdW12>
6.715

> <Bond>
0.182

> <Angle>
1.157

> <Pdih>
2.794

> <Idih>
0.000

> <Tether>
0.000

$$$$
VeraChem MOL file


 23 22  0  0  0  0  0  0  0  0999 V2000     
   17.0548   18.4966   23.0736 N   0  3  0  0  0  0  0  0  0  0  0  0
   16.3627   19.2245   23.2775 H   0  0  0  0  0  0  0  0  0  0  0  0
   16.6124   17.5956   23.2841 H   0  0  0  0  0  0  0  0  0  0  0  0
   17.2289   18.5184   22.0643 H   0  0  0  0  0  0  0  0  0  0  0  0
   18.3317   18.6964   23.8660 C   0  0  0  0  0  0  0  0  0  0  0  0
   19.0107   17.8730   23.6294 H   0  0  0  0  0  0  0  0  0  0  0  0
   18.0782   18.6331   24.9277 H   0  0  0  0  0  0  0  0  0  0  0  0
   19.0289   20.0428   23.5850 C   0  0  0  0  0  0  0  0  0  0  0  0
   18.3510   20.8620   23.8587 H   0  0  0  0  0  0  0  0  0  0  0  0
   19.8964   20.1381   24.2505 H   0  0  0  0  0  0  0  0  0  0  0  0
   19.4788   20.2242   22.1113 C   0  0  0  0  0  0  0  0  0  0  0  0
   19.9979   21.1878   22.0159 H   0  0  0  0  0  0  0  0  0  0  0  0
   18.5914   20.3007   21.4688 H   0  0  0  0  0  0  0  0  0  0  0  0
   20.3962   19.0994   21.5655 C   0  0  0  0  0  0  0  0  0  0  0  0
   19.8591   18.1415   21.5653 H   0  0  0  0  0  0  0  0  0  0  0  0
   20.6237   19.3185   20.5130 H   0  0  0  0  0  0  0  0  0  0  0  0
   21.7238   18.9516   22.3456 C   0  0  0  0  0  0  0  0  0  0  0  0
   21.5219   18.6623   23.3855 H   0  0  0  0  0  0  0  0  0  0  0  0
   22.2441   19.9190   22.3789 H   0  0  0  0  0  0  0  0  0  0  0  0
   22.6474   17.8954   21.7024 C   0  0  0  0  0  0  0  0  0  0  0  0
   23.5827   17.8015   22.2693 H   0  0  0  0  0  0  0  0  0  0  0  0
   22.9050   18.1709   20.6714 H   0  0  0  0  0  0  0  0  0  0  0  0
   22.1651   16.9093   21.6824 H   0  0  0  0  0  0  0  0  0  0  0  0
  1  2  1  0  0  0  0
  1  3  1  0  0  0  0
  1  4  1  0  0  0  0
  1  5  1  0  0  0  0
  5  6  1  0  0  0  0
  5  7  1  0  0  0  0
  5  8  1  0  0  0  0
  8  9  1  0  0  0  0
  8 10  1  0  0  0  0
  8 11  1  0  0  0  0
 11 12  1  0  0  0  0
 11 13  1  0  0  0  0
 11 14  1  0  0  0  0
 14 15  1  0  0  0  0
 14 16  1  0  0  0  0
 14 17  1  0  0  0  0
 17 18  1  0  0  0  0
 17 19  1  0  0  0  0
 17 20  1  0  0  0  0
 20 21  1  0  0  0  0
 20 22  1  0  0  0  0
 20 23  1  0  0  0  0
M  END
> <VConfSearch Rank>
59

> <Conf_Id>
72

> <Delta U+W>
1.051

> <U+W>
-7.331

> <U>
48.590

> <W>
-55.922

> <W(PB)>
-58.012

> <W(SA)>
2.090

> <Valence>
2.601

> <Coulomb>
45.520

> <VdW>
0.469

> <VdW6>
-6.867

> <VdW12>
7.336

> <Bond>
0.205

> <Angle>
0.962

> <Pdih>
1.434

> <Idih>
0.000

> <Tether>
0.000

$$$$
VeraChem MOL file


 23 22  0  0  0  0  0  0  0  0999 V2000     
   18.9099   17.2132   25.0710 N   0  3  0  0  0  0  0  0  0  0  0  0
   18.7448   17.4826   26.0467 H   0  0  0  0  0  0  0  0  0  0  0  0
   19.3062   16.2679   25.0863 H   0  0  0  0  0  0  0  0  0  0  0  0
   17.9917   17.1480   24.6202 H   0  0  0  0  0  0  0  0  0  0  0  0
   19.8198   18.1956   24.3621 C   0  0  0  0  0  0  0  0  0  0  0  0
   20.7653   18.2363   24.9096 H   0  0  0  0  0  0  0  0  0  0  0  0
   19.3515   19.1822   24.4102 H   0  0  0  0  0  0  0  0  0  0  0  0
   20.0878   17.8191   22.8930 C   0  0  0  0  0  0  0  0  0  0  0  0
   20.5234   16.8119   22.8540 H   0  0  0  0  0  0  0  0  0  0  0  0
   19.1382   17.7653   22.3455 H   0  0  0  0  0  0  0  0  0  0  0  0
   21.0501   18.8075   22.1887 C   0  0  0  0  0  0  0  0  0  0  0  0
   21.2169   18.4721   21.1564 H   0  0  0  0  0  0  0  0  0  0  0  0
   22.0322   18.7563   22.6787 H   0  0  0  0  0  0  0  0  0  0  0  0
   20.5763   20.2862   22.1837 C   0  0  0  0  0  0  0  0  0  0  0  0
   20.5694   20.6706   23.2125 H   0  0  0  0  0  0  0  0  0  0  0  0
   21.3211   20.8910   21.6483 H   0  0  0  0  0  0  0  0  0  0  0  0
   19.1840   20.5303   21.5480 C   0  0  0  0  0  0  0  0  0  0  0  0
   18.9527   21.6027   21.6130 H   0  0  0  0  0  0  0  0  0  0  0  0
   18.4057   20.0193   22.1303 H   0  0  0  0  0  0  0  0  0  0  0  0
   19.1007   20.0926   20.0681 C   0  0  0  0  0  0  0  0  0  0  0  0
   19.8787   20.5819   19.4678 H   0  0  0  0  0  0  0  0  0  0  0  0
   18.1266   20.3638   19.6410 H   0  0  0  0  0  0  0  0  0  0  0  0
   19.2171   19.0069   19.9625 H   0  0  0  0  0  0  0  0  0  0  0  0
  1  2  1  0  0  0  0
  1  3  1  0  0  0  0
  1  4  1  0  0  0  0
  1  5  1  0  0  0  0
  5  6  1  0  0  0  0
  5  7  1  0  0  0  0
  5  8  1  0  0  0  0
  8  9  1  0  0  0  0
  8 10  1  0  0  0  0
  8 11  1  0  0  0  0
 11 12  1  0  0  0  0
 11 13  1  0  0  0  0
 11 14  1  0  0  0  0
 14 15  1  0  0  0  0
 14 16  1  0  0  0  0
 14 17  1  0  0  0  0
 17 18  1  0  0  0  0
 17 19  1  0  0  0  0
 17 20  1  0  0  0  0
 20 21  1  0  0  0  0
 20 22  1  0  0  0  0
 20 23  1  0  0  0  0
M  END
> <VConfSearch Rank>
60

> <Conf_Id>
26

> <Delta U+W>
1.076

> <U+W>
-7.306

> <U>
48.641

> <W>
-55.947

> <W(PB)>
-58.031

> <W(SA)>
2.084

> <Valence>
2.922

> <Coulomb>
45.269

> <VdW>
0.449

> <VdW6>
-7.045

> <VdW12>
7.494

> <Bond>
0.220

> <Angle>
1.205

> <Pdih>
1.497

> <Idih>
0.000

> <Tether>
0.000

$$$$
VeraChem MOL file


 23 22  0  0  0  0  0  0  0  0999 V2000     
   21.4641   17.6413   24.9126 N   0  3  0  0  0  0  0  0  0  0  0  0
   21.9365   18.2918   25.5486 H   0  0  0  0  0  0  0  0  0  0  0  0
   22.0159   16.7768   24.9071 H   0  0  0  0  0  0  0  0  0  0  0  0
   20.5574   17.4136   25.3330 H   0  0  0  0  0  0  0  0  0  0  0  0
   21.3128   18.2213   23.5211 C   0  0  0  0  0  0  0  0  0  0  0  0
   20.8317   17.4669   22.8932 H   0  0  0  0  0  0  0  0  0  0  0  0
   22.3133   18.4127   23.1240 H   0  0  0  0  0  0  0  0  0  0  0  0
   20.4879   19.5216   23.4950 C   0  0  0  0  0  0  0  0  0  0  0  0
   19.4876   19.3337   23.9055 H   0  0  0  0  0  0  0  0  0  0  0  0
   20.9593   20.2595   24.1576 H   0  0  0  0  0  0  0  0  0  0  0  0
   20.3722   20.1275   22.0742 C   0  0  0  0  0  0  0  0  0  0  0  0
   21.3741   20.4200   21.7308 H   0  0  0  0  0  0  0  0  0  0  0  0
   19.7942   21.0597   22.1275 H   0  0  0  0  0  0  0  0  0  0  0  0
   19.7410   19.1854   21.0136 C   0  0  0  0  0  0  0  0  0  0  0  0
   19.6936   19.7194   20.0546 H   0  0  0  0  0  0  0  0  0  0  0  0
   20.4084   18.3303   20.8419 H   0  0  0  0  0  0  0  0  0  0  0  0
   18.3265   18.6555   21.3608 C   0  0  0  0  0  0  0  0  0  0  0  0
   18.3662   18.0285   22.2615 H   0  0  0  0  0  0  0  0  0  0  0  0
   17.9912   17.9948   20.5492 H   0  0  0  0  0  0  0  0  0  0  0  0
   17.2814   19.7779   21.5519 C   0  0  0  0  0  0  0  0  0  0  0  0
   17.5159   20.4019   22.4232 H   0  0  0  0  0  0  0  0  0  0  0  0
   16.2827   19.3508   21.7103 H   0  0  0  0  0  0  0  0  0  0  0  0
   17.2329   20.4264   20.6676 H   0  0  0  0  0  0  0  0  0  0  0  0
  1  2  1  0  0  0  0
  1  3  1  0  0  0  0
  1  4  1  0  0  0  0
  1  5  1  0  0  0  0
  5  6  1  0  0  0  0
  5  7  1  0  0  0  0
  5  8  1  0  0  0  0
  8  9  1  0  0  0  0
  8 10  1  0  0  0  0
  8 11  1  0  0  0  0
 11 12  1  0  0  0  0
 11 13  1  0  0  0  0
 11 14  1  0  0  0  0
 14 15  1  0  0  0  0
 14 16  1  0  0  0  0
 14 17  1  0  0  0  0
 17 18  1  0  0  0  0
 17 19  1  0  0  0  0
 17 20  1  0  0  0  0
 20 21  1  0  0  0  0
 20 22  1  0  0  0  0
 20 23  1  0  0  0  0
M  END
> <VConfSearch Rank>
61

> <Conf_Id>
90

> <Delta U+W>
1.131

> <U+W>
-7.251

> <U>
48.641

> <W>
-55.892

> <W(PB)>
-57.962

> <W(SA)>
2.070

> <Valence>
2.922

> <Coulomb>
45.269

> <VdW>
0.450

> <VdW6>
-7.045

> <VdW12>
7.495

> <Bond>
0.220

> <Angle>
1.205

> <Pdih>
1.497

> <Idih>
0.000

> <Tether>
0.000

$$$$
VeraChem MOL file


 23 22  0  0  0  0  0  0  0  0999 V2000     
   19.7173   21.1126   21.0771 N   0  3  0  0  0  0  0  0  0  0  0  0
   19.9865   22.0975   21.1738 H   0  0  0  0  0  0  0  0  0  0  0  0
   19.1000   20.8904   21.8640 H   0  0  0  0  0  0  0  0  0  0  0  0
   19.1577   21.0380   20.2216 H   0  0  0  0  0  0  0  0  0  0  0  0
   20.9265   20.1990   21.0401 C   0  0  0  0  0  0  0  0  0  0  0  0
   21.4933   20.3494   21.9626 H   0  0  0  0  0  0  0  0  0  0  0  0
   21.5547   20.5119   20.2017 H   0  0  0  0  0  0  0  0  0  0  0  0
   20.5710   18.7063   20.8840 C   0  0  0  0  0  0  0  0  0  0  0  0
   20.0437   18.5598   19.9320 H   0  0  0  0  0  0  0  0  0  0  0  0
   21.5019   18.1286   20.8098 H   0  0  0  0  0  0  0  0  0  0  0  0
   19.7087   18.1400   22.0400 C   0  0  0  0  0  0  0  0  0  0  0  0
   19.4962   17.0823   21.8324 H   0  0  0  0  0  0  0  0  0  0  0  0
   18.7371   18.6498   22.0556 H   0  0  0  0  0  0  0  0  0  0  0  0
   20.3963   18.2578   23.4237 C   0  0  0  0  0  0  0  0  0  0  0  0
   21.4010   17.8170   23.3632 H   0  0  0  0  0  0  0  0  0  0  0  0
   20.5373   19.3142   23.6884 H   0  0  0  0  0  0  0  0  0  0  0  0
   19.6168   17.5505   24.5584 C   0  0  0  0  0  0  0  0  0  0  0  0
   20.2192   17.5879   25.4768 H   0  0  0  0  0  0  0  0  0  0  0  0
   19.4918   16.4857   24.3165 H   0  0  0  0  0  0  0  0  0  0  0  0
   18.2362   18.1850   24.8420 C   0  0  0  0  0  0  0  0  0  0  0  0
   18.3312   19.2564   25.0610 H   0  0  0  0  0  0  0  0  0  0  0  0
   17.7647   17.7061   25.7100 H   0  0  0  0  0  0  0  0  0  0  0  0
   17.5550   18.0663   23.9904 H   0  0  0  0  0  0  0  0  0  0  0  0
  1  2  1  0  0  0  0
  1  3  1  0  0  0  0
  1  4  1  0  0  0  0
  1  5  1  0  0  0  0
  5  6  1  0  0  0  0
  5  7  1  0  0  0  0
  5  8  1  0  0  0  0
  8  9  1  0  0  0  0
  8 10  1  0  0  0  0
  8 11  1  0  0  0  0
 11 12  1  0  0  0  0
 11 13  1  0  0  0  0
 11 14  1  0  0  0  0
 14 15  1  0  0  0  0
 14 16  1  0  0  0  0
 14 17  1  0  0  0  0
 17 18  1  0  0  0  0
 17 19  1  0  0  0  0
 17 20  1  0  0  0  0
 20 21  1  0  0  0  0
 20 22  1  0  0  0  0
 20 23  1  0  0  0  0
M  END
> <VConfSearch Rank>
62

> <Conf_Id>
85

> <Delta U+W>
1.193

> <U+W>
-7.189

> <U>
48.775

> <W>
-55.965

> <W(PB)>
-58.038

> <W(SA)>
2.073

> <Valence>
2.602

> <Coulomb>
45.581

> <VdW>
0.592

> <VdW6>
-6.616

> <VdW12>
7.208

> <Bond>
0.196

> <Angle>
0.832

> <Pdih>
1.574

> <Idih>
0.000

> <Tether>
0.000

$$$$
VeraChem MOL file


 23 22  0  0  0  0  0  0  0  0999 V2000     
   19.5479   18.5002   24.5714 N   0  3  0  0  0  0  0  0  0  0  0  0
   19.3209   19.2974   23.9684 H   0  0  0  0  0  0  0  0  0  0  0  0
   20.0260   18.8685   25.4009 H   0  0  0  0  0  0  0  0  0  0  0  0
   18.6616   18.0969   24.8921 H   0  0  0  0  0  0  0  0  0  0  0  0
   20.3966   17.4786   23.8395 C   0  0  0  0  0  0  0  0  0  0  0  0
   20.5939   16.6649   24.5427 H   0  0  0  0  0  0  0  0  0  0  0  0
   21.3525   17.9401   23.5780 H   0  0  0  0  0  0  0  0  0  0  0  0
   19.7303   16.9002   22.5746 C   0  0  0  0  0  0  0  0  0  0  0  0
   20.2057   15.9341   22.3591 H   0  0  0  0  0  0  0  0  0  0  0  0
   18.6757   16.6743   22.7810 H   0  0  0  0  0  0  0  0  0  0  0  0
   19.8491   17.7810   21.3017 C   0  0  0  0  0  0  0  0  0  0  0  0
   19.3847   17.2266   20.4743 H   0  0  0  0  0  0  0  0  0  0  0  0
   20.9055   17.8951   21.0218 H   0  0  0  0  0  0  0  0  0  0  0  0
   19.1671   19.1704   21.3906 C   0  0  0  0  0  0  0  0  0  0  0  0
   18.7379   19.4118   20.4082 H   0  0  0  0  0  0  0  0  0  0  0  0
   18.3158   19.1313   22.0831 H   0  0  0  0  0  0  0  0  0  0  0  0
   20.1466   20.3068   21.7731 C   0  0  0  0  0  0  0  0  0  0  0  0
   20.8900   20.4286   20.9727 H   0  0  0  0  0  0  0  0  0  0  0  0
   20.7143   20.0522   22.6760 H   0  0  0  0  0  0  0  0  0  0  0  0
   19.4106   21.6459   21.9892 C   0  0  0  0  0  0  0  0  0  0  0  0
   18.8758   21.9523   21.0806 H   0  0  0  0  0  0  0  0  0  0  0  0
   20.1219   22.4422   22.2446 H   0  0  0  0  0  0  0  0  0  0  0  0
   18.6805   21.5723   22.8055 H   0  0  0  0  0  0  0  0  0  0  0  0
  1  2  1  0  0  0  0
  1  3  1  0  0  0  0
  1  4  1  0  0  0  0
  1  5  1  0  0  0  0
  5  6  1  0  0  0  0
  5  7  1  0  0  0  0
  5  8  1  0  0  0  0
  8  9  1  0  0  0  0
  8 10  1  0  0  0  0
  8 11  1  0  0  0  0
 11 12  1  0  0  0  0
 11 13  1  0  0  0  0
 11 14  1  0  0  0  0
 14 15  1  0  0  0  0
 14 16  1  0  0  0  0
 14 17  1  0  0  0  0
 17 18  1  0  0  0  0
 17 19  1  0  0  0  0
 17 20  1  0  0  0  0
 20 21  1  0  0  0  0
 20 22  1  0  0  0  0
 20 23  1  0  0  0  0
M  END
> <VConfSearch Rank>
63

> <Conf_Id>
82

> <Delta U+W>
5.994

> <U+W>
-2.388

> <U>
52.836

> <W>
-55.224

> <W(PB)>
-57.261

> <W(SA)>
2.037

> <Valence>
5.785

> <Coulomb>
46.744

> <VdW>
0.307

> <VdW6>
-7.672

> <VdW12>
7.979

> <Bond>
0.217

> <Angle>
1.470

> <Pdih>
4.098

> <Idih>
0.000

> <Tether>
0.000

$$$$
VeraChem MOL file


 23 22  0  0  0  0  0  0  0  0999 V2000     
   18.5418   20.4787   23.1208 N   0  3  0  0  0  0  0  0  0  0  0  0
   18.9041   21.4366   23.1683 H   0  0  0  0  0  0  0  0  0  0  0  0
   17.5192   20.5477   23.0797 H   0  0  0  0  0  0  0  0  0  0  0  0
   18.8585   20.0754   22.2333 H   0  0  0  0  0  0  0  0  0  0  0  0
   19.0029   19.6457   24.3011 C   0  0  0  0  0  0  0  0  0  0  0  0
   18.5379   18.6584   24.2361 H   0  0  0  0  0  0  0  0  0  0  0  0
   18.6302   20.1373   25.2039 H   0  0  0  0  0  0  0  0  0  0  0  0
   20.5346   19.4979   24.4043 C   0  0  0  0  0  0  0  0  0  0  0  0
   21.0148   20.4660   24.2094 H   0  0  0  0  0  0  0  0  0  0  0  0
   20.7764   19.2494   25.4463 H   0  0  0  0  0  0  0  0  0  0  0  0
   21.1567   18.4007   23.4992 C   0  0  0  0  0  0  0  0  0  0  0  0
   20.7705   17.4132   23.7876 H   0  0  0  0  0  0  0  0  0  0  0  0
   22.2337   18.3688   23.7149 H   0  0  0  0  0  0  0  0  0  0  0  0
   20.9790   18.6192   21.9747 C   0  0  0  0  0  0  0  0  0  0  0  0
   20.9107   19.6921   21.7509 H   0  0  0  0  0  0  0  0  0  0  0  0
   21.8865   18.2681   21.4639 H   0  0  0  0  0  0  0  0  0  0  0  0
   19.7733   17.8477   21.3848 C   0  0  0  0  0  0  0  0  0  0  0  0
   18.8580   18.0495   21.9538 H   0  0  0  0  0  0  0  0  0  0  0  0
   19.9546   16.7675   21.4768 H   0  0  0  0  0  0  0  0  0  0  0  0
   19.5430   18.1981   19.8995 C   0  0  0  0  0  0  0  0  0  0  0  0
   19.3257   19.2663   19.7711 H   0  0  0  0  0  0  0  0  0  0  0  0
   18.6947   17.6310   19.4947 H   0  0  0  0  0  0  0  0  0  0  0  0
   20.4275   17.9555   19.2961 H   0  0  0  0  0  0  0  0  0  0  0  0
  1  2  1  0  0  0  0
  1  3  1  0  0  0  0
  1  4  1  0  0  0  0
  1  5  1  0  0  0  0
  5  6  1  0  0  0  0
  5  7  1  0  0  0  0
  5  8  1  0  0  0  0
  8  9  1  0  0  0  0
  8 10  1  0  0  0  0
  8 11  1  0  0  0  0
 11 12  1  0  0  0  0
 11 13  1  0  0  0  0
 11 14  1  0  0  0  0
 14 15  1  0  0  0  0
 14 16  1  0  0  0  0
 14 17  1  0  0  0  0
 17 18  1  0  0  0  0
 17 19  1  0  0  0  0
 17 20  1  0  0  0  0
 20 21  1  0  0  0  0
 20 22  1  0  0  0  0
 20 23  1  0  0  0  0
M  END
> <VConfSearch Rank>
64

> <Conf_Id>
5

> <Delta U+W>
6.087

> <U+W>
-2.295

> <U>
52.836

> <W>
-55.131

> <W(PB)>
-57.202

> <W(SA)>
2.071

> <Valence>
5.785

> <Coulomb>
46.744

> <VdW>
0.307

> <VdW6>
-7.672

> <VdW12>
7.980

> <Bond>
0.217

> <Angle>
1.470

> <Pdih>
4.098

> <Idih>
0.000

> <Tether>
0.000

$$$$
VeraChem MOL file


 23 22  0  0  0  0  0  0  0  0999 V2000     
   18.8826   17.9963   19.0042 N   0  3  0  0  0  0  0  0  0  0  0  0
   19.4095   18.7439   18.5411 H   0  0  0  0  0  0  0  0  0  0  0  0
   18.0586   17.8085   18.4229 H   0  0  0  0  0  0  0  0  0  0  0  0
   19.4658   17.1537   18.9750 H   0  0  0  0  0  0  0  0  0  0  0  0
   18.4983   18.3693   20.4216 C   0  0  0  0  0  0  0  0  0  0  0  0
   17.9170   17.5442   20.8419 H   0  0  0  0  0  0  0  0  0  0  0  0
   17.8565   19.2534   20.3756 H   0  0  0  0  0  0  0  0  0  0  0  0
   19.7136   18.6577   21.3206 C   0  0  0  0  0  0  0  0  0  0  0  0
   20.3635   17.7729   21.3507 H   0  0  0  0  0  0  0  0  0  0  0  0
   20.3032   19.4760   20.8860 H   0  0  0  0  0  0  0  0  0  0  0  0
   19.2797   19.0336   22.7547 C   0  0  0  0  0  0  0  0  0  0  0  0
   18.6857   18.2147   23.1840 H   0  0  0  0  0  0  0  0  0  0  0  0
   18.6255   19.9161   22.7198 H   0  0  0  0  0  0  0  0  0  0  0  0
   20.4930   19.3254   23.6667 C   0  0  0  0  0  0  0  0  0  0  0  0
   21.1471   18.4431   23.7018 H   0  0  0  0  0  0  0  0  0  0  0  0
   21.0870   20.1442   23.2376 H   0  0  0  0  0  0  0  0  0  0  0  0
   20.0586   19.7015   25.1008 C   0  0  0  0  0  0  0  0  0  0  0  0
   19.4659   18.8843   25.5355 H   0  0  0  0  0  0  0  0  0  0  0  0
   19.4059   20.5852   25.0713 H   0  0  0  0  0  0  0  0  0  0  0  0
   21.2727   19.9921   26.0085 C   0  0  0  0  0  0  0  0  0  0  0  0
   20.9445   20.2571   27.0220 H   0  0  0  0  0  0  0  0  0  0  0  0
   21.8668   20.8284   25.6175 H   0  0  0  0  0  0  0  0  0  0  0  0
   21.9274   19.1141   26.0853 H   0  0  0  0  0  0  0  0  0  0  0  0
  1  2  1  0  0  0  0
  1  3  1  0  0  0  0
  1  4  1  0  0  0  0
  1  5  1  0  0  0  0
  5  6  1  0  0  0  0
  5  7  1  0  0  0  0
  5  8  1  0  0  0  0
  8  9  1  0  0  0  0
  8 10  1  0  0  0  0
  8 11  1  0  0  0  0
 11 12  1  0  0  0  0
 11 13  1  0  0  0  0
 11 14  1  0  0  0  0
 14 15  1  0  0  0  0
 14 16  1  0  0  0  0
 14 17  1  0  0  0  0
 17 18  1  0  0  0  0
 17 19  1  0  0  0  0
 17 20  1  0  0  0  0
 20 21  1  0  0  0  0
 20 22  1  0  0  0  0
 20 23  1  0  0  0  0
M  END
> <VConfSearch Rank>
65

> <Conf_Id>
40

> <Delta U+W>
0.000

> <U+W>
-8.382

> <U>
46.604

> <W>
-54.986

> <W(PB)>
-57.162

> <W(SA)>
2.176

> <Valence>
1.727

> <Coulomb>
44.434

> <VdW>
0.443

> <VdW6>
-4.623

> <VdW12>
5.066

> <Bond>
0.112

> <Angle>
0.386

> <Pdih>
1.228

> <Idih>
0.000

> <Tether>
0.000

$$$$
VeraChem MOL file


 23 22  0  0  0  0  0  0  0  0999 V2000     
   18.1263   15.9087   23.2537 N   0  3  0  0  0  0  0  0  0  0  0  0
   18.6716   15.3494   23.9175 H   0  0  0  0  0  0  0  0  0  0  0  0
   18.2690   15.4982   22.3252 H   0  0  0  0  0  0  0  0  0  0  0  0
   17.1378   15.7726   23.4911 H   0  0  0  0  0  0  0  0  0  0  0  0
   18.5182   17.3718   23.2914 C   0  0  0  0  0  0  0  0  0  0  0  0
   18.3142   17.7500   24.2968 H   0  0  0  0  0  0  0  0  0  0  0  0
   17.8787   17.9079   22.5856 H   0  0  0  0  0  0  0  0  0  0  0  0
   19.9990   17.6091   22.9393 C   0  0  0  0  0  0  0  0  0  0  0  0
   20.6274   17.0269   23.6264 H   0  0  0  0  0  0  0  0  0  0  0  0
   20.2042   17.2305   21.9290 H   0  0  0  0  0  0  0  0  0  0  0  0
   20.4062   19.0990   23.0290 C   0  0  0  0  0  0  0  0  0  0  0  0
   21.4912   19.1679   22.8775 H   0  0  0  0  0  0  0  0  0  0  0  0
   20.2088   19.4722   24.0434 H   0  0  0  0  0  0  0  0  0  0  0  0
   19.6787   19.9919   21.9917 C   0  0  0  0  0  0  0  0  0  0  0  0
   19.8934   19.6306   20.9765 H   0  0  0  0  0  0  0  0  0  0  0  0
   18.5929   19.9032   22.1279 H   0  0  0  0  0  0  0  0  0  0  0  0
   20.0555   21.4897   22.0964 C   0  0  0  0  0  0  0  0  0  0  0  0
   19.8331   21.8594   23.1072 H   0  0  0  0  0  0  0  0  0  0  0  0
   19.4140   22.0625   21.4121 H   0  0  0  0  0  0  0  0  0  0  0  0
   21.5338   21.7797   21.7499 C   0  0  0  0  0  0  0  0  0  0  0  0
   22.2161   21.3312   22.4824 H   0  0  0  0  0  0  0  0  0  0  0  0
   21.7216   22.8612   21.7446 H   0  0  0  0  0  0  0  0  0  0  0  0
   21.7904   21.3901   20.7562 H   0  0  0  0  0  0  0  0  0  0  0  0
  1  2  1  0  0  0  0
  1  3  1  0  0  0  0
  1  4  1  0  0  0  0
  1  5  1  0  0  0  0
  5  6  1  0  0  0  0
  5  7  1  0  0  0  0
  5  8  1  0  0  0  0
  8  9  1  0  0  0  0
  8 10  1  0  0  0  0
  8 11  1  0  0  0  0
 11 12  1  0  0  0  0
 11 13  1  0  0  0  0
 11 14  1  0  0  0  0
 14 15  1  0  0  0  0
 14 16  1  0  0  0  0
 14 17  1  0  0  0  0
 17 18  1  0  0  0  0
 17 19  1  0  0  0  0
 17 20  1  0  0  0  0
 20 21  1  0  0  0  0
 20 22  1  0  0  0  0
 20 23  1  0  0  0  0
M  END
> <VConfSearch Rank>
66

> <Conf_Id>
65

> <Delta U+W>
1.004

> <U+W>
-7.378

> <U>
48.047

> <W>
-55.425

> <W(PB)>
-57.542

> <W(SA)>
2.116

> <Valence>
2.583

> <Coulomb>
44.791

> <VdW>
0.673

> <VdW6>
-5.788

> <VdW12>
6.462

> <Bond>
0.177

> <Angle>
0.787

> <Pdih>
1.619

> <Idih>
0.000

> <Tether>
0.000

$$$$
VeraChem MOL file


 23 22  0  0  0  0  0  0  0  0999 V2000     
   16.3837   20.0930   23.0384 N   0  3  0  0  0  0  0  0  0  0  0  0
   15.8783   19.4427   23.6487 H   0  0  0  0  0  0  0  0  0  0  0  0
   15.7312   20.3760   22.2994 H   0  0  0  0  0  0  0  0  0  0  0  0
   16.5872   20.9307   23.5930 H   0  0  0  0  0  0  0  0  0  0  0  0
   17.6432   19.4716   22.4697 C   0  0  0  0  0  0  0  0  0  0  0  0
   18.1100   20.2064   21.8089 H   0  0  0  0  0  0  0  0  0  0  0  0
   17.3511   18.6055   21.8699 H   0  0  0  0  0  0  0  0  0  0  0  0
   18.6443   19.0354   23.5563 C   0  0  0  0  0  0  0  0  0  0  0  0
   18.9390   19.9052   24.1584 H   0  0  0  0  0  0  0  0  0  0  0  0
   18.1469   18.3344   24.2397 H   0  0  0  0  0  0  0  0  0  0  0  0
   19.9056   18.3556   22.9726 C   0  0  0  0  0  0  0  0  0  0  0  0
   19.6082   17.4801   22.3789 H   0  0  0  0  0  0  0  0  0  0  0  0
   20.5082   17.9754   23.8076 H   0  0  0  0  0  0  0  0  0  0  0  0
   20.7642   19.3101   22.1041 C   0  0  0  0  0  0  0  0  0  0  0  0
   20.1537   19.7091   21.2833 H   0  0  0  0  0  0  0  0  0  0  0  0
   21.0785   20.1751   22.7043 H   0  0  0  0  0  0  0  0  0  0  0  0
   22.0108   18.6290   21.4888 C   0  0  0  0  0  0  0  0  0  0  0  0
   22.4938   19.3361   20.7999 H   0  0  0  0  0  0  0  0  0  0  0  0
   21.7015   17.7689   20.8785 H   0  0  0  0  0  0  0  0  0  0  0  0
   23.0480   18.1745   22.5409 C   0  0  0  0  0  0  0  0  0  0  0  0
   22.6533   17.3731   23.1775 H   0  0  0  0  0  0  0  0  0  0  0  0
   23.3488   19.0104   23.1858 H   0  0  0  0  0  0  0  0  0  0  0  0
   23.9503   17.7893   22.0487 H   0  0  0  0  0  0  0  0  0  0  0  0
  1  2  1  0  0  0  0
  1  3  1  0  0  0  0
  1  4  1  0  0  0  0
  1  5  1  0  0  0  0
  5  6  1  0  0  0  0
  5  7  1  0  0  0  0
  5  8  1  0  0  0  0
  8  9  1  0  0  0  0
  8 10  1  0  0  0  0
  8 11  1  0  0  0  0
 11 12  1  0  0  0  0
 11 13  1  0  0  0  0
 11 14  1  0  0  0  0
 14 15  1  0  0  0  0
 14 16  1  0  0  0  0
 14 17  1  0  0  0  0
 17 18  1  0  0  0  0
 17 19  1  0  0  0  0
 17 20  1  0  0  0  0
 20 21  1  0  0  0  0
 20 22  1  0  0  0  0
 20 23  1  0  0  0  0
M  END
> <VConfSearch Rank>
67

> <Conf_Id>
92

> <Delta U+W>
0.973

> <U+W>
-7.409

> <U>
48.047

> <W>
-55.456

> <W(PB)>
-57.595

> <W(SA)>
2.138

> <Valence>
2.583

> <Coulomb>
44.791

> <VdW>
0.674

> <VdW6>
-5.789

> <VdW12>
6.462

> <Bond>
0.177

> <Angle>
0.787

> <Pdih>
1.619

> <Idih>
0.000

> <Tether>
0.000

$$$$
VeraChem MOL file


 23 22  0  0  0  0  0  0  0  0999 V2000     
   22.7844   19.5183   20.8821 N   0  3  0  0  0  0  0  0  0  0  0  0
   22.8915   20.3010   20.2279 H   0  0  0  0  0  0  0  0  0  0  0  0
   23.2096   18.6984   20.4373 H   0  0  0  0  0  0  0  0  0  0  0  0
   23.3499   19.7405   21.7077 H   0  0  0  0  0  0  0  0  0  0  0  0
   21.3317   19.2780   21.2396 C   0  0  0  0  0  0  0  0  0  0  0  0
   20.7853   19.0763   20.3143 H   0  0  0  0  0  0  0  0  0  0  0  0
   20.9379   20.1984   21.6783 H   0  0  0  0  0  0  0  0  0  0  0  0
   21.1377   18.1071   22.2215 C   0  0  0  0  0  0  0  0  0  0  0  0
   21.5769   17.1989   21.7880 H   0  0  0  0  0  0  0  0  0  0  0  0
   21.6872   18.3094   23.1506 H   0  0  0  0  0  0  0  0  0  0  0  0
   19.6490   17.8391   22.5459 C   0  0  0  0  0  0  0  0  0  0  0  0
   19.5818   16.9391   23.1727 H   0  0  0  0  0  0  0  0  0  0  0  0
   19.1070   17.6118   21.6174 H   0  0  0  0  0  0  0  0  0  0  0  0
   18.9635   19.0195   23.2754 C   0  0  0  0  0  0  0  0  0  0  0  0
   19.5270   19.2655   24.1861 H   0  0  0  0  0  0  0  0  0  0  0  0
   18.9799   19.9146   22.6394 H   0  0  0  0  0  0  0  0  0  0  0  0
   17.5009   18.6911   23.6494 C   0  0  0  0  0  0  0  0  0  0  0  0
   17.4730   17.8009   24.2934 H   0  0  0  0  0  0  0  0  0  0  0  0
   16.9326   18.4435   22.7418 H   0  0  0  0  0  0  0  0  0  0  0  0
   16.8178   19.8694   24.3757 C   0  0  0  0  0  0  0  0  0  0  0  0
   17.3448   20.1188   25.3059 H   0  0  0  0  0  0  0  0  0  0  0  0
   15.7809   19.6173   24.6333 H   0  0  0  0  0  0  0  0  0  0  0  0
   16.7990   20.7661   23.7425 H   0  0  0  0  0  0  0  0  0  0  0  0
  1  2  1  0  0  0  0
  1  3  1  0  0  0  0
  1  4  1  0  0  0  0
  1  5  1  0  0  0  0
  5  6  1  0  0  0  0
  5  7  1  0  0  0  0
  5  8  1  0  0  0  0
  8  9  1  0  0  0  0
  8 10  1  0  0  0  0
  8 11  1  0  0  0  0
 11 12  1  0  0  0  0
 11 13  1  0  0  0  0
 11 14  1  0  0  0  0
 14 15  1  0  0  0  0
 14 16  1  0  0  0  0
 14 17  1  0  0  0  0
 17 18  1  0  0  0  0
 17 19  1  0  0  0  0
 17 20  1  0  0  0  0
 20 21  1  0  0  0  0
 20 22  1  0  0  0  0
 20 23  1  0  0  0  0
M  END
> <VConfSearch Rank>
68

> <Conf_Id>
42

> <Delta U+W>
0.365

> <U+W>
-8.017

> <U>
47.375

> <W>
-55.392

> <W(PB)>
-57.543

> <W(SA)>
2.152

> <Valence>
2.032

> <Coulomb>
44.843

> <VdW>
0.499

> <VdW6>
-5.218

> <VdW12>
5.717

> <Bond>
0.135

> <Angle>
0.514

> <Pdih>
1.383

> <Idih>
0.000

> <Tether>
0.000

$$$$
VeraChem MOL file


 23 22  0  0  0  0  0  0  0  0999 V2000     
   18.7008   18.9514   19.6240 N   0  3  0  0  0  0  0  0  0  0  0  0
   17.7770   18.5963   19.8910 H   0  0  0  0  0  0  0  0  0  0  0  0
   18.7976   18.8022   18.6139 H   0  0  0  0  0  0  0  0  0  0  0  0
   18.6918   19.9642   19.7771 H   0  0  0  0  0  0  0  0  0  0  0  0
   19.8119   18.2733   20.4019 C   0  0  0  0  0  0  0  0  0  0  0  0
   20.7664   18.6777   20.0543 H   0  0  0  0  0  0  0  0  0  0  0  0
   19.7840   17.2081   20.1562 H   0  0  0  0  0  0  0  0  0  0  0  0
   19.6999   18.4468   21.9291 C   0  0  0  0  0  0  0  0  0  0  0  0
   18.7291   18.0651   22.2720 H   0  0  0  0  0  0  0  0  0  0  0  0
   20.4722   17.8225   22.3948 H   0  0  0  0  0  0  0  0  0  0  0  0
   19.8853   19.9163   22.3798 C   0  0  0  0  0  0  0  0  0  0  0  0
   19.1801   20.5573   21.8347 H   0  0  0  0  0  0  0  0  0  0  0  0
   20.8904   20.2592   22.0977 H   0  0  0  0  0  0  0  0  0  0  0  0
   19.6682   20.1520   23.8971 C   0  0  0  0  0  0  0  0  0  0  0  0
   19.7823   21.2289   24.0833 H   0  0  0  0  0  0  0  0  0  0  0  0
   18.6314   19.9136   24.1717 H   0  0  0  0  0  0  0  0  0  0  0  0
   20.6557   19.3959   24.8231 C   0  0  0  0  0  0  0  0  0  0  0  0
   20.8834   20.0347   25.6881 H   0  0  0  0  0  0  0  0  0  0  0  0
   21.6131   19.2322   24.3090 H   0  0  0  0  0  0  0  0  0  0  0  0
   20.0946   18.0565   25.3555 C   0  0  0  0  0  0  0  0  0  0  0  0
   19.1771   18.2195   25.9357 H   0  0  0  0  0  0  0  0  0  0  0  0
   20.8239   17.5704   26.0164 H   0  0  0  0  0  0  0  0  0  0  0  0
   19.8612   17.3556   24.5465 H   0  0  0  0  0  0  0  0  0  0  0  0
  1  2  1  0  0  0  0
  1  3  1  0  0  0  0
  1  4  1  0  0  0  0
  1  5  1  0  0  0  0
  5  6  1  0  0  0  0
  5  7  1  0  0  0  0
  5  8  1  0  0  0  0
  8  9  1  0  0  0  0
  8 10  1  0  0  0  0
  8 11  1  0  0  0  0
 11 12  1  0  0  0  0
 11 13  1  0  0  0  0
 11 14  1  0  0  0  0
 14 15  1  0  0  0  0
 14 16  1  0  0  0  0
 14 17  1  0  0  0  0
 17 18  1  0  0  0  0
 17 19  1  0  0  0  0
 17 20  1  0  0  0  0
 20 21  1  0  0  0  0
 20 22  1  0  0  0  0
 20 23  1  0  0  0  0
M  END
> <VConfSearch Rank>
69

> <Conf_Id>
3

> <Delta U+W>
3.283

> <U+W>
-5.099

> <U>
50.701

> <W>
-55.800

> <W(PB)>
-57.867

> <W(SA)>
2.067

> <Valence>
4.880

> <Coulomb>
45.095

> <VdW>
0.726

> <VdW6>
-6.620

> <VdW12>
7.346

> <Bond>
0.222

> <Angle>
1.260

> <Pdih>
3.398

> <Idih>
0.000

> <Tether>
0.000

$$$$
VeraChem MOL file


 23 22  0  0  0  0  0  0  0  0999 V2000     
   18.9710   16.4754   23.6172 N   0  3  0  0  0  0  0  0  0  0  0  0
   19.7415   15.9281   24.0137 H   0  0  0  0  0  0  0  0  0  0  0  0
   18.1139   15.9293   23.7554 H   0  0  0  0  0  0  0  0  0  0  0  0
   18.8806   17.3254   24.1819 H   0  0  0  0  0  0  0  0  0  0  0  0
   19.2039   16.7978   22.1542 C   0  0  0  0  0  0  0  0  0  0  0  0
   18.3367   17.3523   21.7869 H   0  0  0  0  0  0  0  0  0  0  0  0
   19.2555   15.8513   21.6092 H   0  0  0  0  0  0  0  0  0  0  0  0
   20.4909   17.6075   21.8949 C   0  0  0  0  0  0  0  0  0  0  0  0
   21.3570   17.0168   22.2215 H   0  0  0  0  0  0  0  0  0  0  0  0
   20.6072   17.7469   20.8119 H   0  0  0  0  0  0  0  0  0  0  0  0
   20.5228   18.9903   22.5938 C   0  0  0  0  0  0  0  0  0  0  0  0
   21.4919   19.4582   22.3771 H   0  0  0  0  0  0  0  0  0  0  0  0
   20.4834   18.8598   23.6834 H   0  0  0  0  0  0  0  0  0  0  0  0
   19.3794   19.9315   22.1364 C   0  0  0  0  0  0  0  0  0  0  0  0
   19.4370   20.0832   21.0498 H   0  0  0  0  0  0  0  0  0  0  0  0
   18.4100   19.4541   22.3306 H   0  0  0  0  0  0  0  0  0  0  0  0
   19.3895   21.3051   22.8503 C   0  0  0  0  0  0  0  0  0  0  0  0
   19.3210   21.1601   23.9375 H   0  0  0  0  0  0  0  0  0  0  0  0
   18.4873   21.8602   22.5574 H   0  0  0  0  0  0  0  0  0  0  0  0
   20.6304   22.1645   22.5172 C   0  0  0  0  0  0  0  0  0  0  0  0
   20.7401   22.2964   21.4329 H   0  0  0  0  0  0  0  0  0  0  0  0
   21.5515   21.7113   22.9039 H   0  0  0  0  0  0  0  0  0  0  0  0
   20.5395   23.1609   22.9686 H   0  0  0  0  0  0  0  0  0  0  0  0
  1  2  1  0  0  0  0
  1  3  1  0  0  0  0
  1  4  1  0  0  0  0
  1  5  1  0  0  0  0
  5  6  1  0  0  0  0
  5  7  1  0  0  0  0
  5  8  1  0  0  0  0
  8  9  1  0  0  0  0
  8 10  1  0  0  0  0
  8 11  1  0  0  0  0
 11 12  1  0  0  0  0
 11 13  1  0  0  0  0
 11 14  1  0  0  0  0
 14 15  1  0  0  0  0
 14 16  1  0  0  0  0
 14 17  1  0  0  0  0
 17 18  1  0  0  0  0
 17 19  1  0  0  0  0
 17 20  1  0  0  0  0
 20 21  1  0  0  0  0
 20 22  1  0  0  0  0
 20 23  1  0  0  0  0
M  END
> <VConfSearch Rank>
70

> <Conf_Id>
83

> <Delta U+W>
1.229

> <U+W>
-7.154

> <U>
48.727

> <W>
-55.880

> <W(PB)>
-57.960

> <W(SA)>
2.080

> <Valence>
2.671

> <Coulomb>
45.371

> <VdW>
0.684

> <VdW6>
-6.511

> <VdW12>
7.195

> <Bond>
0.203

> <Angle>
0.915

> <Pdih>
1.554

> <Idih>
0.000

> <Tether>
0.000

$$$$
VeraChem MOL file


 23 22  0  0  0  0  0  0  0  0999 V2000     
   21.2579   21.1565   23.8229 N   0  3  0  0  0  0  0  0  0  0  0  0
   21.8948   20.8258   24.5547 H   0  0  0  0  0  0  0  0  0  0  0  0
   20.3045   20.9430   24.1313 H   0  0  0  0  0  0  0  0  0  0  0  0
   21.3427   22.1781   23.7916 H   0  0  0  0  0  0  0  0  0  0  0  0
   21.5663   20.5240   22.4801 C   0  0  0  0  0  0  0  0  0  0  0  0
   22.5804   20.8200   22.1981 H   0  0  0  0  0  0  0  0  0  0  0  0
   20.8754   20.9402   21.7425 H   0  0  0  0  0  0  0  0  0  0  0  0
   21.4651   18.9849   22.4816 C   0  0  0  0  0  0  0  0  0  0  0  0
   21.7562   18.6117   21.4907 H   0  0  0  0  0  0  0  0  0  0  0  0
   22.2004   18.5788   23.1889 H   0  0  0  0  0  0  0  0  0  0  0  0
   20.0585   18.4412   22.8387 C   0  0  0  0  0  0  0  0  0  0  0  0
   19.7878   18.7452   23.8585 H   0  0  0  0  0  0  0  0  0  0  0  0
   20.1109   17.3449   22.8505 H   0  0  0  0  0  0  0  0  0  0  0  0
   18.9585   18.8965   21.8461 C   0  0  0  0  0  0  0  0  0  0  0  0
   18.9218   19.9934   21.8154 H   0  0  0  0  0  0  0  0  0  0  0  0
   19.2172   18.5674   20.8303 H   0  0  0  0  0  0  0  0  0  0  0  0
   17.5461   18.3790   22.2120 C   0  0  0  0  0  0  0  0  0  0  0  0
   16.8158   18.8395   21.5320 H   0  0  0  0  0  0  0  0  0  0  0  0
   17.2774   18.7143   23.2235 H   0  0  0  0  0  0  0  0  0  0  0  0
   17.4091   16.8421   22.1198 C   0  0  0  0  0  0  0  0  0  0  0  0
   17.7042   16.4780   21.1271 H   0  0  0  0  0  0  0  0  0  0  0  0
   16.3685   16.5385   22.2925 H   0  0  0  0  0  0  0  0  0  0  0  0
   18.0281   16.3354   22.8704 H   0  0  0  0  0  0  0  0  0  0  0  0
  1  2  1  0  0  0  0
  1  3  1  0  0  0  0
  1  4  1  0  0  0  0
  1  5  1  0  0  0  0
  5  6  1  0  0  0  0
  5  7  1  0  0  0  0
  5  8  1  0  0  0  0
  8  9  1  0  0  0  0
  8 10  1  0  0  0  0
  8 11  1  0  0  0  0
 11 12  1  0  0  0  0
 11 13  1  0  0  0  0
 11 14  1  0  0  0  0
 14 15  1  0  0  0  0
 14 16  1  0  0  0  0
 14 17  1  0  0  0  0
 17 18  1  0  0  0  0
 17 19  1  0  0  0  0
 17 20  1  0  0  0  0
 20 21  1  0  0  0  0
 20 22  1  0  0  0  0
 20 23  1  0  0  0  0
M  END
> <VConfSearch Rank>
71

> <Conf_Id>
50

> <Delta U+W>
1.252

> <U+W>
-7.130

> <U>
48.727

> <W>
-55.857

> <W(PB)>
-57.937

> <W(SA)>
2.080

> <Valence>
2.671

> <Coulomb>
45.371

> <VdW>
0.684

> <VdW6>
-6.511

> <VdW12>
7.196

> <Bond>
0.203

> <Angle>
0.915

> <Pdih>
1.554

> <Idih>
0.000

> <Tether>
0.000

$$$$
VeraChem MOL file


 23 22  0  0  0  0  0  0  0  0999 V2000     
   16.6649   18.5364   22.3728 N   0  3  0  0  0  0  0  0  0  0  0  0
   16.7976   18.5928   23.3871 H   0  0  0  0  0  0  0  0  0  0  0  0
   15.9191   17.8524   22.2059 H   0  0  0  0  0  0  0  0  0  0  0  0
   16.3104   19.4467   22.0624 H   0  0  0  0  0  0  0  0  0  0  0  0
   17.9470   18.1569   21.6576 C   0  0  0  0  0  0  0  0  0  0  0  0
   17.7199   18.0761   20.5911 H   0  0  0  0  0  0  0  0  0  0  0  0
   18.2561   17.1711   22.0155 H   0  0  0  0  0  0  0  0  0  0  0  0
   19.0947   19.1651   21.8602 C   0  0  0  0  0  0  0  0  0  0  0  0
   19.9325   18.8633   21.2217 H   0  0  0  0  0  0  0  0  0  0  0  0
   18.7776   20.1543   21.5043 H   0  0  0  0  0  0  0  0  0  0  0  0
   19.5529   19.2593   23.3380 C   0  0  0  0  0  0  0  0  0  0  0  0
   19.7818   18.2594   23.7320 H   0  0  0  0  0  0  0  0  0  0  0  0
   18.7159   19.6392   23.9390 H   0  0  0  0  0  0  0  0  0  0  0  0
   20.7657   20.2034   23.5471 C   0  0  0  0  0  0  0  0  0  0  0  0
   20.7651   20.9992   22.7896 H   0  0  0  0  0  0  0  0  0  0  0  0
   20.6397   20.7139   24.5120 H   0  0  0  0  0  0  0  0  0  0  0  0
   22.1433   19.4929   23.5730 C   0  0  0  0  0  0  0  0  0  0  0  0
   22.1691   18.7696   24.4000 H   0  0  0  0  0  0  0  0  0  0  0  0
   22.9167   20.2403   23.7990 H   0  0  0  0  0  0  0  0  0  0  0  0
   22.5161   18.7780   22.2558 C   0  0  0  0  0  0  0  0  0  0  0  0
   22.4430   19.4611   21.3997 H   0  0  0  0  0  0  0  0  0  0  0  0
   21.8643   17.9150   22.0722 H   0  0  0  0  0  0  0  0  0  0  0  0
   23.5477   18.4054   22.3006 H   0  0  0  0  0  0  0  0  0  0  0  0
  1  2  1  0  0  0  0
  1  3  1  0  0  0  0
  1  4  1  0  0  0  0
  1  5  1  0  0  0  0
  5  6  1  0  0  0  0
  5  7  1  0  0  0  0
  5  8  1  0  0  0  0
  8  9  1  0  0  0  0
  8 10  1  0  0  0  0
  8 11  1  0  0  0  0
 11 12  1  0  0  0  0
 11 13  1  0  0  0  0
 11 14  1  0  0  0  0
 14 15  1  0  0  0  0
 14 16  1  0  0  0  0
 14 17  1  0  0  0  0
 17 18  1  0  0  0  0
 17 19  1  0  0  0  0
 17 20  1  0  0  0  0
 20 21  1  0  0  0  0
 20 22  1  0  0  0  0
 20 23  1  0  0  0  0
M  END
> <VConfSearch Rank>
72

> <Conf_Id>
55

> <Delta U+W>
3.232

> <U+W>
-5.150

> <U>
50.625

> <W>
-55.776

> <W(PB)>
-57.839

> <W(SA)>
2.064

> <Valence>
4.837

> <Coulomb>
45.097

> <VdW>
0.692

> <VdW6>
-6.655

> <VdW12>
7.347

> <Bond>
0.223

> <Angle>
1.167

> <Pdih>
3.447

> <Idih>
0.000

> <Tether>
0.000

$$$$
VeraChem MOL file


 23 22  0  0  0  0  0  0  0  0999 V2000     
   21.2516   21.5586   21.4069 N   0  3  0  0  0  0  0  0  0  0  0  0
   20.7248   22.3883   21.1156 H   0  0  0  0  0  0  0  0  0  0  0  0
   22.0392   21.4627   20.7569 H   0  0  0  0  0  0  0  0  0  0  0  0
   21.6495   21.7628   22.3293 H   0  0  0  0  0  0  0  0  0  0  0  0
   20.3839   20.3167   21.4274 C   0  0  0  0  0  0  0  0  0  0  0  0
   21.0162   19.4728   21.7092 H   0  0  0  0  0  0  0  0  0  0  0  0
   20.0194   20.1447   20.4111 H   0  0  0  0  0  0  0  0  0  0  0  0
   19.1868   20.4341   22.3913 C   0  0  0  0  0  0  0  0  0  0  0  0
   19.5357   20.6533   23.4092 H   0  0  0  0  0  0  0  0  0  0  0  0
   18.5816   21.2956   22.0789 H   0  0  0  0  0  0  0  0  0  0  0  0
   18.2845   19.1742   22.3969 C   0  0  0  0  0  0  0  0  0  0  0  0
   18.2079   18.7616   21.3813 H   0  0  0  0  0  0  0  0  0  0  0  0
   17.2661   19.4848   22.6686 H   0  0  0  0  0  0  0  0  0  0  0  0
   18.7154   18.0651   23.3918 C   0  0  0  0  0  0  0  0  0  0  0  0
   18.6872   18.4614   24.4162 H   0  0  0  0  0  0  0  0  0  0  0  0
   17.9651   17.2632   23.3551 H   0  0  0  0  0  0  0  0  0  0  0  0
   20.1103   17.4582   23.1152 C   0  0  0  0  0  0  0  0  0  0  0  0
   20.8886   18.2096   23.3009 H   0  0  0  0  0  0  0  0  0  0  0  0
   20.1869   17.1627   22.0595 H   0  0  0  0  0  0  0  0  0  0  0  0
   20.3851   16.2317   24.0112 C   0  0  0  0  0  0  0  0  0  0  0  0
   19.6506   15.4364   23.8293 H   0  0  0  0  0  0  0  0  0  0  0  0
   20.3404   16.5018   25.0743 H   0  0  0  0  0  0  0  0  0  0  0  0
   21.3828   15.8203   23.8098 H   0  0  0  0  0  0  0  0  0  0  0  0
  1  2  1  0  0  0  0
  1  3  1  0  0  0  0
  1  4  1  0  0  0  0
  1  5  1  0  0  0  0
  5  6  1  0  0  0  0
  5  7  1  0  0  0  0
  5  8  1  0  0  0  0
  8  9  1  0  0  0  0
  8 10  1  0  0  0  0
  8 11  1  0  0  0  0
 11 12  1  0  0  0  0
 11 13  1  0  0  0  0
 11 14  1  0  0  0  0
 14 15  1  0  0  0  0
 14 16  1  0  0  0  0
 14 17  1  0  0  0  0
 17 18  1  0  0  0  0
 17 19  1  0  0  0  0
 17 20  1  0  0  0  0
 20 21  1  0  0  0  0
 20 22  1  0  0  0  0
 20 23  1  0  0  0  0
M  END
> <VConfSearch Rank>
73

> <Conf_Id>
93

> <Delta U+W>
2.589

> <U+W>
-5.793

> <U>
50.122

> <W>
-55.915

> <W(PB)>
-58.031

> <W(SA)>
2.115

> <Valence>
4.132

> <Coulomb>
45.536

> <VdW>
0.454

> <VdW6>
-6.262

> <VdW12>
6.715

> <Bond>
0.182

> <Angle>
1.157

> <Pdih>
2.794

> <Idih>
0.000

> <Tether>
0.000

$$$$
VeraChem MOL file


 23 22  0  0  0  0  0  0  0  0999 V2000     
   16.6674   19.4615   22.0128 N   0  3  0  0  0  0  0  0  0  0  0  0
   16.8074   19.1380   21.0502 H   0  0  0  0  0  0  0  0  0  0  0  0
   16.2943   20.4153   21.9557 H   0  0  0  0  0  0  0  0  0  0  0  0
   15.9308   18.8781   22.4226 H   0  0  0  0  0  0  0  0  0  0  0  0
   17.9480   19.4051   22.8206 C   0  0  0  0  0  0  0  0  0  0  0  0
   17.7314   19.7893   23.8210 H   0  0  0  0  0  0  0  0  0  0  0  0
   18.6697   20.0740   22.3483 H   0  0  0  0  0  0  0  0  0  0  0  0
   18.5289   17.9816   22.9299 C   0  0  0  0  0  0  0  0  0  0  0  0
   17.7725   17.3407   23.4021 H   0  0  0  0  0  0  0  0  0  0  0  0
   18.7084   17.5641   21.9302 H   0  0  0  0  0  0  0  0  0  0  0  0
   19.8262   17.9173   23.7751 C   0  0  0  0  0  0  0  0  0  0  0  0
   19.8962   16.9138   24.2174 H   0  0  0  0  0  0  0  0  0  0  0  0
   19.7571   18.6116   24.6241 H   0  0  0  0  0  0  0  0  0  0  0  0
   21.1359   18.1712   22.9841 C   0  0  0  0  0  0  0  0  0  0  0  0
   21.9823   18.0293   23.6703 H   0  0  0  0  0  0  0  0  0  0  0  0
   21.2460   17.4060   22.2032 H   0  0  0  0  0  0  0  0  0  0  0  0
   21.2402   19.5750   22.3444 C   0  0  0  0  0  0  0  0  0  0  0  0
   21.0179   20.3457   23.0956 H   0  0  0  0  0  0  0  0  0  0  0  0
   20.4972   19.6768   21.5429 H   0  0  0  0  0  0  0  0  0  0  0  0
   22.6429   19.8275   21.7516 C   0  0  0  0  0  0  0  0  0  0  0  0
   22.6961   20.8232   21.2924 H   0  0  0  0  0  0  0  0  0  0  0  0
   22.8836   19.0865   20.9782 H   0  0  0  0  0  0  0  0  0  0  0  0
   23.4163   19.7740   22.5289 H   0  0  0  0  0  0  0  0  0  0  0  0
  1  2  1  0  0  0  0
  1  3  1  0  0  0  0
  1  4  1  0  0  0  0
  1  5  1  0  0  0  0
  5  6  1  0  0  0  0
  5  7  1  0  0  0  0
  5  8  1  0  0  0  0
  8  9  1  0  0  0  0
  8 10  1  0  0  0  0
  8 11  1  0  0  0  0
 11 12  1  0  0  0  0
 11 13  1  0  0  0  0
 11 14  1  0  0  0  0
 14 15  1  0  0  0  0
 14 16  1  0  0  0  0
 14 17  1  0  0  0  0
 17 18  1  0  0  0  0
 17 19  1  0  0  0  0
 17 20  1  0  0  0  0
 20 21  1  0  0  0  0
 20 22  1  0  0  0  0
 20 23  1  0  0  0  0
M  END
> <VConfSearch Rank>
74

> <Conf_Id>
70

> <Delta U+W>
2.599

> <U+W>
-5.783

> <U>
50.122

> <W>
-55.906

> <W(PB)>
-58.010

> <W(SA)>
2.105

> <Valence>
4.132

> <Coulomb>
45.536

> <VdW>
0.454

> <VdW6>
-6.262

> <VdW12>
6.715

> <Bond>
0.182

> <Angle>
1.157

> <Pdih>
2.794

> <Idih>
0.000

> <Tether>
0.000

$$$$
VeraChem MOL file


 23 22  0  0  0  0  0  0  0  0999 V2000     
   19.7878   19.6482   19.8221 N   0  3  0  0  0  0  0  0  0  0  0  0
   19.1166   19.2781   19.1417 H   0  0  0  0  0  0  0  0  0  0  0  0
   20.5329   20.1079   19.2879 H   0  0  0  0  0  0  0  0  0  0  0  0
   19.3063   20.3774   20.3567 H   0  0  0  0  0  0  0  0  0  0  0  0
   20.3316   18.5591   20.7257 C   0  0  0  0  0  0  0  0  0  0  0  0
   21.0625   19.0116   21.4011 H   0  0  0  0  0  0  0  0  0  0  0  0
   20.8544   17.8341   20.0961 H   0  0  0  0  0  0  0  0  0  0  0  0
   19.2440   17.8358   21.5452 C   0  0  0  0  0  0  0  0  0  0  0  0
   18.5353   17.3564   20.8570 H   0  0  0  0  0  0  0  0  0  0  0  0
   19.7107   17.0189   22.1101 H   0  0  0  0  0  0  0  0  0  0  0  0
   18.4646   18.7628   22.5150 C   0  0  0  0  0  0  0  0  0  0  0  0
   17.7440   18.1568   23.0812 H   0  0  0  0  0  0  0  0  0  0  0  0
   17.8618   19.4719   21.9319 H   0  0  0  0  0  0  0  0  0  0  0  0
   19.3489   19.5580   23.5102 C   0  0  0  0  0  0  0  0  0  0  0  0
   20.0123   20.2406   22.9628 H   0  0  0  0  0  0  0  0  0  0  0  0
   18.6950   20.1965   24.1203 H   0  0  0  0  0  0  0  0  0  0  0  0
   20.1874   18.6574   24.4477 C   0  0  0  0  0  0  0  0  0  0  0  0
   20.8995   18.0605   23.8624 H   0  0  0  0  0  0  0  0  0  0  0  0
   19.5286   17.9482   24.9678 H   0  0  0  0  0  0  0  0  0  0  0  0
   20.9675   19.4890   25.4880 C   0  0  0  0  0  0  0  0  0  0  0  0
   21.5584   18.8353   26.1426 H   0  0  0  0  0  0  0  0  0  0  0  0
   20.2849   20.0709   26.1210 H   0  0  0  0  0  0  0  0  0  0  0  0
   21.6579   20.1875   24.9973 H   0  0  0  0  0  0  0  0  0  0  0  0
  1  2  1  0  0  0  0
  1  3  1  0  0  0  0
  1  4  1  0  0  0  0
  1  5  1  0  0  0  0
  5  6  1  0  0  0  0
  5  7  1  0  0  0  0
  5  8  1  0  0  0  0
  8  9  1  0  0  0  0
  8 10  1  0  0  0  0
  8 11  1  0  0  0  0
 11 12  1  0  0  0  0
 11 13  1  0  0  0  0
 11 14  1  0  0  0  0
 14 15  1  0  0  0  0
 14 16  1  0  0  0  0
 14 17  1  0  0  0  0
 17 18  1  0  0  0  0
 17 19  1  0  0  0  0
 17 20  1  0  0  0  0
 20 21  1  0  0  0  0
 20 22  1  0  0  0  0
 20 23  1  0  0  0  0
M  END
> <VConfSearch Rank>
75

> <Conf_Id>
72

> <Delta U+W>
1.051

> <U+W>
-7.331

> <U>
48.590

> <W>
-55.922

> <W(PB)>
-58.012

> <W(SA)>
2.090

> <Valence>
2.601

> <Coulomb>
45.520

> <VdW>
0.469

> <VdW6>
-6.867

> <VdW12>
7.336

> <Bond>
0.205

> <Angle>
0.962

> <Pdih>
1.434

> <Idih>
0.000

> <Tether>
0.000

$$$$
VeraChem MOL file


 23 22  0  0  0  0  0  0  0  0999 V2000     
   22.4536   20.5354   22.8357 N   0  3  0  0  0  0  0  0  0  0  0  0
   22.9671   21.0676   22.1250 H   0  0  0  0  0  0  0  0  0  0  0  0
   23.1534   20.1101   23.4522 H   0  0  0  0  0  0  0  0  0  0  0  0
   21.9304   21.2151   23.3969 H   0  0  0  0  0  0  0  0  0  0  0  0
   21.5437   19.4965   22.2124 C   0  0  0  0  0  0  0  0  0  0  0  0
   22.1606   18.8257   21.6084 H   0  0  0  0  0  0  0  0  0  0  0  0
   20.8472   20.0150   21.5484 H   0  0  0  0  0  0  0  0  0  0  0  0
   20.7572   18.6793   23.2543 C   0  0  0  0  0  0  0  0  0  0  0  0
   21.4652   18.1931   23.9385 H   0  0  0  0  0  0  0  0  0  0  0  0
   20.1475   19.3530   23.8697 H   0  0  0  0  0  0  0  0  0  0  0  0
   19.8601   17.5939   22.6091 C   0  0  0  0  0  0  0  0  0  0  0  0
   19.3463   17.0348   23.4024 H   0  0  0  0  0  0  0  0  0  0  0  0
   20.5009   16.8616   22.0987 H   0  0  0  0  0  0  0  0  0  0  0  0
   18.8161   18.1310   21.5930 C   0  0  0  0  0  0  0  0  0  0  0  0
   19.3369   18.5440   20.7187 H   0  0  0  0  0  0  0  0  0  0  0  0
   18.2289   17.2837   21.2131 H   0  0  0  0  0  0  0  0  0  0  0  0
   17.8445   19.2024   22.1501 C   0  0  0  0  0  0  0  0  0  0  0  0
   17.1664   19.5134   21.3432 H   0  0  0  0  0  0  0  0  0  0  0  0
   18.3996   20.1045   22.4401 H   0  0  0  0  0  0  0  0  0  0  0  0
   17.0003   18.7026   23.3442 C   0  0  0  0  0  0  0  0  0  0  0  0
   16.4453   17.7928   23.0813 H   0  0  0  0  0  0  0  0  0  0  0  0
   16.2710   19.4655   23.6458 H   0  0  0  0  0  0  0  0  0  0  0  0
   17.6280   18.4823   24.2165 H   0  0  0  0  0  0  0  0  0  0  0  0
  1  2  1  0  0  0  0
  1  3  1  0  0  0  0
  1  4  1  0  0  0  0
  1  5  1  0  0  0  0
  5  6  1  0  0  0  0
  5  7  1  0  0  0  0
  5  8  1  0  0  0  0
  8  9  1  0  0  0  0
  8 10  1  0  0  0  0
  8 11  1  0  0  0  0
 11 12  1  0  0  0  0
 11 13  1  0  0  0  0
 11 14  1  0  0  0  0
 14 15  1  0  0  0  0
 14 16  1  0  0  0  0
 14 17  1  0  0  0  0
 17 18  1  0  0  0  0
 17 19  1  0  0  0  0
 17 20  1  0  0  0  0
 20 21  1  0  0  0  0
 20 22  1  0  0  0  0
 20 23  1  0  0  0  0
M  END
> <VConfSearch Rank>
76

> <Conf_Id>
26

> <Delta U+W>
1.076

> <U+W>
-7.306

> <U>
48.641

> <W>
-55.947

> <W(PB)>
-58.031

> <W(SA)>
2.084

> <Valence>
2.922

> <Coulomb>
45.269

> <VdW>
0.449

> <VdW6>
-7.045

> <VdW12>
7.494

> <Bond>
0.220

> <Angle>
1.205

> <Pdih>
1.497

> <Idih>
0.000

> <Tether>
0.000

$$$$
VeraChem MOL file


 23 22  0  0  0  0  0  0  0  0999 V2000     
   17.3540   17.1473   22.0171 N   0  3  0  0  0  0  0  0  0  0  0  0
   16.7909   16.8951   22.8358 H   0  0  0  0  0  0  0  0  0  0  0  0
   17.2515   16.3847   21.3389 H   0  0  0  0  0  0  0  0  0  0  0  0
   16.9231   17.9780   21.5990 H   0  0  0  0  0  0  0  0  0  0  0  0
   18.8053   17.3852   22.3814 C   0  0  0  0  0  0  0  0  0  0  0  0
   19.3485   17.6183   21.4619 H   0  0  0  0  0  0  0  0  0  0  0  0
   19.2074   16.4554   22.7926 H   0  0  0  0  0  0  0  0  0  0  0  0
   18.9935   18.5256   23.3991 C   0  0  0  0  0  0  0  0  0  0  0  0
   18.5785   19.4568   22.9927 H   0  0  0  0  0  0  0  0  0  0  0  0
   18.4140   18.2991   24.3039 H   0  0  0  0  0  0  0  0  0  0  0  0
   20.4764   18.7349   23.7946 C   0  0  0  0  0  0  0  0  0  0  0  0
   20.8370   17.8333   24.3088 H   0  0  0  0  0  0  0  0  0  0  0  0
   20.5397   19.5429   24.5357 H   0  0  0  0  0  0  0  0  0  0  0  0
   21.4298   19.0428   22.6085 C   0  0  0  0  0  0  0  0  0  0  0  0
   22.4448   19.1879   23.0034 H   0  0  0  0  0  0  0  0  0  0  0  0
   21.4919   18.1640   21.9526 H   0  0  0  0  0  0  0  0  0  0  0  0
   21.0441   20.2784   21.7560 C   0  0  0  0  0  0  0  0  0  0  0  0
   20.0763   20.1131   21.2637 H   0  0  0  0  0  0  0  0  0  0  0  0
   21.7785   20.3878   20.9458 H   0  0  0  0  0  0  0  0  0  0  0  0
   20.9992   21.5930   22.5673 C   0  0  0  0  0  0  0  0  0  0  0  0
   20.2026   21.5733   23.3214 H   0  0  0  0  0  0  0  0  0  0  0  0
   20.8068   22.4472   21.9053 H   0  0  0  0  0  0  0  0  0  0  0  0
   21.9532   21.7731   23.0794 H   0  0  0  0  0  0  0  0  0  0  0  0
  1  2  1  0  0  0  0
  1  3  1  0  0  0  0
  1  4  1  0  0  0  0
  1  5  1  0  0  0  0
  5  6  1  0  0  0  0
  5  7  1  0  0  0  0
  5  8  1  0  0  0  0
  8  9  1  0  0  0  0
  8 10  1  0  0  0  0
  8 11  1  0  0  0  0
 11 12  1  0  0  0  0
 11 13  1  0  0  0  0
 11 14  1  0  0  0  0
 14 15  1  0  0  0  0
 14 16  1  0  0  0  0
 14 17  1  0  0  0  0
 17 18  1  0  0  0  0
 17 19  1  0  0  0  0
 17 20  1  0  0  0  0
 20 21  1  0  0  0  0
 20 22  1  0  0  0  0
 20 23  1  0  0  0  0
M  END
> <VConfSearch Rank>
77

> <Conf_Id>
90

> <Delta U+W>
1.131

> <U+W>
-7.251

> <U>
48.641

> <W>
-55.892

> <W(PB)>
-57.962

> <W(SA)>
2.070

> <Valence>
2.922

> <Coulomb>
45.269

> <VdW>
0.450

> <VdW6>
-7.045

> <VdW12>
7.495

> <Bond>
0.220

> <Angle>
1.205

> <Pdih>
1.497

> <Idih>
0.000

> <Tether>
0.000

$$$$
VeraChem MOL file


 23 22  0  0  0  0  0  0  0  0999 V2000     
   20.9723   16.6691   21.9050 N   0  3  0  0  0  0  0  0  0  0  0  0
   21.9302   16.3489   21.7273 H   0  0  0  0  0  0  0  0  0  0  0  0
   20.8074   17.4776   21.2978 H   0  0  0  0  0  0  0  0  0  0  0  0
   20.3443   15.9217   21.5929 H   0  0  0  0  0  0  0  0  0  0  0  0
   20.7552   17.0135   23.3654 C   0  0  0  0  0  0  0  0  0  0  0  0
   21.4730   17.7905   23.6407 H   0  0  0  0  0  0  0  0  0  0  0  0
   20.9797   16.1206   23.9551 H   0  0  0  0  0  0  0  0  0  0  0  0
   19.3232   17.4901   23.6835 C   0  0  0  0  0  0  0  0  0  0  0  0
   18.6153   16.6846   23.4474 H   0  0  0  0  0  0  0  0  0  0  0  0
   19.2414   17.6616   24.7650 H   0  0  0  0  0  0  0  0  0  0  0  0
   18.9056   18.7772   22.9288 C   0  0  0  0  0  0  0  0  0  0  0  0
   17.8725   19.0266   23.2074 H   0  0  0  0  0  0  0  0  0  0  0  0
   18.8922   18.5805   21.8494 H   0  0  0  0  0  0  0  0  0  0  0  0
   19.8219   19.9875   23.2403 C   0  0  0  0  0  0  0  0  0  0  0  0
   19.8896   20.1146   24.3296 H   0  0  0  0  0  0  0  0  0  0  0  0
   20.8431   19.7905   22.8876 H   0  0  0  0  0  0  0  0  0  0  0  0
   19.3186   21.3135   22.6210 C   0  0  0  0  0  0  0  0  0  0  0  0
   19.9589   22.1336   22.9749 H   0  0  0  0  0  0  0  0  0  0  0  0
   18.3062   21.5346   22.9871 H   0  0  0  0  0  0  0  0  0  0  0  0
   19.3233   21.3093   21.0753 C   0  0  0  0  0  0  0  0  0  0  0  0
   20.3193   21.0646   20.6839 H   0  0  0  0  0  0  0  0  0  0  0  0
   19.0447   22.2979   20.6879 H   0  0  0  0  0  0  0  0  0  0  0  0
   18.6064   20.5837   20.6716 H   0  0  0  0  0  0  0  0  0  0  0  0
  1  2  1  0  0  0  0
  1  3  1  0  0  0  0
  1  4  1  0  0  0  0
  1  5  1  0  0  0  0
  5  6  1  0  0  0  0
  5  7  1  0  0  0  0
  5  8  1  0  0  0  0
  8  9  1  0  0  0  0
  8 10  1  0  0  0  0
  8 11  1  0  0  0  0
 11 12  1  0  0  0  0
 11 13  1  0  0  0  0
 11 14  1  0  0  0  0
 14 15  1  0  0  0  0
 14 16  1  0  0  0  0
 14 17  1  0  0  0  0
 17 18  1  0  0  0  0
 17 19  1  0  0  0  0
 17 20  1  0  0  0  0
 20 21  1  0  0  0  0
 20 22  1  0  0  0  0
 20 23  1  0  0  0  0
M  END
> <VConfSearch Rank>
78

> <Conf_Id>
85

> <Delta U+W>
1.193

> <U+W>
-7.189

> <U>
48.775

> <W>
-55.965

> <W(PB)>
-58.038

> <W(SA)>
2.073

> <Valence>
2.602

> <Coulomb>
45.581

> <VdW>
0.592

> <VdW6>
-6.616

> <VdW12>
7.208

> <Bond>
0.196

> <Angle>
0.832

> <Pdih>
1.574

> <Idih>
0.000

> <Tether>
0.000

$$$$
VeraChem MOL file


 23 22  0  0  0  0  0  0  0  0999 V2000     
   19.3221   16.9634   23.0637 N   0  3  0  0  0  0  0  0  0  0  0  0
   20.1584   17.5553   23.0311 H   0  0  0  0  0  0  0  0  0  0  0  0
   19.5595   16.0710   22.6170 H   0  0  0  0  0  0  0  0  0  0  0  0
   19.1284   16.7615   24.0500 H   0  0  0  0  0  0  0  0  0  0  0  0
   18.1434   17.6358   22.3869 C   0  0  0  0  0  0  0  0  0  0  0  0
   17.2964   16.9485   22.4639 H   0  0  0  0  0  0  0  0  0  0  0  0
   18.3769   17.7688   21.3272 H   0  0  0  0  0  0  0  0  0  0  0  0
   17.7507   18.9904   23.0111 C   0  0  0  0  0  0  0  0  0  0  0  0
   16.7044   19.1900   22.7441 H   0  0  0  0  0  0  0  0  0  0  0  0
   17.7697   18.9137   24.1063 H   0  0  0  0  0  0  0  0  0  0  0  0
   18.5983   20.2048   22.5454 C   0  0  0  0  0  0  0  0  0  0  0  0
   18.1766   21.1012   23.0210 H   0  0  0  0  0  0  0  0  0  0  0  0
   18.4709   20.3588   21.4648 H   0  0  0  0  0  0  0  0  0  0  0  0
   20.1056   20.1370   22.9012 C   0  0  0  0  0  0  0  0  0  0  0  0
   20.4526   21.1510   23.1445 H   0  0  0  0  0  0  0  0  0  0  0  0
   20.2532   19.5472   23.8156 H   0  0  0  0  0  0  0  0  0  0  0  0
   20.9817   19.6005   21.7429 C   0  0  0  0  0  0  0  0  0  0  0  0
   20.9409   20.3062   20.9012 H   0  0  0  0  0  0  0  0  0  0  0  0
   20.5914   18.6504   21.3592 H   0  0  0  0  0  0  0  0  0  0  0  0
   22.4509   19.4145   22.1775 C   0  0  0  0  0  0  0  0  0  0  0  0
   22.8842   20.3644   22.5169 H   0  0  0  0  0  0  0  0  0  0  0  0
   23.0592   19.0483   21.3402 H   0  0  0  0  0  0  0  0  0  0  0  0
   22.5353   18.6895   22.9972 H   0  0  0  0  0  0  0  0  0  0  0  0
  1  2  1  0  0  0  0
  1  3  1  0  0  0  0
  1  4  1  0  0  0  0
  1  5  1  0  0  0  0
  5  6  1  0  0  0  0
  5  7  1  0  0  0  0
  5  8  1  0  0  0  0
  8  9  1  0  0  0  0
  8 10  1  0  0  0  0
  8 11  1  0  0  0  0
 11 12  1  0  0  0  0
 11 13  1  0  0  0  0
 11 14  1  0  0  0  0
 14 15  1  0  0  0  0
 14 16  1  0  0  0  0
 14 17  1  0  0  0  0
 17 18  1  0  0  0  0
 17 19  1  0  0  0  0
 17 20  1  0  0  0  0
 20 21  1  0  0  0  0
 20 22  1  0  0  0  0
 20 23  1  0  0  0  0
M  END
> <VConfSearch Rank>
79

> <Conf_Id>
82

> <Delta U+W>
5.994

> <U+W>
-2.388

> <U>
52.836

> <W>
-55.224

> <W(PB)>
-57.261

> <W(SA)>
2.037

> <Valence>
5.785

> <Coulomb>
46.744

> <VdW>
0.307

> <VdW6>
-7.672

> <VdW12>
7.979

> <Bond>
0.217

> <Angle>
1.470

> <Pdih>
4.098

> <Idih>
0.000

> <Tether>
0.000

$$$$
VeraChem MOL file


 23 22  0  0  0  0  0  0  0  0999 V2000     
   20.2176   18.7191   24.5821 N   0  3  0  0  0  0  0  0  0  0  0  0
   19.9215   19.4680   25.2166 H   0  0  0  0  0  0  0  0  0  0  0  0
   20.3539   17.8789   25.1547 H   0  0  0  0  0  0  0  0  0  0  0  0
   19.4375   18.5327   23.9438 H   0  0  0  0  0  0  0  0  0  0  0  0
   21.4755   19.0926   23.8220 C   0  0  0  0  0  0  0  0  0  0  0  0
   21.7828   18.2388   23.2122 H   0  0  0  0  0  0  0  0  0  0  0  0
   22.2554   19.2763   24.5659 H   0  0  0  0  0  0  0  0  0  0  0  0
   21.3230   20.3437   22.9331 C   0  0  0  0  0  0  0  0  0  0  0  0
   20.7738   21.1222   23.4792 H   0  0  0  0  0  0  0  0  0  0  0  0
   22.3268   20.7534   22.7587 H   0  0  0  0  0  0  0  0  0  0  0  0
   20.6651   20.0966   21.5488 C   0  0  0  0  0  0  0  0  0  0  0  0
   21.2898   19.4169   20.9528 H   0  0  0  0  0  0  0  0  0  0  0  0
   20.6721   21.0524   21.0067 H   0  0  0  0  0  0  0  0  0  0  0  0
   19.2042   19.5799   21.5917 C   0  0  0  0  0  0  0  0  0  0  0  0
   18.7025   19.9361   22.5011 H   0  0  0  0  0  0  0  0  0  0  0  0
   18.6510   20.0280   20.7544 H   0  0  0  0  0  0  0  0  0  0  0  0
   19.0979   18.0408   21.4614 C   0  0  0  0  0  0  0  0  0  0  0  0
   19.7496   17.5368   22.1851 H   0  0  0  0  0  0  0  0  0  0  0  0
   19.4563   17.7359   20.4681 H   0  0  0  0  0  0  0  0  0  0  0  0
   17.6464   17.5511   21.6487 C   0  0  0  0  0  0  0  0  0  0  0  0
   17.2640   17.8093   22.6447 H   0  0  0  0  0  0  0  0  0  0  0  0
   17.5881   16.4605   21.5381 H   0  0  0  0  0  0  0  0  0  0  0  0
   16.9798   18.0004   20.9010 H   0  0  0  0  0  0  0  0  0  0  0  0
  1  2  1  0  0  0  0
  1  3  1  0  0  0  0
  1  4  1  0  0  0  0
  1  5  1  0  0  0  0
  5  6  1  0  0  0  0
  5  7  1  0  0  0  0
  5  8  1  0  0  0  0
  8  9  1  0  0  0  0
  8 10  1  0  0  0  0
  8 11  1  0  0  0  0
 11 12  1  0  0  0  0
 11 13  1  0  0  0  0
 11 14  1  0  0  0  0
 14 15  1  0  0  0  0
 14 16  1  0  0  0  0
 14 17  1  0  0  0  0
 17 18  1  0  0  0  0
 17 19  1  0  0  0  0
 17 20  1  0  0  0  0
 20 21  1  0  0  0  0
 20 22  1  0  0  0  0
 20 23  1  0  0  0  0
M  END
> <VConfSearch Rank>
80

> <Conf_Id>
5

> <Delta U+W>
6.087

> <U+W>
-2.295

> <U>
52.836

> <W>
-55.131

> <W(PB)>
-57.202

> <W(SA)>
2.071

> <Valence>
5.785

> <Coulomb>
46.744

> <VdW>
0.307

> <VdW6>
-7.672

> <VdW12>
7.980

> <Bond>
0.217

> <Angle>
1.470

> <Pdih>
4.098

> <Idih>
0.000

> <Tether>
0.000

$$$$
VeraChem MOL file


 23 22  0  0  0  0  0  0  0  0999 V2000     
   21.2240   15.7034   21.2911 N   0  3  0  0  0  0  0  0  0  0  0  0
   21.9588   16.1227   20.7122 H   0  0  0  0  0  0  0  0  0  0  0  0
   20.9205   14.8479   20.8136 H   0  0  0  0  0  0  0  0  0  0  0  0
   21.6621   15.4136   22.1714 H   0  0  0  0  0  0  0  0  0  0  0  0
   20.0707   16.6590   21.5209 C   0  0  0  0  0  0  0  0  0  0  0  0
   19.3154   16.1392   22.1166 H   0  0  0  0  0  0  0  0  0  0  0  0
   19.6343   16.9013   20.5481 H   0  0  0  0  0  0  0  0  0  0  0  0
   20.4933   17.9544   22.2363 C   0  0  0  0  0  0  0  0  0  0  0  0
   20.9458   17.7052   23.2055 H   0  0  0  0  0  0  0  0  0  0  0  0
   21.2636   18.4645   21.6426 H   0  0  0  0  0  0  0  0  0  0  0  0
   19.2908   18.8999   22.4512 C   0  0  0  0  0  0  0  0  0  0  0  0
   18.5202   18.3840   23.0410 H   0  0  0  0  0  0  0  0  0  0  0  0
   18.8378   19.1426   21.4798 H   0  0  0  0  0  0  0  0  0  0  0  0
   19.7040   20.2047   23.1693 C   0  0  0  0  0  0  0  0  0  0  0  0
   20.1569   19.9622   24.1407 H   0  0  0  0  0  0  0  0  0  0  0  0
   20.4745   20.7207   22.5797 H   0  0  0  0  0  0  0  0  0  0  0  0
   18.5012   21.1501   23.3839 C   0  0  0  0  0  0  0  0  0  0  0  0
   17.7285   20.6393   23.9754 H   0  0  0  0  0  0  0  0  0  0  0  0
   18.0461   21.3977   22.4146 H   0  0  0  0  0  0  0  0  0  0  0  0
   18.9177   22.4519   24.1012 C   0  0  0  0  0  0  0  0  0  0  0  0
   18.0508   23.1099   24.2445 H   0  0  0  0  0  0  0  0  0  0  0  0
   19.6657   23.0029   23.5164 H   0  0  0  0  0  0  0  0  0  0  0  0
   19.3456   22.2386   25.0894 H   0  0  0  0  0  0  0  0  0  0  0  0
  1  2  1  0  0  0  0
  1  3  1  0  0  0  0
  1  4  1  0  0  0  0
  1  5  1  0  0  0  0
  5  6  1  0  0  0  0
  5  7  1  0  0  0  0
  5  8  1  0  0  0  0
  8  9  1  0  0  0  0
  8 10  1  0  0  0  0
  8 11  1  0  0  0  0
 11 12  1  0  0  0  0
 11 13  1  0  0  0  0
 11 14  1  0  0  0  0
 14 15  1  0  0  0  0
 14 16  1  0  0  0  0
 14 17  1  0  0  0  0
 17 18  1  0  0  0  0
 17 19  1  0  0  0  0
 17 20  1  0  0  0  0
 20 21  1  0  0  0  0
 20 22  1  0  0  0  0
 20 23  1  0  0  0  0
M  END
> <VConfSearch Rank>
81

> <Conf_Id>
40

> <Delta U+W>
0.000

> <U+W>
-8.382

> <U>
46.604

> <W>
-54.986

> <W(PB)>
-57.162

> <W(SA)>
2.176

> <Valence>
1.727

> <Coulomb>
44.434

> <VdW>
0.443

> <VdW6>
-4.623

> <VdW12>
5.066

> <Bond>
0.112

> <Angle>
0.386

> <Pdih>
1.228

> <Idih>
0.000

> <Tether>
0.000

$$$$
VeraChem MOL file


 23 22  0  0  0  0  0  0  0  0999 V2000     
   22.7692   20.9095   23.0347 N   0  3  0  0  0  0  0  0  0  0  0  0
   23.5699   20.2819   23.1611 H   0  0  0  0  0  0  0  0  0  0  0  0
   22.5431   21.2990   23.9556 H   0  0  0  0  0  0  0  0  0  0  0  0
   23.0915   21.6897   22.4520 H   0  0  0  0  0  0  0  0  0  0  0  0
   21.5842   20.1965   22.4158 C   0  0  0  0  0  0  0  0  0  0  0  0
   21.8861   19.8337   21.4295 H   0  0  0  0  0  0  0  0  0  0  0  0
   20.7845   20.9296   22.2830 H   0  0  0  0  0  0  0  0  0  0  0  0
   21.0766   19.0180   23.2682 C   0  0  0  0  0  0  0  0  0  0  0  0
   21.9033   18.3141   23.4329 H   0  0  0  0  0  0  0  0  0  0  0  0
   20.7721   19.3820   24.2586 H   0  0  0  0  0  0  0  0  0  0  0  0
   19.8995   18.2621   22.6075 C   0  0  0  0  0  0  0  0  0  0  0  0
   19.6748   17.3771   23.2167 H   0  0  0  0  0  0  0  0  0  0  0  0
   20.2102   17.8908   21.6211 H   0  0  0  0  0  0  0  0  0  0  0  0
   18.6240   19.1307   22.4621 C   0  0  0  0  0  0  0  0  0  0  0  0
   18.3019   19.4845   23.4512 H   0  0  0  0  0  0  0  0  0  0  0  0
   18.8557   20.0281   21.8734 H   0  0  0  0  0  0  0  0  0  0  0  0
   17.4515   18.3924   21.7716 C   0  0  0  0  0  0  0  0  0  0  0  0
   17.7648   18.0452   20.7770 H   0  0  0  0  0  0  0  0  0  0  0  0
   16.6351   19.1087   21.6034 H   0  0  0  0  0  0  0  0  0  0  0  0
   16.9050   17.2008   22.5905 C   0  0  0  0  0  0  0  0  0  0  0  0
   17.6467   16.3975   22.6794 H   0  0  0  0  0  0  0  0  0  0  0  0
   16.0171   16.7762   22.1043 H   0  0  0  0  0  0  0  0  0  0  0  0
   16.6153   17.5158   23.6013 H   0  0  0  0  0  0  0  0  0  0  0  0
  1  2  1  0  0  0  0
  1  3  1  0  0  0  0
  1  4  1  0  0  0  0
  1  5  1  0  0  0  0
  5  6  1  0  0  0  0
  5  7  1  0  0  0  0
  5  8  1  0  0  0  0
  8  9  1  0  0  0  0
  8 10  1  0  0  0  0
  8 11  1  0  0  0  0
 11 12  1  0  0  0  0
 11 13  1  0  0  0  0
 11 14  1  0  0  0  0
 14 15  1  0  0  0  0
 14 16  1  0  0  0  0
 14 17  1  0  0  0  0
 17 18  1  0  0  0  0
 17 19  1  0  0  0  0
 17 20  1  0  0  0  0
 20 21  1  0  0  0  0
 20 22  1  0  0  0  0
 20 23  1  0  0  0  0
M  END
> <VConfSearch Rank>
82

> <Conf_Id>
65

> <Delta U+W>
1.004

> <U+W>
-7.378

> <U>
48.047

> <W>
-55.425

> <W(PB)>
-57.542

> <W(SA)>
2.116

> <Valence>
2.583

> <Coulomb>
44.791

> <VdW>
0.673

> <VdW6>
-5.788

> <VdW12>
6.462

> <Bond>
0.177

> <Angle>
0.787

> <Pdih>
1.619

> <Idih>
0.000

> <Tether>
0.000

$$$$
VeraChem MOL file


 23 22  0  0  0  0  0  0  0  0999 V2000     
   17.4795   16.5446   21.4228 N   0  3  0  0  0  0  0  0  0  0  0  0
   16.5186   16.7962   21.6761 H   0  0  0  0  0  0  0  0  0  0  0  0
   17.5611   15.5285   21.5362 H   0  0  0  0  0  0  0  0  0  0  0  0
   17.5894   16.7426   20.4230 H   0  0  0  0  0  0  0  0  0  0  0  0
   18.4987   17.2884   22.2618 C   0  0  0  0  0  0  0  0  0  0  0  0
   19.4927   16.9490   21.9597 H   0  0  0  0  0  0  0  0  0  0  0  0
   18.3427   17.0100   23.3075 H   0  0  0  0  0  0  0  0  0  0  0  0
   18.4013   18.8186   22.1131 C   0  0  0  0  0  0  0  0  0  0  0  0
   18.5590   19.0990   21.0631 H   0  0  0  0  0  0  0  0  0  0  0  0
   17.3839   19.1389   22.3742 H   0  0  0  0  0  0  0  0  0  0  0  0
   19.4099   19.5745   23.0103 C   0  0  0  0  0  0  0  0  0  0  0  0
   19.2432   19.2995   24.0610 H   0  0  0  0  0  0  0  0  0  0  0  0
   19.2001   20.6491   22.9326 H   0  0  0  0  0  0  0  0  0  0  0  0
   20.8870   19.3041   22.6263 C   0  0  0  0  0  0  0  0  0  0  0  0
   21.0894   18.2263   22.6804 H   0  0  0  0  0  0  0  0  0  0  0  0
   21.0582   19.5987   21.5817 H   0  0  0  0  0  0  0  0  0  0  0  0
   21.9038   20.0304   23.5401 C   0  0  0  0  0  0  0  0  0  0  0  0
   22.9165   19.6945   23.2762 H   0  0  0  0  0  0  0  0  0  0  0  0
   21.7441   19.7314   24.5855 H   0  0  0  0  0  0  0  0  0  0  0  0
   21.8464   21.5708   23.4249 C   0  0  0  0  0  0  0  0  0  0  0  0
   20.8947   21.9687   23.7978 H   0  0  0  0  0  0  0  0  0  0  0  0
   21.9706   21.8939   22.3831 H   0  0  0  0  0  0  0  0  0  0  0  0
   22.6492   22.0300   24.0162 H   0  0  0  0  0  0  0  0  0  0  0  0
  1  2  1  0  0  0  0
  1  3  1  0  0  0  0
  1  4  1  0  0  0  0
  1  5  1  0  0  0  0
  5  6  1  0  0  0  0
  5  7  1  0  0  0  0
  5  8  1  0  0  0  0
  8  9  1  0  0  0  0
  8 10  1  0  0  0  0
  8 11  1  0  0  0  0
 11 12  1  0  0  0  0
 11 13  1  0  0  0  0
 11 14  1  0  0  0  0
 14 15  1  0  0  0  0
 14 16  1  0  0  0  0
 14 17  1  0  0  0  0
 17 18  1  0  0  0  0
 17 19  1  0  0  0  0
 17 20  1  0  0  0  0
 20 21  1  0  0  0  0
 20 22  1  0  0  0  0
 20 23  1  0  0  0  0
M  END
> <VConfSearch Rank>
83

> <Conf_Id>
92

> <Delta U+W>
0.973

> <U+W>
-7.409

> <U>
48.047

> <W>
-55.456

> <W(PB)>
-57.595

> <W(SA)>
2.138

> <Valence>
2.583

> <Coulomb>
44.791

> <VdW>
0.674

> <VdW6>
-5.789

> <VdW12>
6.462

> <Bond>
0.177

> <Angle>
0.787

> <Pdih>
1.619

> <Idih>
0.000

> <Tether>
0.000

$$$$
VeraChem MOL file


 23 22  0  0  0  0  0  0  0  0999 V2000     
   20.4456   15.5921   21.8362 N   0  3  0  0  0  0  0  0  0  0  0  0
   21.3637   15.3073   21.4782 H   0  0  0  0  0  0  0  0  0  0  0  0
   19.7421   15.0967   21.2789 H   0  0  0  0  0  0  0  0  0  0  0  0
   20.3761   15.2360   22.7950 H   0  0  0  0  0  0  0  0  0  0  0  0
   20.2592   17.0945   21.7760 C   0  0  0  0  0  0  0  0  0  0  0  0
   20.3739   17.4075   20.7346 H   0  0  0  0  0  0  0  0  0  0  0  0
   21.0574   17.5551   22.3637 H   0  0  0  0  0  0  0  0  0  0  0  0
   18.8883   17.5543   22.3071 C   0  0  0  0  0  0  0  0  0  0  0  0
   18.0958   17.0505   21.7378 H   0  0  0  0  0  0  0  0  0  0  0  0
   18.7729   17.2392   23.3528 H   0  0  0  0  0  0  0  0  0  0  0  0
   18.6879   19.0845   22.2000 C   0  0  0  0  0  0  0  0  0  0  0  0
   17.6613   19.3275   22.5074 H   0  0  0  0  0  0  0  0  0  0  0  0
   18.7786   19.3931   21.1492 H   0  0  0  0  0  0  0  0  0  0  0  0
   19.6834   19.8904   23.0689 C   0  0  0  0  0  0  0  0  0  0  0  0
   19.6135   19.5561   24.1133 H   0  0  0  0  0  0  0  0  0  0  0  0
   20.7128   19.6946   22.7402 H   0  0  0  0  0  0  0  0  0  0  0  0
   19.4091   21.4091   22.9962 C   0  0  0  0  0  0  0  0  0  0  0  0
   18.3834   21.6179   23.3312 H   0  0  0  0  0  0  0  0  0  0  0  0
   19.4771   21.7489   21.9532 H   0  0  0  0  0  0  0  0  0  0  0  0
   20.4033   22.2120   23.8620 C   0  0  0  0  0  0  0  0  0  0  0  0
   20.3348   21.9176   24.9175 H   0  0  0  0  0  0  0  0  0  0  0  0
   20.1924   23.2873   23.7979 H   0  0  0  0  0  0  0  0  0  0  0  0
   21.4368   22.0510   23.5286 H   0  0  0  0  0  0  0  0  0  0  0  0
  1  2  1  0  0  0  0
  1  3  1  0  0  0  0
  1  4  1  0  0  0  0
  1  5  1  0  0  0  0
  5  6  1  0  0  0  0
  5  7  1  0  0  0  0
  5  8  1  0  0  0  0
  8  9  1  0  0  0  0
  8 10  1  0  0  0  0
  8 11  1  0  0  0  0
 11 12  1  0  0  0  0
 11 13  1  0  0  0  0
 11 14  1  0  0  0  0
 14 15  1  0  0  0  0
 14 16  1  0  0  0  0
 14 17  1  0  0  0  0
 17 18  1  0  0  0  0
 17 19  1  0  0  0  0
 17 20  1  0  0  0  0
 20 21  1  0  0  0  0
 20 22  1  0  0  0  0
 20 23  1  0  0  0  0
M  END
> <VConfSearch Rank>
84

> <Conf_Id>
42

> <Delta U+W>
0.365

> <U+W>
-8.017

> <U>
47.375

> <W>
-55.392

> <W(PB)>
-57.543

> <W(SA)>
2.152

> <Valence>
2.032

> <Coulomb>
44.843

> <VdW>
0.499

> <VdW6>
-5.218

> <VdW12>
5.717

> <Bond>
0.135

> <Angle>
0.514

> <Pdih>
1.383

> <Idih>
0.000

> <Tether>
0.000

$$$$
VeraChem MOL file


 23 22  0  0  0  0  0  0  0  0999 V2000     
   21.4055   21.6980   22.7465 N   0  3  0  0  0  0  0  0  0  0  0  0
   21.9680   21.4631   21.9225 H   0  0  0  0  0  0  0  0  0  0  0  0
   21.8899   22.4609   23.2315 H   0  0  0  0  0  0  0  0  0  0  0  0
   20.5157   22.0763   22.4080 H   0  0  0  0  0  0  0  0  0  0  0  0
   21.2005   20.4975   23.6501 C   0  0  0  0  0  0  0  0  0  0  0  0
   20.6168   20.8196   24.5167 H   0  0  0  0  0  0  0  0  0  0  0  0
   22.1850   20.1781   24.0026 H   0  0  0  0  0  0  0  0  0  0  0  0
   20.4966   19.3117   22.9617 C   0  0  0  0  0  0  0  0  0  0  0  0
   21.0701   19.0079   22.0760 H   0  0  0  0  0  0  0  0  0  0  0  0
   20.5097   18.4643   23.6581 H   0  0  0  0  0  0  0  0  0  0  0  0
   19.0340   19.6310   22.5672 C   0  0  0  0  0  0  0  0  0  0  0  0
   19.0114   20.5417   21.9545 H   0  0  0  0  0  0  0  0  0  0  0  0
   18.4542   19.8576   23.4727 H   0  0  0  0  0  0  0  0  0  0  0  0
   18.3259   18.5039   21.7715 C   0  0  0  0  0  0  0  0  0  0  0  0
   17.3201   18.8638   21.5139 H   0  0  0  0  0  0  0  0  0  0  0  0
   18.8357   18.3416   20.8118 H   0  0  0  0  0  0  0  0  0  0  0  0
   18.1766   17.1615   22.5333 C   0  0  0  0  0  0  0  0  0  0  0  0
   17.2149   16.7070   22.2564 H   0  0  0  0  0  0  0  0  0  0  0  0
   18.1249   17.3401   23.6163 H   0  0  0  0  0  0  0  0  0  0  0  0
   19.2949   16.1437   22.2082 C   0  0  0  0  0  0  0  0  0  0  0  0
   19.3047   15.9016   21.1375 H   0  0  0  0  0  0  0  0  0  0  0  0
   19.1343   15.2080   22.7591 H   0  0  0  0  0  0  0  0  0  0  0  0
   20.2877   16.5209   22.4770 H   0  0  0  0  0  0  0  0  0  0  0  0
  1  2  1  0  0  0  0
  1  3  1  0  0  0  0
  1  4  1  0  0  0  0
  1  5  1  0  0  0  0
  5  6  1  0  0  0  0
  5  7  1  0  0  0  0
  5  8  1  0  0  0  0
  8  9  1  0  0  0  0
  8 10  1  0  0  0  0
  8 11  1  0  0  0  0
 11 12  1  0  0  0  0
 11 13  1  0  0  0  0
 11 14  1  0  0  0  0
 14 15  1  0  0  0  0
 14 16  1  0  0  0  0
 14 17  1  0  0  0  0
 17 18  1  0  0  0  0
 17 19  1  0  0  0  0
 17 20  1  0  0  0  0
 20 21  1  0  0  0  0
 20 22  1  0  0  0  0
 20 23  1  0  0  0  0
M  END
> <VConfSearch Rank>
85

> <Conf_Id>
3

> <Delta U+W>
3.283

> <U+W>
-5.099

> <U>
50.701

> <W>
-55.800

> <W(PB)>
-57.867

> <W(SA)>
2.067

> <Valence>
4.880

> <Coulomb>
45.095

> <VdW>
0.726

> <VdW6>
-6.620

> <VdW12>
7.346

> <Bond>
0.222

> <Angle>
1.260

> <Pdih>
3.398

> <Idih>
0.000

> <Tether>
0.000

$$$$
VeraChem MOL file


 23 22  0  0  0  0  0  0  0  0999 V2000     
   21.7517   18.7458   20.4526 N   0  3  0  0  0  0  0  0  0  0  0  0
   22.6918   18.5167   20.7906 H   0  0  0  0  0  0  0  0  0  0  0  0
   21.7946   18.7493   19.4279 H   0  0  0  0  0  0  0  0  0  0  0  0
   21.1349   17.9746   20.7253 H   0  0  0  0  0  0  0  0  0  0  0  0
   21.2642   20.0726   21.0006 C   0  0  0  0  0  0  0  0  0  0  0  0
   20.2753   20.2708   20.5795 H   0  0  0  0  0  0  0  0  0  0  0  0
   21.9454   20.8501   20.6441 H   0  0  0  0  0  0  0  0  0  0  0  0
   21.1961   20.1200   22.5408 C   0  0  0  0  0  0  0  0  0  0  0  0
   22.2048   19.9708   22.9482 H   0  0  0  0  0  0  0  0  0  0  0  0
   20.8884   21.1281   22.8490 H   0  0  0  0  0  0  0  0  0  0  0  0
   20.2334   19.0790   23.1663 C   0  0  0  0  0  0  0  0  0  0  0  0
   20.2942   19.1731   24.2582 H   0  0  0  0  0  0  0  0  0  0  0  0
   20.5748   18.0630   22.9276 H   0  0  0  0  0  0  0  0  0  0  0  0
   18.7623   19.2584   22.7121 C   0  0  0  0  0  0  0  0  0  0  0  0
   18.4135   20.2662   22.9765 H   0  0  0  0  0  0  0  0  0  0  0  0
   18.7040   19.1887   21.6180 H   0  0  0  0  0  0  0  0  0  0  0  0
   17.7995   18.2052   23.3123 C   0  0  0  0  0  0  0  0  0  0  0  0
   18.1374   17.1951   23.0418 H   0  0  0  0  0  0  0  0  0  0  0  0
   16.8096   18.3311   22.8519 H   0  0  0  0  0  0  0  0  0  0  0  0
   17.6496   18.3101   24.8472 C   0  0  0  0  0  0  0  0  0  0  0  0
   17.3444   19.3213   25.1461 H   0  0  0  0  0  0  0  0  0  0  0  0
   18.5869   18.0669   25.3624 H   0  0  0  0  0  0  0  0  0  0  0  0
   16.8852   17.6092   25.2069 H   0  0  0  0  0  0  0  0  0  0  0  0
  1  2  1  0  0  0  0
  1  3  1  0  0  0  0
  1  4  1  0  0  0  0
  1  5  1  0  0  0  0
  5  6  1  0  0  0  0
  5  7  1  0  0  0  0
  5  8  1  0  0  0  0
  8  9  1  0  0  0  0
  8 10  1  0  0  0  0
  8 11  1  0  0  0  0
 11 12  1  0  0  0  0
 11 13  1  0  0  0  0
 11 14  1  0  0  0  0
 14 15  1  0  0  0  0
 14 16  1  0  0  0  0
 14 17  1  0  0  0  0
 17 18  1  0  0  0  0
 17 19  1  0  0  0  0
 17 20  1  0  0  0  0
 20 21  1  0  0  0  0
 20 22  1  0  0  0  0
 20 23  1  0  0  0  0
M  END
> <VConfSearch Rank>
86

> <Conf_Id>
83

> <Delta U+W>
1.229

> <U+W>
-7.154

> <U>
48.727

> <W>
-55.880

> <W(PB)>
-57.960

> <W(SA)>
2.080

> <Valence>
2.671

> <Coulomb>
45.371

> <VdW>
0.684

> <VdW6>
-6.511

> <VdW12>
7.195

> <Bond>
0.203

> <Angle>
0.915

> <Pdih>
1.554

> <Idih>
0.000

> <Tether>
0.000

$$$$
VeraChem MOL file


 23 22  0  0  0  0  0  0  0  0999 V2000     
   19.0495   19.2407   19.7559 N   0  3  0  0  0  0  0  0  0  0  0  0
   18.7216   20.1722   19.4813 H   0  0  0  0  0  0  0  0  0  0  0  0
   18.3761   18.8695   20.4329 H   0  0  0  0  0  0  0  0  0  0  0  0
   18.9964   18.6467   18.9215 H   0  0  0  0  0  0  0  0  0  0  0  0
   20.4526   19.2839   20.3284 C   0  0  0  0  0  0  0  0  0  0  0  0
   21.1199   19.6549   19.5458 H   0  0  0  0  0  0  0  0  0  0  0  0
   20.7517   18.2609   20.5706 H   0  0  0  0  0  0  0  0  0  0  0  0
   20.5850   20.1776   21.5786 C   0  0  0  0  0  0  0  0  0  0  0  0
   21.6377   20.1932   21.8906 H   0  0  0  0  0  0  0  0  0  0  0  0
   20.3313   21.2111   21.3080 H   0  0  0  0  0  0  0  0  0  0  0  0
   19.7050   19.7319   22.7740 C   0  0  0  0  0  0  0  0  0  0  0  0
   18.6437   19.7850   22.4974 H   0  0  0  0  0  0  0  0  0  0  0  0
   19.8452   20.4555   23.5874 H   0  0  0  0  0  0  0  0  0  0  0  0
   20.0439   18.3078   23.2834 C   0  0  0  0  0  0  0  0  0  0  0  0
   19.9274   17.5865   22.4639 H   0  0  0  0  0  0  0  0  0  0  0  0
   21.0993   18.2641   23.5857 H   0  0  0  0  0  0  0  0  0  0  0  0
   19.1505   17.8457   24.4601 C   0  0  0  0  0  0  0  0  0  0  0  0
   19.3758   16.7928   24.6802 H   0  0  0  0  0  0  0  0  0  0  0  0
   18.0938   17.8770   24.1599 H   0  0  0  0  0  0  0  0  0  0  0  0
   19.3500   18.6754   25.7490 C   0  0  0  0  0  0  0  0  0  0  0  0
   20.4050   18.6872   26.0519 H   0  0  0  0  0  0  0  0  0  0  0  0
   18.7687   18.2463   26.5754 H   0  0  0  0  0  0  0  0  0  0  0  0
   19.0178   19.7125   25.6174 H   0  0  0  0  0  0  0  0  0  0  0  0
  1  2  1  0  0  0  0
  1  3  1  0  0  0  0
  1  4  1  0  0  0  0
  1  5  1  0  0  0  0
  5  6  1  0  0  0  0
  5  7  1  0  0  0  0
  5  8  1  0  0  0  0
  8  9  1  0  0  0  0
  8 10  1  0  0  0  0
  8 11  1  0  0  0  0
 11 12  1  0  0  0  0
 11 13  1  0  0  0  0
 11 14  1  0  0  0  0
 14 15  1  0  0  0  0
 14 16  1  0  0  0  0
 14 17  1  0  0  0  0
 17 18  1  0  0  0  0
 17 19  1  0  0  0  0
 17 20  1  0  0  0  0
 20 21  1  0  0  0  0
 20 22  1  0  0  0  0
 20 23  1  0  0  0  0
M  END
> <VConfSearch Rank>
87

> <Conf_Id>
50

> <Delta U+W>
1.252

> <U+W>
-7.130

> <U>
48.727

> <W>
-55.857

> <W(PB)>
-57.937

> <W(SA)>
2.080

> <Valence>
2.671

> <Coulomb>
45.371

> <VdW>
0.684

> <VdW6>
-6.511

> <VdW12>
7.196

> <Bond>
0.203

> <Angle>
0.915

> <Pdih>
1.554

> <Idih>
0.000

> <Tether>
0.000

$$$$
VeraChem MOL file


 23 22  0  0  0  0  0  0  0  0999 V2000     
   22.5019   18.3951   24.1650 N   0  3  0  0  0  0  0  0  0  0  0  0
   22.4899   19.4194   24.1627 H   0  0  0  0  0  0  0  0  0  0  0  0
   23.4831   18.1068   24.0873 H   0  0  0  0  0  0  0  0  0  0  0  0
   22.1730   18.0900   25.0867 H   0  0  0  0  0  0  0  0  0  0  0  0
   21.6560   17.8197   23.0457 C   0  0  0  0  0  0  0  0  0  0  0  0
   21.7498   16.7311   23.0857 H   0  0  0  0  0  0  0  0  0  0  0  0
   22.0728   18.1626   22.0948 H   0  0  0  0  0  0  0  0  0  0  0  0
   20.1668   18.2072   23.1287 C   0  0  0  0  0  0  0  0  0  0  0  0
   19.6262   17.6589   22.3491 H   0  0  0  0  0  0  0  0  0  0  0  0
   19.7544   17.8655   24.0872 H   0  0  0  0  0  0  0  0  0  0  0  0
   19.9368   19.7319   22.9702 C   0  0  0  0  0  0  0  0  0  0  0  0
   20.4288   20.1004   22.0594 H   0  0  0  0  0  0  0  0  0  0  0  0
   20.4236   20.2470   23.8091 H   0  0  0  0  0  0  0  0  0  0  0  0
   18.4377   20.1304   22.9627 C   0  0  0  0  0  0  0  0  0  0  0  0
   17.8505   19.4186   23.5589 H   0  0  0  0  0  0  0  0  0  0  0  0
   18.3381   21.0975   23.4748 H   0  0  0  0  0  0  0  0  0  0  0  0
   17.8152   20.2850   21.5514 C   0  0  0  0  0  0  0  0  0  0  0  0
   18.3466   21.0723   20.9987 H   0  0  0  0  0  0  0  0  0  0  0  0
   16.7806   20.6383   21.6637 H   0  0  0  0  0  0  0  0  0  0  0  0
   17.8068   18.9878   20.7133 C   0  0  0  0  0  0  0  0  0  0  0  0
   17.3335   18.1640   21.2629 H   0  0  0  0  0  0  0  0  0  0  0  0
   18.8243   18.6854   20.4365 H   0  0  0  0  0  0  0  0  0  0  0  0
   17.2449   19.1366   19.7822 H   0  0  0  0  0  0  0  0  0  0  0  0
  1  2  1  0  0  0  0
  1  3  1  0  0  0  0
  1  4  1  0  0  0  0
  1  5  1  0  0  0  0
  5  6  1  0  0  0  0
  5  7  1  0  0  0  0
  5  8  1  0  0  0  0
  8  9  1  0  0  0  0
  8 10  1  0  0  0  0
  8 11  1  0  0  0  0
 11 12  1  0  0  0  0
 11 13  1  0  0  0  0
 11 14  1  0  0  0  0
 14 15  1  0  0  0  0
 14 16  1  0  0  0  0
 14 17  1  0  0  0  0
 17 18  1  0  0  0  0
 17 19  1  0  0  0  0
 17 20  1  0  0  0  0
 20 21  1  0  0  0  0
 20 22  1  0  0  0  0
 20 23  1  0  0  0  0
M  END
> <VConfSearch Rank>
88

> <Conf_Id>
55

> <Delta U+W>
3.232

> <U+W>
-5.150

> <U>
50.625

> <W>
-55.776

> <W(PB)>
-57.839

> <W(SA)>
2.064

> <Valence>
4.837

> <Coulomb>
45.097

> <VdW>
0.692

> <VdW6>
-6.655

> <VdW12>
7.347

> <Bond>
0.223

> <Angle>
1.167

> <Pdih>
3.447

> <Idih>
0.000

> <Tether>
0.000

$$$$
VeraChem MOL file


 23 22  0  0  0  0  0  0  0  0999 V2000     
   22.4448   18.7473   20.8683 N   0  3  0  0  0  0  0  0  0  0  0  0
   22.6116   19.3265   20.0391 H   0  0  0  0  0  0  0  0  0  0  0  0
   22.8481   17.8247   20.6730 H   0  0  0  0  0  0  0  0  0  0  0  0
   22.9897   19.1548   21.6350 H   0  0  0  0  0  0  0  0  0  0  0  0
   20.9708   18.6573   21.2074 C   0  0  0  0  0  0  0  0  0  0  0  0
   20.8674   18.0000   22.0726 H   0  0  0  0  0  0  0  0  0  0  0  0
   20.4594   18.1900   20.3615 H   0  0  0  0  0  0  0  0  0  0  0  0
   20.3348   20.0307   21.4992 C   0  0  0  0  0  0  0  0  0  0  0  0
   20.8683   20.5329   22.3172 H   0  0  0  0  0  0  0  0  0  0  0  0
   20.4657   20.6620   20.6102 H   0  0  0  0  0  0  0  0  0  0  0  0
   18.8220   19.9439   21.8236 C   0  0  0  0  0  0  0  0  0  0  0  0
   18.3465   19.1753   21.1985 H   0  0  0  0  0  0  0  0  0  0  0  0
   18.3550   20.8947   21.5313 H   0  0  0  0  0  0  0  0  0  0  0  0
   18.4861   19.6987   23.3177 C   0  0  0  0  0  0  0  0  0  0  0  0
   18.8774   20.5290   23.9218 H   0  0  0  0  0  0  0  0  0  0  0  0
   17.3936   19.7284   23.4314 H   0  0  0  0  0  0  0  0  0  0  0  0
   19.0119   18.3600   23.8849 C   0  0  0  0  0  0  0  0  0  0  0  0
   20.1088   18.3757   23.9244 H   0  0  0  0  0  0  0  0  0  0  0  0
   18.7209   17.5330   23.2222 H   0  0  0  0  0  0  0  0  0  0  0  0
   18.4711   18.0920   25.3056 C   0  0  0  0  0  0  0  0  0  0  0  0
   17.3751   18.0290   25.3062 H   0  0  0  0  0  0  0  0  0  0  0  0
   18.7681   18.8907   25.9979 H   0  0  0  0  0  0  0  0  0  0  0  0
   18.8626   17.1441   25.6969 H   0  0  0  0  0  0  0  0  0  0  0  0
  1  2  1  0  0  0  0
  1  3  1  0  0  0  0
  1  4  1  0  0  0  0
  1  5  1  0  0  0  0
  5  6  1  0  0  0  0
  5  7  1  0  0  0  0
  5  8  1  0  0  0  0
  8  9  1  0  0  0  0
  8 10  1  0  0  0  0
  8 11  1  0  0  0  0
 11 12  1  0  0  0  0
 11 13  1  0  0  0  0
 11 14  1  0  0  0  0
 14 15  1  0  0  0  0
 14 16  1  0  0  0  0
 14 17  1  0  0  0  0
 17 18  1  0  0  0  0
 17 19  1  0  0  0  0
 17 20  1  0  0  0  0
 20 21  1  0  0  0  0
 20 22  1  0  0  0  0
 20 23  1  0  0  0  0
M  END
> <VConfSearch Rank>
89

> <Conf_Id>
93

> <Delta U+W>
2.589

> <U+W>
-5.793

> <U>
50.122

> <W>
-55.915

> <W(PB)>
-58.031

> <W(SA)>
2.115

> <Valence>
4.132

> <Coulomb>
45.536

> <VdW>
0.454

> <VdW6>
-6.262

> <VdW12>
6.715

> <Bond>
0.182

> <Angle>
1.157

> <Pdih>
2.794

> <Idih>
0.000

> <Tether>
0.000

$$$$
VeraChem MOL file


 23 22  0  0  0  0  0  0  0  0999 V2000     
   22.5525   20.1098   23.2569 N   0  3  0  0  0  0  0  0  0  0  0  0
   22.9162   19.1529   23.3108 H   0  0  0  0  0  0  0  0  0  0  0  0
   22.7409   20.5520   24.1630 H   0  0  0  0  0  0  0  0  0  0  0  0
   23.1161   20.6075   22.5601 H   0  0  0  0  0  0  0  0  0  0  0  0
   21.0770   20.1358   22.9134 C   0  0  0  0  0  0  0  0  0  0  0  0
   20.7532   21.1800   22.9017 H   0  0  0  0  0  0  0  0  0  0  0  0
   20.5396   19.6221   23.7125 H   0  0  0  0  0  0  0  0  0  0  0  0
   20.7638   19.4839   21.5523 C   0  0  0  0  0  0  0  0  0  0  0  0
   21.3269   20.0234   20.7790 H   0  0  0  0  0  0  0  0  0  0  0  0
   21.1257   18.4473   21.5326 H   0  0  0  0  0  0  0  0  0  0  0  0
   19.2583   19.5299   21.1878 C   0  0  0  0  0  0  0  0  0  0  0  0
   19.1721   19.5308   20.0924 H   0  0  0  0  0  0  0  0  0  0  0  0
   18.8194   20.4807   21.5209 H   0  0  0  0  0  0  0  0  0  0  0  0
   18.4193   18.3395   21.7212 C   0  0  0  0  0  0  0  0  0  0  0  0
   17.3940   18.4470   21.3409 H   0  0  0  0  0  0  0  0  0  0  0  0
   18.8040   17.4016   21.2974 H   0  0  0  0  0  0  0  0  0  0  0  0
   18.3718   18.2242   23.2622 C   0  0  0  0  0  0  0  0  0  0  0  0
   18.0978   19.1935   23.7016 H   0  0  0  0  0  0  0  0  0  0  0  0
   19.3649   17.9602   23.6482 H   0  0  0  0  0  0  0  0  0  0  0  0
   17.3627   17.1503   23.7218 C   0  0  0  0  0  0  0  0  0  0  0  0
   17.3497   17.0740   24.8168 H   0  0  0  0  0  0  0  0  0  0  0  0
   17.6254   16.1637   23.3184 H   0  0  0  0  0  0  0  0  0  0  0  0
   16.3454   17.3957   23.3899 H   0  0  0  0  0  0  0  0  0  0  0  0
  1  2  1  0  0  0  0
  1  3  1  0  0  0  0
  1  4  1  0  0  0  0
  1  5  1  0  0  0  0
  5  6  1  0  0  0  0
  5  7  1  0  0  0  0
  5  8  1  0  0  0  0
  8  9  1  0  0  0  0
  8 10  1  0  0  0  0
  8 11  1  0  0  0  0
 11 12  1  0  0  0  0
 11 13  1  0  0  0  0
 11 14  1  0  0  0  0
 14 15  1  0  0  0  0
 14 16  1  0  0  0  0
 14 17  1  0  0  0  0
 17 18  1  0  0  0  0
 17 19  1  0  0  0  0
 17 20  1  0  0  0  0
 20 21  1  0  0  0  0
 20 22  1  0  0  0  0
 20 23  1  0  0  0  0
M  END
> <VConfSearch Rank>
90

> <Conf_Id>
70

> <Delta U+W>
2.599

> <U+W>
-5.783

> <U>
50.122

> <W>
-55.906

> <W(PB)>
-58.010

> <W(SA)>
2.105

> <Valence>
4.132

> <Coulomb>
45.536

> <VdW>
0.454

> <VdW6>
-6.262

> <VdW12>
6.715

> <Bond>
0.182

> <Angle>
1.157

> <Pdih>
2.794

> <Idih>
0.000

> <Tether>
0.000

$$$$
VeraChem MOL file


 23 22  0  0  0  0  0  0  0  0999 V2000     
   21.2425   17.7781   24.7269 N   0  3  0  0  0  0  0  0  0  0  0  0
   21.2981   18.1592   25.6767 H   0  0  0  0  0  0  0  0  0  0  0  0
   21.9447   17.0336   24.6615 H   0  0  0  0  0  0  0  0  0  0  0  0
   20.3237   17.3350   24.6316 H   0  0  0  0  0  0  0  0  0  0  0  0
   21.4580   18.8502   23.6769 C   0  0  0  0  0  0  0  0  0  0  0  0
   21.4201   18.3748   22.6933 H   0  0  0  0  0  0  0  0  0  0  0  0
   22.4625   19.2580   23.8186 H   0  0  0  0  0  0  0  0  0  0  0  0
   20.4265   19.9946   23.7416 C   0  0  0  0  0  0  0  0  0  0  0  0
   20.4973   20.4867   24.7206 H   0  0  0  0  0  0  0  0  0  0  0  0
   20.6988   20.7591   23.0028 H   0  0  0  0  0  0  0  0  0  0  0  0
   18.9627   19.5380   23.5054 C   0  0  0  0  0  0  0  0  0  0  0  0
   18.3085   20.4203   23.5295 H   0  0  0  0  0  0  0  0  0  0  0  0
   18.6404   18.9072   24.3447 H   0  0  0  0  0  0  0  0  0  0  0  0
   18.7246   18.7679   22.1806 C   0  0  0  0  0  0  0  0  0  0  0  0
   19.3002   17.8327   22.1794 H   0  0  0  0  0  0  0  0  0  0  0  0
   17.6672   18.4721   22.1374 H   0  0  0  0  0  0  0  0  0  0  0  0
   19.0672   19.5916   20.9169 C   0  0  0  0  0  0  0  0  0  0  0  0
   20.1372   19.8381   20.9039 H   0  0  0  0  0  0  0  0  0  0  0  0
   18.5206   20.5448   20.9359 H   0  0  0  0  0  0  0  0  0  0  0  0
   18.7145   18.8247   19.6246 C   0  0  0  0  0  0  0  0  0  0  0  0
   18.9661   19.4219   18.7386 H   0  0  0  0  0  0  0  0  0  0  0  0
   17.6419   18.5947   19.5819 H   0  0  0  0  0  0  0  0  0  0  0  0
   19.2696   17.8796   19.5628 H   0  0  0  0  0  0  0  0  0  0  0  0
  1  2  1  0  0  0  0
  1  3  1  0  0  0  0
  1  4  1  0  0  0  0
  1  5  1  0  0  0  0
  5  6  1  0  0  0  0
  5  7  1  0  0  0  0
  5  8  1  0  0  0  0
  8  9  1  0  0  0  0
  8 10  1  0  0  0  0
  8 11  1  0  0  0  0
 11 12  1  0  0  0  0
 11 13  1  0  0  0  0
 11 14  1  0  0  0  0
 14 15  1  0  0  0  0
 14 16  1  0  0  0  0
 14 17  1  0  0  0  0
 17 18  1  0  0  0  0
 17 19  1  0  0  0  0
 17 20  1  0  0  0  0
 20 21  1  0  0  0  0
 20 22  1  0  0  0  0
 20 23  1  0  0  0  0
M  END
> <VConfSearch Rank>
91

> <Conf_Id>
72

> <Delta U+W>
1.051

> <U+W>
-7.331

> <U>
48.590

> <W>
-55.922

> <W(PB)>
-58.012

> <W(SA)>
2.090

> <Valence>
2.601

> <Coulomb>
45.520

> <VdW>
0.469

> <VdW6>
-6.867

> <VdW12>
7.336

> <Bond>
0.205

> <Angle>
0.962

> <Pdih>
1.434

> <Idih>
0.000

> <Tether>
0.000

$$$$
VeraChem MOL file


 23 22  0  0  0  0  0  0  0  0999 V2000     
   19.4716   15.9516   21.8015 N   0  3  0  0  0  0  0  0  0  0  0  0
   20.1089   15.1641   21.9618 H   0  0  0  0  0  0  0  0  0  0  0  0
   19.0143   15.7854   20.8992 H   0  0  0  0  0  0  0  0  0  0  0  0
   18.7448   15.8985   22.5223 H   0  0  0  0  0  0  0  0  0  0  0  0
   20.2001   17.2798   21.8293 C   0  0  0  0  0  0  0  0  0  0  0  0
   20.9754   17.2564   21.0588 H   0  0  0  0  0  0  0  0  0  0  0  0
   20.6860   17.3761   22.8038 H   0  0  0  0  0  0  0  0  0  0  0  0
   19.2699   18.4840   21.5917 C   0  0  0  0  0  0  0  0  0  0  0  0
   18.7591   18.3587   20.6279 H   0  0  0  0  0  0  0  0  0  0  0  0
   18.4835   18.5011   22.3571 H   0  0  0  0  0  0  0  0  0  0  0  0
   20.0299   19.8336   21.5829 C   0  0  0  0  0  0  0  0  0  0  0  0
   19.3171   20.6458   21.3874 H   0  0  0  0  0  0  0  0  0  0  0  0
   20.7278   19.8421   20.7342 H   0  0  0  0  0  0  0  0  0  0  0  0
   20.8250   20.1422   22.8803 C   0  0  0  0  0  0  0  0  0  0  0  0
   21.6460   19.4202   22.9855 H   0  0  0  0  0  0  0  0  0  0  0  0
   21.3076   21.1231   22.7707 H   0  0  0  0  0  0  0  0  0  0  0  0
   19.9863   20.1409   24.1837 C   0  0  0  0  0  0  0  0  0  0  0  0
   20.6536   20.3571   25.0296 H   0  0  0  0  0  0  0  0  0  0  0  0
   19.5780   19.1389   24.3718 H   0  0  0  0  0  0  0  0  0  0  0  0
   18.8408   21.1783   24.1764 C   0  0  0  0  0  0  0  0  0  0  0  0
   19.2239   22.1875   23.9774 H   0  0  0  0  0  0  0  0  0  0  0  0
   18.3330   21.1976   25.1493 H   0  0  0  0  0  0  0  0  0  0  0  0
   18.0874   20.9404   23.4151 H   0  0  0  0  0  0  0  0  0  0  0  0
  1  2  1  0  0  0  0
  1  3  1  0  0  0  0
  1  4  1  0  0  0  0
  1  5  1  0  0  0  0
  5  6  1  0  0  0  0
  5  7  1  0  0  0  0
  5  8  1  0  0  0  0
  8  9  1  0  0  0  0
  8 10  1  0  0  0  0
  8 11  1  0  0  0  0
 11 12  1  0  0  0  0
 11 13  1  0  0  0  0
 11 14  1  0  0  0  0
 14 15  1  0  0  0  0
 14 16  1  0  0  0  0
 14 17  1  0  0  0  0
 17 18  1  0  0  0  0
 17 19  1  0  0  0  0
 17 20  1  0  0  0  0
 20 21  1  0  0  0  0
 20 22  1  0  0  0  0
 20 23  1  0  0  0  0
M  END
> <VConfSearch Rank>
92

> <Conf_Id>
26

> <Delta U+W>
1.076

> <U+W>
-7.306

> <U>
48.641

> <W>
-55.947

> <W(PB)>
-58.031

> <W(SA)>
2.084

> <Valence>
2.922

> <Coulomb>
45.269

> <VdW>
0.449

> <VdW6>
-7.045

> <VdW12>
7.494

> <Bond>
0.220

> <Angle>
1.205

> <Pdih>
1.497

> <Idih>
0.000

> <Tether>
0.000

$$$$
VeraChem MOL file


 23 22  0  0  0  0  0  0  0  0999 V2000     
   17.4967   19.6458   20.6117 N   0  3  0  0  0  0  0  0  0  0  0  0
   17.1685   18.8513   20.0532 H   0  0  0  0  0  0  0  0  0  0  0  0
   17.3236   20.4912   20.0574 H   0  0  0  0  0  0  0  0  0  0  0  0
   16.8937   19.7028   21.4386 H   0  0  0  0  0  0  0  0  0  0  0  0
   18.9584   19.5077   20.9859 C   0  0  0  0  0  0  0  0  0  0  0  0
   19.2462   20.3984   21.5504 H   0  0  0  0  0  0  0  0  0  0  0  0
   19.5428   19.4817   20.0622 H   0  0  0  0  0  0  0  0  0  0  0  0
   19.2520   18.2468   21.8200 C   0  0  0  0  0  0  0  0  0  0  0  0
   18.6560   18.2654   22.7414 H   0  0  0  0  0  0  0  0  0  0  0  0
   18.9250   17.3610   21.2594 H   0  0  0  0  0  0  0  0  0  0  0  0
   20.7545   18.0941   22.1639 C   0  0  0  0  0  0  0  0  0  0  0  0
   21.3194   17.9557   21.2317 H   0  0  0  0  0  0  0  0  0  0  0  0
   20.8993   17.1689   22.7374 H   0  0  0  0  0  0  0  0  0  0  0  0
   21.3693   19.2887   22.9422 C   0  0  0  0  0  0  0  0  0  0  0  0
   22.4262   19.0678   23.1455 H   0  0  0  0  0  0  0  0  0  0  0  0
   21.3730   20.1796   22.2999 H   0  0  0  0  0  0  0  0  0  0  0  0
   20.6658   19.6372   24.2786 C   0  0  0  0  0  0  0  0  0  0  0  0
   19.6343   19.9641   24.0909 H   0  0  0  0  0  0  0  0  0  0  0  0
   21.1771   20.4994   24.7289 H   0  0  0  0  0  0  0  0  0  0  0  0
   20.6674   18.4721   25.2940 C   0  0  0  0  0  0  0  0  0  0  0  0
   20.0734   17.6232   24.9333 H   0  0  0  0  0  0  0  0  0  0  0  0
   20.2361   18.7948   26.2504 H   0  0  0  0  0  0  0  0  0  0  0  0
   21.6886   18.1195   25.4880 H   0  0  0  0  0  0  0  0  0  0  0  0
  1  2  1  0  0  0  0
  1  3  1  0  0  0  0
  1  4  1  0  0  0  0
  1  5  1  0  0  0  0
  5  6  1  0  0  0  0
  5  7  1  0  0  0  0
  5  8  1  0  0  0  0
  8  9  1  0  0  0  0
  8 10  1  0  0  0  0
  8 11  1  0  0  0  0
 11 12  1  0  0  0  0
 11 13  1  0  0  0  0
 11 14  1  0  0  0  0
 14 15  1  0  0  0  0
 14 16  1  0  0  0  0
 14 17  1  0  0  0  0
 17 18  1  0  0  0  0
 17 19  1  0  0  0  0
 17 20  1  0  0  0  0
 20 21  1  0  0  0  0
 20 22  1  0  0  0  0
 20 23  1  0  0  0  0
M  END
> <VConfSearch Rank>
93

> <Conf_Id>
90

> <Delta U+W>
1.131

> <U+W>
-7.251

> <U>
48.641

> <W>
-55.892

> <W(PB)>
-57.962

> <W(SA)>
2.070

> <Valence>
2.922

> <Coulomb>
45.269

> <VdW>
0.450

> <VdW6>
-7.045

> <VdW12>
7.495

> <Bond>
0.220

> <Angle>
1.205

> <Pdih>
1.497

> <Idih>
0.000

> <Tether>
0.000

$$$$
VeraChem MOL file


 23 22  0  0  0  0  0  0  0  0999 V2000     
   21.2132   18.1065   20.5101 N   0  3  0  0  0  0  0  0  0  0  0  0
   21.0812   18.0569   19.4943 H   0  0  0  0  0  0  0  0  0  0  0  0
   20.4165   17.6278   20.9412 H   0  0  0  0  0  0  0  0  0  0  0  0
   22.0515   17.5593   20.7299 H   0  0  0  0  0  0  0  0  0  0  0  0
   21.3330   19.5384   20.9934 C   0  0  0  0  0  0  0  0  0  0  0  0
   20.4247   20.0718   20.7016 H   0  0  0  0  0  0  0  0  0  0  0  0
   22.1774   19.9965   20.4713 H   0  0  0  0  0  0  0  0  0  0  0  0
   21.5445   19.6629   22.5161 C   0  0  0  0  0  0  0  0  0  0  0  0
   22.4836   19.1644   22.7908 H   0  0  0  0  0  0  0  0  0  0  0  0
   21.6767   20.7236   22.7677 H   0  0  0  0  0  0  0  0  0  0  0  0
   20.3866   19.0773   23.3627 C   0  0  0  0  0  0  0  0  0  0  0  0
   20.6346   19.1983   24.4262 H   0  0  0  0  0  0  0  0  0  0  0  0
   20.3146   17.9966   23.1866 H   0  0  0  0  0  0  0  0  0  0  0  0
   19.0233   19.7571   23.0786 C   0  0  0  0  0  0  0  0  0  0  0  0
   19.1381   20.8454   23.1774 H   0  0  0  0  0  0  0  0  0  0  0  0
   18.7159   19.5712   22.0409 H   0  0  0  0  0  0  0  0  0  0  0  0
   17.8959   19.2932   24.0322 C   0  0  0  0  0  0  0  0  0  0  0  0
   16.9979   19.8957   23.8361 H   0  0  0  0  0  0  0  0  0  0  0  0
   18.1815   19.4979   25.0735 H   0  0  0  0  0  0  0  0  0  0  0  0
   17.5366   17.7981   23.8756 C   0  0  0  0  0  0  0  0  0  0  0  0
   17.2726   17.5619   22.8366 H   0  0  0  0  0  0  0  0  0  0  0  0
   16.6756   17.5421   24.5066 H   0  0  0  0  0  0  0  0  0  0  0  0
   18.3689   17.1496   24.1757 H   0  0  0  0  0  0  0  0  0  0  0  0
  1  2  1  0  0  0  0
  1  3  1  0  0  0  0
  1  4  1  0  0  0  0
  1  5  1  0  0  0  0
  5  6  1  0  0  0  0
  5  7  1  0  0  0  0
  5  8  1  0  0  0  0
  8  9  1  0  0  0  0
  8 10  1  0  0  0  0
  8 11  1  0  0  0  0
 11 12  1  0  0  0  0
 11 13  1  0  0  0  0
 11 14  1  0  0  0  0
 14 15  1  0  0  0  0
 14 16  1  0  0  0  0
 14 17  1  0  0  0  0
 17 18  1  0  0  0  0
 17 19  1  0  0  0  0
 17 20  1  0  0  0  0
 20 21  1  0  0  0  0
 20 22  1  0  0  0  0
 20 23  1  0  0  0  0
M  END
> <VConfSearch Rank>
94

> <Conf_Id>
85

> <Delta U+W>
1.193

> <U+W>
-7.189

> <U>
48.775

> <W>
-55.965

> <W(PB)>
-58.038

> <W(SA)>
2.073

> <Valence>
2.602

> <Coulomb>
45.581

> <VdW>
0.592

> <VdW6>
-6.616

> <VdW12>
7.208

> <Bond>
0.196

> <Angle>
0.832

> <Pdih>
1.574

> <Idih>
0.000

> <Tether>
0.000

$$$$
VeraChem MOL file


 23 22  0  0  0  0  0  0  0  0999 V2000     
   20.3220   17.5756   24.0031 N   0  3  0  0  0  0  0  0  0  0  0  0
   19.7736   18.4415   23.9894 H   0  0  0  0  0  0  0  0  0  0  0  0
   20.9866   17.6448   24.7815 H   0  0  0  0  0  0  0  0  0  0  0  0
   19.6787   16.8094   24.2269 H   0  0  0  0  0  0  0  0  0  0  0  0
   21.0267   17.3478   22.6798 C   0  0  0  0  0  0  0  0  0  0  0  0
   21.5847   16.4120   22.7721 H   0  0  0  0  0  0  0  0  0  0  0  0
   21.7449   18.1567   22.5215 H   0  0  0  0  0  0  0  0  0  0  0  0
   20.0742   17.2487   21.4708 C   0  0  0  0  0  0  0  0  0  0  0  0
   20.6008   16.7057   20.6747 H   0  0  0  0  0  0  0  0  0  0  0  0
   19.2067   16.6280   21.7318 H   0  0  0  0  0  0  0  0  0  0  0  0
   19.6029   18.6072   20.8857 C   0  0  0  0  0  0  0  0  0  0  0  0
   18.9828   18.3881   20.0054 H   0  0  0  0  0  0  0  0  0  0  0  0
   20.4656   19.1706   20.5038 H   0  0  0  0  0  0  0  0  0  0  0  0
   18.7717   19.4919   21.8499 C   0  0  0  0  0  0  0  0  0  0  0  0
   17.9988   20.0123   21.2671 H   0  0  0  0  0  0  0  0  0  0  0  0
   18.2273   18.8633   22.5671 H   0  0  0  0  0  0  0  0  0  0  0  0
   19.6197   20.5635   22.5777 C   0  0  0  0  0  0  0  0  0  0  0  0
   20.0137   21.2762   21.8394 H   0  0  0  0  0  0  0  0  0  0  0  0
   20.4956   20.1140   23.0603 H   0  0  0  0  0  0  0  0  0  0  0  0
   18.7903   21.3301   23.6294 C   0  0  0  0  0  0  0  0  0  0  0  0
   17.9343   21.8357   23.1635 H   0  0  0  0  0  0  0  0  0  0  0  0
   19.4033   22.0949   24.1240 H   0  0  0  0  0  0  0  0  0  0  0  0
   18.4061   20.6540   24.4041 H   0  0  0  0  0  0  0  0  0  0  0  0
  1  2  1  0  0  0  0
  1  3  1  0  0  0  0
  1  4  1  0  0  0  0
  1  5  1  0  0  0  0
  5  6  1  0  0  0  0
  5  7  1  0  0  0  0
  5  8  1  0  0  0  0
  8  9  1  0  0  0  0
  8 10  1  0  0  0  0
  8 11  1  0  0  0  0
 11 12  1  0  0  0  0
 11 13  1  0  0  0  0
 11 14  1  0  0  0  0
 14 15  1  0  0  0  0
 14 16  1  0  0  0  0
 14 17  1  0  0  0  0
 17 18  1  0  0  0  0
 17 19  1  0  0  0  0
 17 20  1  0  0  0  0
 20 21  1  0  0  0  0
 20 22  1  0  0  0  0
 20 23  1  0  0  0  0
M  END
> <VConfSearch Rank>
95

> <Conf_Id>
82

> <Delta U+W>
5.994

> <U+W>
-2.388

> <U>
52.836

> <W>
-55.224

> <W(PB)>
-57.261

> <W(SA)>
2.037

> <Valence>
5.785

> <Coulomb>
46.744

> <VdW>
0.307

> <VdW6>
-7.672

> <VdW12>
7.979

> <Bond>
0.217

> <Angle>
1.470

> <Pdih>
4.098

> <Idih>
0.000

> <Tether>
0.000

$$$$
VeraChem MOL file


 23 22  0  0  0  0  0  0  0  0999 V2000     
   19.9921   18.0820   20.7010 N   0  3  0  0  0  0  0  0  0  0  0  0
   19.6463   18.6105   19.8935 H   0  0  0  0  0  0  0  0  0  0  0  0
   20.5972   17.3389   20.3349 H   0  0  0  0  0  0  0  0  0  0  0  0
   20.5814   18.7149   21.2514 H   0  0  0  0  0  0  0  0  0  0  0  0
   18.8550   17.5227   21.5340 C   0  0  0  0  0  0  0  0  0  0  0  0
   19.2764   16.9167   22.3404 H   0  0  0  0  0  0  0  0  0  0  0  0
   18.2756   16.8636   20.8817 H   0  0  0  0  0  0  0  0  0  0  0  0
   17.9193   18.5990   22.1212 C   0  0  0  0  0  0  0  0  0  0  0  0
   17.7038   19.3593   21.3587 H   0  0  0  0  0  0  0  0  0  0  0  0
   16.9571   18.1190   22.3441 H   0  0  0  0  0  0  0  0  0  0  0  0
   18.4240   19.2762   23.4238 C   0  0  0  0  0  0  0  0  0  0  0  0
   18.5119   18.5292   24.2250 H   0  0  0  0  0  0  0  0  0  0  0  0
   17.6414   19.9721   23.7565 H   0  0  0  0  0  0  0  0  0  0  0  0
   19.7474   20.0719   23.2878 C   0  0  0  0  0  0  0  0  0  0  0  0
   19.8548   20.4572   22.2652 H   0  0  0  0  0  0  0  0  0  0  0  0
   19.6888   20.9594   23.9332 H   0  0  0  0  0  0  0  0  0  0  0  0
   20.9943   19.2579   23.7119 C   0  0  0  0  0  0  0  0  0  0  0  0
   21.0258   18.2880   23.2014 H   0  0  0  0  0  0  0  0  0  0  0  0
   20.9315   19.0325   24.7858 H   0  0  0  0  0  0  0  0  0  0  0  0
   22.3015   20.0290   23.4316 C   0  0  0  0  0  0  0  0  0  0  0  0
   22.4158   20.2440   22.3613 H   0  0  0  0  0  0  0  0  0  0  0  0
   23.1731   19.4434   23.7522 H   0  0  0  0  0  0  0  0  0  0  0  0
   22.3200   20.9830   23.9745 H   0  0  0  0  0  0  0  0  0  0  0  0
  1  2  1  0  0  0  0
  1  3  1  0  0  0  0
  1  4  1  0  0  0  0
  1  5  1  0  0  0  0
  5  6  1  0  0  0  0
  5  7  1  0  0  0  0
  5  8  1  0  0  0  0
  8  9  1  0  0  0  0
  8 10  1  0  0  0  0
  8 11  1  0  0  0  0
 11 12  1  0  0  0  0
 11 13  1  0  0  0  0
 11 14  1  0  0  0  0
 14 15  1  0  0  0  0
 14 16  1  0  0  0  0
 14 17  1  0  0  0  0
 17 18  1  0  0  0  0
 17 19  1  0  0  0  0
 17 20  1  0  0  0  0
 20 21  1  0  0  0  0
 20 22  1  0  0  0  0
 20 23  1  0  0  0  0
M  END
> <VConfSearch Rank>
96

> <Conf_Id>
5

> <Delta U+W>
6.087

> <U+W>
-2.295

> <U>
52.836

> <W>
-55.131

> <W(PB)>
-57.202

> <W(SA)>
2.071

> <Valence>
5.785

> <Coulomb>
46.744

> <VdW>
0.307

> <VdW6>
-7.672

> <VdW12>
7.980

> <Bond>
0.217

> <Angle>
1.470

> <Pdih>
4.098

> <Idih>
0.000

> <Tether>
0.000

$$$$
VeraChem MOL file


 23 22  0  0  0  0  0  0  0  0999 V2000     
   18.1443   21.9936   24.3932 N   0  3  0  0  0  0  0  0  0  0  0  0
   19.0136   22.3954   24.7591 H   0  0  0  0  0  0  0  0  0  0  0  0
   17.4118   22.1895   25.0839 H   0  0  0  0  0  0  0  0  0  0  0  0
   17.9028   22.5181   23.5462 H   0  0  0  0  0  0  0  0  0  0  0  0
   18.2782   20.5091   24.1205 C   0  0  0  0  0  0  0  0  0  0  0  0
   17.3117   20.1432   23.7633 H   0  0  0  0  0  0  0  0  0  0  0  0
   18.5057   20.0113   25.0670 H   0  0  0  0  0  0  0  0  0  0  0  0
   19.3704   20.1812   23.0870 C   0  0  0  0  0  0  0  0  0  0  0  0
   19.1464   20.6963   22.1433 H   0  0  0  0  0  0  0  0  0  0  0  0
   20.3361   20.5650   23.4424 H   0  0  0  0  0  0  0  0  0  0  0  0
   19.4747   18.6603   22.8378 C   0  0  0  0  0  0  0  0  0  0  0  0
   18.5052   18.2793   22.4875 H   0  0  0  0  0  0  0  0  0  0  0  0
   19.6937   18.1482   23.7852 H   0  0  0  0  0  0  0  0  0  0  0  0
   20.5692   18.3194   21.8010 C   0  0  0  0  0  0  0  0  0  0  0  0
   20.3503   18.8313   20.8536 H   0  0  0  0  0  0  0  0  0  0  0  0
   21.5387   18.7003   22.1511 H   0  0  0  0  0  0  0  0  0  0  0  0
   20.6733   16.7982   21.5520 C   0  0  0  0  0  0  0  0  0  0  0  0
   19.7064   16.4128   21.1992 H   0  0  0  0  0  0  0  0  0  0  0  0
   20.8947   16.2818   22.4966 H   0  0  0  0  0  0  0  0  0  0  0  0
   21.7671   16.4617   20.5162 C   0  0  0  0  0  0  0  0  0  0  0  0
   21.8260   15.3778   20.3528 H   0  0  0  0  0  0  0  0  0  0  0  0
   22.7527   16.8049   20.8571 H   0  0  0  0  0  0  0  0  0  0  0  0
   21.5551   16.9370   19.5496 H   0  0  0  0  0  0  0  0  0  0  0  0
  1  2  1  0  0  0  0
  1  3  1  0  0  0  0
  1  4  1  0  0  0  0
  1  5  1  0  0  0  0
  5  6  1  0  0  0  0
  5  7  1  0  0  0  0
  5  8  1  0  0  0  0
  8  9  1  0  0  0  0
  8 10  1  0  0  0  0
  8 11  1  0  0  0  0
 11 12  1  0  0  0  0
 11 13  1  0  0  0  0
 11 14  1  0  0  0  0
 14 15  1  0  0  0  0
 14 16  1  0  0  0  0
 14 17  1  0  0  0  0
 17 18  1  0  0  0  0
 17 19  1  0  0  0  0
 17 20  1  0  0  0  0
 20 21  1  0  0  0  0
 20 22  1  0  0  0  0
 20 23  1  0  0  0  0
M  END
> <VConfSearch Rank>
97

> <Conf_Id>
40

> <Delta U+W>
0.000

> <U+W>
-8.382

> <U>
46.604

> <W>
-54.986

> <W(PB)>
-57.162

> <W(SA)>
2.176

> <Valence>
1.727

> <Coulomb>
44.434

> <VdW>
0.443

> <VdW6>
-4.623

> <VdW12>
5.066

> <Bond>
0.112

> <Angle>
0.386

> <Pdih>
1.228

> <Idih>
0.000

> <Tether>
0.000

$$$$
VeraChem MOL file


 23 22  0  0  0  0  0  0  0  0999 V2000     
   17.4125   18.2594   20.0287 N   0  3  0  0  0  0  0  0  0  0  0  0
   16.4860   18.0843   20.4309 H   0  0  0  0  0  0  0  0  0  0  0  0
   17.8045   17.3491   19.7669 H   0  0  0  0  0  0  0  0  0  0  0  0
   17.2655   18.7820   19.1585 H   0  0  0  0  0  0  0  0  0  0  0  0
   18.3138   19.0079   20.9896 C   0  0  0  0  0  0  0  0  0  0  0  0
   17.8511   19.9755   21.2020 H   0  0  0  0  0  0  0  0  0  0  0  0
   19.2669   19.1855   20.4851 H   0  0  0  0  0  0  0  0  0  0  0  0
   18.5537   18.2479   22.3079 C   0  0  0  0  0  0  0  0  0  0  0  0
   17.5849   18.0352   22.7791 H   0  0  0  0  0  0  0  0  0  0  0  0
   19.0196   17.2765   22.0953 H   0  0  0  0  0  0  0  0  0  0  0  0
   19.4327   19.0389   23.3055 C   0  0  0  0  0  0  0  0  0  0  0  0
   19.4602   18.4849   24.2528 H   0  0  0  0  0  0  0  0  0  0  0  0
   18.9593   20.0062   23.5238 H   0  0  0  0  0  0  0  0  0  0  0  0
   20.8782   19.2669   22.7944 C   0  0  0  0  0  0  0  0  0  0  0  0
   21.3581   18.2986   22.5962 H   0  0  0  0  0  0  0  0  0  0  0  0
   20.8488   19.7994   21.8347 H   0  0  0  0  0  0  0  0  0  0  0  0
   21.7551   20.0864   23.7721 C   0  0  0  0  0  0  0  0  0  0  0  0
   21.2849   21.0607   23.9660 H   0  0  0  0  0  0  0  0  0  0  0  0
   22.7171   20.3013   23.2861 H   0  0  0  0  0  0  0  0  0  0  0  0
   22.0264   19.3638   25.1114 C   0  0  0  0  0  0  0  0  0  0  0  0
   21.1069   19.2378   25.6961 H   0  0  0  0  0  0  0  0  0  0  0  0
   22.7291   19.9430   25.7244 H   0  0  0  0  0  0  0  0  0  0  0  0
   22.4666   18.3724   24.9433 H   0  0  0  0  0  0  0  0  0  0  0  0
  1  2  1  0  0  0  0
  1  3  1  0  0  0  0
  1  4  1  0  0  0  0
  1  5  1  0  0  0  0
  5  6  1  0  0  0  0
  5  7  1  0  0  0  0
  5  8  1  0  0  0  0
  8  9  1  0  0  0  0
  8 10  1  0  0  0  0
  8 11  1  0  0  0  0
 11 12  1  0  0  0  0
 11 13  1  0  0  0  0
 11 14  1  0  0  0  0
 14 15  1  0  0  0  0
 14 16  1  0  0  0  0
 14 17  1  0  0  0  0
 17 18  1  0  0  0  0
 17 19  1  0  0  0  0
 17 20  1  0  0  0  0
 20 21  1  0  0  0  0
 20 22  1  0  0  0  0
 20 23  1  0  0  0  0
M  END
> <VConfSearch Rank>
98

> <Conf_Id>
65

> <Delta U+W>
1.004

> <U+W>
-7.378

> <U>
48.047

> <W>
-55.425

> <W(PB)>
-57.542

> <W(SA)>
2.116

> <Valence>
2.583

> <Coulomb>
44.791

> <VdW>
0.673

> <VdW6>
-5.788

> <VdW12>
6.462

> <Bond>
0.177

> <Angle>
0.787

> <Pdih>
1.619

> <Idih>
0.000

> <Tether>
0.000

$$$$
VeraChem MOL file


 23 22  0  0  0  0  0  0  0  0999 V2000     
   17.4481   16.3255   22.9767 N   0  3  0  0  0  0  0  0  0  0  0  0
   16.5987   16.5098   22.4331 H   0  0  0  0  0  0  0  0  0  0  0  0
   17.1504   15.8864   23.8545 H   0  0  0  0  0  0  0  0  0  0  0  0
   17.9896   15.6241   22.4614 H   0  0  0  0  0  0  0  0  0  0  0  0
   18.2476   17.5890   23.2221 C   0  0  0  0  0  0  0  0  0  0  0  0
   19.1162   17.3227   23.8297 H   0  0  0  0  0  0  0  0  0  0  0  0
   17.6228   18.2774   23.7975 H   0  0  0  0  0  0  0  0  0  0  0  0
   18.7095   18.2728   21.9213 C   0  0  0  0  0  0  0  0  0  0  0  0
   19.3381   17.5822   21.3434 H   0  0  0  0  0  0  0  0  0  0  0  0
   17.8302   18.4911   21.3007 H   0  0  0  0  0  0  0  0  0  0  0  0
   19.4815   19.5891   22.1763 C   0  0  0  0  0  0  0  0  0  0  0  0
   18.8465   20.2817   22.7460 H   0  0  0  0  0  0  0  0  0  0  0  0
   19.6731   20.0679   21.2073 H   0  0  0  0  0  0  0  0  0  0  0  0
   20.8222   19.3729   22.9234 C   0  0  0  0  0  0  0  0  0  0  0  0
   20.6322   18.8717   23.8817 H   0  0  0  0  0  0  0  0  0  0  0  0
   21.4650   18.6967   22.3431 H   0  0  0  0  0  0  0  0  0  0  0  0
   21.5855   20.6884   23.2122 C   0  0  0  0  0  0  0  0  0  0  0  0
   22.4567   20.4587   23.8416 H   0  0  0  0  0  0  0  0  0  0  0  0
   20.9509   21.3648   23.8018 H   0  0  0  0  0  0  0  0  0  0  0  0
   22.0724   21.4120   21.9360 C   0  0  0  0  0  0  0  0  0  0  0  0
   21.2320   21.7754   21.3319 H   0  0  0  0  0  0  0  0  0  0  0  0
   22.6825   20.7457   21.3124 H   0  0  0  0  0  0  0  0  0  0  0  0
   22.6884   22.2817   22.1993 H   0  0  0  0  0  0  0  0  0  0  0  0
  1  2  1  0  0  0  0
  1  3  1  0  0  0  0
  1  4  1  0  0  0  0
  1  5  1  0  0  0  0
  5  6  1  0  0  0  0
  5  7  1  0  0  0  0
  5  8  1  0  0  0  0
  8  9  1  0  0  0  0
  8 10  1  0  0  0  0
  8 11  1  0  0  0  0
 11 12  1  0  0  0  0
 11 13  1  0  0  0  0
 11 14  1  0  0  0  0
 14 15  1  0  0  0  0
 14 16  1  0  0  0  0
 14 17  1  0  0  0  0
 17 18  1  0  0  0  0
 17 19  1  0  0  0  0
 17 20  1  0  0  0  0
 20 21  1  0  0  0  0
 20 22  1  0  0  0  0
 20 23  1  0  0  0  0
M  END
> <VConfSearch Rank>
99

> <Conf_Id>
92

> <Delta U+W>
0.973

> <U+W>
-7.409

> <U>
48.047

> <W>
-55.456

> <W(PB)>
-57.595

> <W(SA)>
2.138

> <Valence>
2.583

> <Coulomb>
44.791

> <VdW>
0.674

> <VdW6>
-5.789

> <VdW12>
6.462

> <Bond>
0.177

> <Angle>
0.787

> <Pdih>
1.619

> <Idih>
0.000

> <Tether>
0.000

$$$$
VeraChem MOL file


 23 22  0  0  0  0  0  0  0  0999 V2000     
   17.7217   18.1112   25.3678 N   0  3  0  0  0  0  0  0  0  0  0  0
   16.7445   18.4170   25.4270 H   0  0  0  0  0  0  0  0  0  0  0  0
   18.1348   18.2533   26.2952 H   0  0  0  0  0  0  0  0  0  0  0  0
   17.7077   17.1007   25.1958 H   0  0  0  0  0  0  0  0  0  0  0  0
   18.4811   18.8578   24.2901 C   0  0  0  0  0  0  0  0  0  0  0  0
   18.4313   19.9255   24.5201 H   0  0  0  0  0  0  0  0  0  0  0  0
   17.9695   18.6862   23.3395 H   0  0  0  0  0  0  0  0  0  0  0  0
   19.9538   18.4205   24.1764 C   0  0  0  0  0  0  0  0  0  0  0  0
   20.4443   18.5562   25.1495 H   0  0  0  0  0  0  0  0  0  0  0  0
   20.0037   17.3479   23.9462 H   0  0  0  0  0  0  0  0  0  0  0  0
   20.7338   19.2190   23.1055 C   0  0  0  0  0  0  0  0  0  0  0  0
   21.7908   18.9211   23.1446 H   0  0  0  0  0  0  0  0  0  0  0  0
   20.7038   20.2894   23.3525 H   0  0  0  0  0  0  0  0  0  0  0  0
   20.1960   18.9987   21.6710 C   0  0  0  0  0  0  0  0  0  0  0  0
   20.1965   17.9245   21.4395 H   0  0  0  0  0  0  0  0  0  0  0  0
   19.1537   19.3381   21.6044 H   0  0  0  0  0  0  0  0  0  0  0  0
   21.0415   19.7511   20.6194 C   0  0  0  0  0  0  0  0  0  0  0  0
   22.0859   19.4130   20.6713 H   0  0  0  0  0  0  0  0  0  0  0  0
   21.0449   20.8265   20.8467 H   0  0  0  0  0  0  0  0  0  0  0  0
   20.5034   19.5318   19.1894 C   0  0  0  0  0  0  0  0  0  0  0  0
   20.5192   18.4675   18.9206 H   0  0  0  0  0  0  0  0  0  0  0  0
   21.1166   20.0732   18.4573 H   0  0  0  0  0  0  0  0  0  0  0  0
   19.4708   19.8927   19.0964 H   0  0  0  0  0  0  0  0  0  0  0  0
  1  2  1  0  0  0  0
  1  3  1  0  0  0  0
  1  4  1  0  0  0  0
  1  5  1  0  0  0  0
  5  6  1  0  0  0  0
  5  7  1  0  0  0  0
  5  8  1  0  0  0  0
  8  9  1  0  0  0  0
  8 10  1  0  0  0  0
  8 11  1  0  0  0  0
 11 12  1  0  0  0  0
 11 13  1  0  0  0  0
 11 14  1  0  0  0  0
 14 15  1  0  0  0  0
 14 16  1  0  0  0  0
 14 17  1  0  0  0  0
 17 18  1  0  0  0  0
 17 19  1  0  0  0  0
 17 20  1  0  0  0  0
 20 21  1  0  0  0  0
 20 22  1  0  0  0  0
 20 23  1  0  0  0  0
M  END
> <VConfSearch Rank>
100

> <Conf_Id>
42

> <Delta U+W>
0.365

> <U+W>
-8.017

> <U>
47.375

> <W>
-55.392

> <W(PB)>
-57.543

> <W(SA)>
2.152

> <Valence>
2.032

> <Coulomb>
44.843

> <VdW>
0.499

> <VdW6>
-5.218

> <VdW12>
5.717

> <Bond>
0.135

> <Angle>
0.514

> <Pdih>
1.383

> <Idih>
0.000

> <Tether>
0.000

$$$$
VeraChem MOL file


 23 22  0  0  0  0  0  0  0  0999 V2000     
   22.1647   17.2288   23.7119 N   0  3  0  0  0  0  0  0  0  0  0  0
   22.3041   17.8244   24.5344 H   0  0  0  0  0  0  0  0  0  0  0  0
   23.0110   16.6585   23.6091 H   0  0  0  0  0  0  0  0  0  0  0  0
   21.3964   16.5871   23.9294 H   0  0  0  0  0  0  0  0  0  0  0  0
   21.8819   18.0455   22.4659 C   0  0  0  0  0  0  0  0  0  0  0  0
   21.7676   17.3555   21.6255 H   0  0  0  0  0  0  0  0  0  0  0  0
   22.7581   18.6712   22.2756 H   0  0  0  0  0  0  0  0  0  0  0  0
   20.6317   18.9399   22.5768 C   0  0  0  0  0  0  0  0  0  0  0  0
   20.7367   19.6130   23.4379 H   0  0  0  0  0  0  0  0  0  0  0  0
   20.5905   19.5706   21.6803 H   0  0  0  0  0  0  0  0  0  0  0  0
   19.3208   18.1246   22.6930 C   0  0  0  0  0  0  0  0  0  0  0  0
   19.4031   17.4179   23.5292 H   0  0  0  0  0  0  0  0  0  0  0  0
   19.1907   17.5140   21.7888 H   0  0  0  0  0  0  0  0  0  0  0  0
   18.0506   18.9850   22.9199 C   0  0  0  0  0  0  0  0  0  0  0  0
   17.2012   18.2967   23.0297 H   0  0  0  0  0  0  0  0  0  0  0  0
   18.1227   19.5194   23.8772 H   0  0  0  0  0  0  0  0  0  0  0  0
   17.7214   19.9775   21.7749 C   0  0  0  0  0  0  0  0  0  0  0  0
   16.6293   20.0369   21.6664 H   0  0  0  0  0  0  0  0  0  0  0  0
   18.0991   19.5949   20.8166 H   0  0  0  0  0  0  0  0  0  0  0  0
   18.2524   21.4075   22.0306 C   0  0  0  0  0  0  0  0  0  0  0  0
   17.8204   21.8272   22.9484 H   0  0  0  0  0  0  0  0  0  0  0  0
   17.9799   22.0723   21.2008 H   0  0  0  0  0  0  0  0  0  0  0  0
   19.3431   21.4315   22.1306 H   0  0  0  0  0  0  0  0  0  0  0  0
  1  2  1  0  0  0  0
  1  3  1  0  0  0  0
  1  4  1  0  0  0  0
  1  5  1  0  0  0  0
  5  6  1  0  0  0  0
  5  7  1  0  0  0  0
  5  8  1  0  0  0  0
  8  9  1  0  0  0  0
  8 10  1  0  0  0  0
  8 11  1  0  0  0  0
 11 12  1  0  0  0  0
 11 13  1  0  0  0  0
 11 14  1  0  0  0  0
 14 15  1  0  0  0  0
 14 16  1  0  0  0  0
 14 17  1  0  0  0  0
 17 18  1  0  0  0  0
 17 19  1  0  0  0  0
 17 20  1  0  0  0  0
 20 21  1  0  0  0  0
 20 22  1  0  0  0  0
 20 23  1  0  0  0  0
M  END
> <VConfSearch Rank>
101

> <Conf_Id>
3

> <Delta U+W>
3.283

> <U+W>
-5.099

> <U>
50.701

> <W>
-55.800

> <W(PB)>
-57.867

> <W(SA)>
2.067

> <Valence>
4.880

> <Coulomb>
45.095

> <VdW>
0.726

> <VdW6>
-6.620

> <VdW12>
7.346

> <Bond>
0.222

> <Angle>
1.260

> <Pdih>
3.398

> <Idih>
0.000

> <Tether>
0.000

$$$$
VeraChem MOL file


 23 22  0  0  0  0  0  0  0  0999 V2000     
   22.5412   18.1107   22.7157 N   0  3  0  0  0  0  0  0  0  0  0  0
   22.7628   17.6222   23.5891 H   0  0  0  0  0  0  0  0  0  0  0  0
   23.3808   18.0690   22.1282 H   0  0  0  0  0  0  0  0  0  0  0  0
   21.8141   17.5676   22.2403 H   0  0  0  0  0  0  0  0  0  0  0  0
   22.0989   19.5390   22.9660 C   0  0  0  0  0  0  0  0  0  0  0  0
   21.9091   20.0098   21.9981 H   0  0  0  0  0  0  0  0  0  0  0  0
   22.9307   20.0663   23.4411 H   0  0  0  0  0  0  0  0  0  0  0  0
   20.8456   19.6528   23.8579 C   0  0  0  0  0  0  0  0  0  0  0  0
   21.0676   19.2223   24.8434 H   0  0  0  0  0  0  0  0  0  0  0  0
   20.6314   20.7159   24.0304 H   0  0  0  0  0  0  0  0  0  0  0  0
   19.5853   18.9666   23.2728 C   0  0  0  0  0  0  0  0  0  0  0  0
   18.7715   19.0724   24.0018 H   0  0  0  0  0  0  0  0  0  0  0  0
   19.7619   17.8881   23.1665 H   0  0  0  0  0  0  0  0  0  0  0  0
   19.1425   19.5624   21.9121 C   0  0  0  0  0  0  0  0  0  0  0  0
   18.9395   20.6361   22.0266 H   0  0  0  0  0  0  0  0  0  0  0  0
   19.9644   19.4789   21.1890 H   0  0  0  0  0  0  0  0  0  0  0  0
   17.8997   18.8638   21.3089 C   0  0  0  0  0  0  0  0  0  0  0  0
   18.1008   17.7909   21.1819 H   0  0  0  0  0  0  0  0  0  0  0  0
   17.7258   19.2647   20.3005 H   0  0  0  0  0  0  0  0  0  0  0  0
   16.6157   19.0567   22.1476 C   0  0  0  0  0  0  0  0  0  0  0  0
   16.4109   20.1218   22.3171 H   0  0  0  0  0  0  0  0  0  0  0  0
   16.6920   18.5612   23.1233 H   0  0  0  0  0  0  0  0  0  0  0  0
   15.7495   18.6274   21.6276 H   0  0  0  0  0  0  0  0  0  0  0  0
  1  2  1  0  0  0  0
  1  3  1  0  0  0  0
  1  4  1  0  0  0  0
  1  5  1  0  0  0  0
  5  6  1  0  0  0  0
  5  7  1  0  0  0  0
  5  8  1  0  0  0  0
  8  9  1  0  0  0  0
  8 10  1  0  0  0  0
  8 11  1  0  0  0  0
 11 12  1  0  0  0  0
 11 13  1  0  0  0  0
 11 14  1  0  0  0  0
 14 15  1  0  0  0  0
 14 16  1  0  0  0  0
 14 17  1  0  0  0  0
 17 18  1  0  0  0  0
 17 19  1  0  0  0  0
 17 20  1  0  0  0  0
 20 21  1  0  0  0  0
 20 22  1  0  0  0  0
 20 23  1  0  0  0  0
M  END
> <VConfSearch Rank>
102

> <Conf_Id>
83

> <Delta U+W>
1.229

> <U+W>
-7.154

> <U>
48.727

> <W>
-55.880

> <W(PB)>
-57.960

> <W(SA)>
2.080

> <Valence>
2.671

> <Coulomb>
45.371

> <VdW>
0.684

> <VdW6>
-6.511

> <VdW12>
7.195

> <Bond>
0.203

> <Angle>
0.915

> <Pdih>
1.554

> <Idih>
0.000

> <Tether>
0.000

$$$$
VeraChem MOL file


 23 22  0  0  0  0  0  0  0  0999 V2000     
   18.2104   21.3276   23.5311 N   0  3  0  0  0  0  0  0  0  0  0  0
   18.4670   22.2053   23.0683 H   0  0  0  0  0  0  0  0  0  0  0  0
   19.0405   20.9937   24.0300 H   0  0  0  0  0  0  0  0  0  0  0  0
   17.5054   21.5577   24.2396 H   0  0  0  0  0  0  0  0  0  0  0  0
   17.7002   20.2979   22.5423 C   0  0  0  0  0  0  0  0  0  0  0  0
   16.7992   20.7039   22.0745 H   0  0  0  0  0  0  0  0  0  0  0  0
   17.4166   19.4024   23.1010 H   0  0  0  0  0  0  0  0  0  0  0  0
   18.7225   19.9296   21.4476 C   0  0  0  0  0  0  0  0  0  0  0  0
   18.2523   19.2246   20.7492 H   0  0  0  0  0  0  0  0  0  0  0  0
   18.9586   20.8279   20.8618 H   0  0  0  0  0  0  0  0  0  0  0  0
   20.0371   19.3121   21.9881 C   0  0  0  0  0  0  0  0  0  0  0  0
   20.5554   20.0378   22.6289 H   0  0  0  0  0  0  0  0  0  0  0  0
   20.7024   19.1286   21.1346 H   0  0  0  0  0  0  0  0  0  0  0  0
   19.8154   17.9898   22.7658 C   0  0  0  0  0  0  0  0  0  0  0  0
   19.1308   18.1672   23.6056 H   0  0  0  0  0  0  0  0  0  0  0  0
   19.3217   17.2556   22.1144 H   0  0  0  0  0  0  0  0  0  0  0  0
   21.1216   17.3815   23.3317 C   0  0  0  0  0  0  0  0  0  0  0  0
   20.8636   16.5189   23.9619 H   0  0  0  0  0  0  0  0  0  0  0  0
   21.6146   18.1079   23.9928 H   0  0  0  0  0  0  0  0  0  0  0  0
   22.1110   16.9184   22.2380 C   0  0  0  0  0  0  0  0  0  0  0  0
   21.6318   16.2160   21.5437 H   0  0  0  0  0  0  0  0  0  0  0  0
   22.9715   16.4084   22.6900 H   0  0  0  0  0  0  0  0  0  0  0  0
   22.4982   17.7654   21.6585 H   0  0  0  0  0  0  0  0  0  0  0  0
  1  2  1  0  0  0  0
  1  3  1  0  0  0  0
  1  4  1  0  0  0  0
  1  5  1  0  0  0  0
  5  6  1  0  0  0  0
  5  7  1  0  0  0  0
  5  8  1  0  0  0  0
  8  9  1  0  0  0  0
  8 10  1  0  0  0  0
  8 11  1  0  0  0  0
 11 12  1  0  0  0  0
 11 13  1  0  0  0  0
 11 14  1  0  0  0  0
 14 15  1  0  0  0  0
 14 16  1  0  0  0  0
 14 17  1  0  0  0  0
 17 18  1  0  0  0  0
 17 19  1  0  0  0  0
 17 20  1  0  0  0  0
 20 21  1  0  0  0  0
 20 22  1  0  0  0  0
 20 23  1  0  0  0  0
M  END
> <VConfSearch Rank>
103

> <Conf_Id>
50

> <Delta U+W>
1.252

> <U+W>
-7.130

> <U>
48.727

> <W>
-55.857

> <W(PB)>
-57.937

> <W(SA)>
2.080

> <Valence>
2.671

> <Coulomb>
45.371

> <VdW>
0.684

> <VdW6>
-6.511

> <VdW12>
7.196

> <Bond>
0.203

> <Angle>
0.915

> <Pdih>
1.554

> <Idih>
0.000

> <Tether>
0.000

$$$$
VeraChem MOL file


 23 22  0  0  0  0  0  0  0  0999 V2000     
   19.3373   17.9309   19.6899 N   0  3  0  0  0  0  0  0  0  0  0  0
   20.2952   17.6314   19.8957 H   0  0  0  0  0  0  0  0  0  0  0  0
   19.2991   18.1444   18.6875 H   0  0  0  0  0  0  0  0  0  0  0  0
   18.7267   17.1226   19.8466 H   0  0  0  0  0  0  0  0  0  0  0  0
   18.9257   19.1207   20.5349 C   0  0  0  0  0  0  0  0  0  0  0  0
   17.9147   19.4076   20.2328 H   0  0  0  0  0  0  0  0  0  0  0  0
   19.5986   19.9507   20.3030 H   0  0  0  0  0  0  0  0  0  0  0  0
   18.9465   18.8446   22.0508 C   0  0  0  0  0  0  0  0  0  0  0  0
   18.5319   19.7195   22.5641 H   0  0  0  0  0  0  0  0  0  0  0  0
   18.2734   18.0073   22.2779 H   0  0  0  0  0  0  0  0  0  0  0  0
   20.3695   18.5351   22.5819 C   0  0  0  0  0  0  0  0  0  0  0  0
   21.0715   19.3234   22.2769 H   0  0  0  0  0  0  0  0  0  0  0  0
   20.7250   17.6104   22.1080 H   0  0  0  0  0  0  0  0  0  0  0  0
   20.4235   18.3415   24.1200 C   0  0  0  0  0  0  0  0  0  0  0  0
   19.4660   17.9489   24.4892 H   0  0  0  0  0  0  0  0  0  0  0  0
   21.1669   17.5631   24.3412 H   0  0  0  0  0  0  0  0  0  0  0  0
   20.8242   19.6081   24.9190 C   0  0  0  0  0  0  0  0  0  0  0  0
   21.8284   19.9339   24.6136 H   0  0  0  0  0  0  0  0  0  0  0  0
   20.9023   19.3394   25.9818 H   0  0  0  0  0  0  0  0  0  0  0  0
   19.8382   20.7884   24.7783 C   0  0  0  0  0  0  0  0  0  0  0  0
   18.8132   20.4796   25.0207 H   0  0  0  0  0  0  0  0  0  0  0  0
   19.8495   21.1982   23.7609 H   0  0  0  0  0  0  0  0  0  0  0  0
   20.1140   21.6018   25.4618 H   0  0  0  0  0  0  0  0  0  0  0  0
  1  2  1  0  0  0  0
  1  3  1  0  0  0  0
  1  4  1  0  0  0  0
  1  5  1  0  0  0  0
  5  6  1  0  0  0  0
  5  7  1  0  0  0  0
  5  8  1  0  0  0  0
  8  9  1  0  0  0  0
  8 10  1  0  0  0  0
  8 11  1  0  0  0  0
 11 12  1  0  0  0  0
 11 13  1  0  0  0  0
 11 14  1  0  0  0  0
 14 15  1  0  0  0  0
 14 16  1  0  0  0  0
 14 17  1  0  0  0  0
 17 18  1  0  0  0  0
 17 19  1  0  0  0  0
 17 20  1  0  0  0  0
 20 21  1  0  0  0  0
 20 22  1  0  0  0  0
 20 23  1  0  0  0  0
M  END
> <VConfSearch Rank>
104

> <Conf_Id>
55

> <Delta U+W>
3.232

> <U+W>
-5.150

> <U>
50.625

> <W>
-55.776

> <W(PB)>
-57.839

> <W(SA)>
2.064

> <Valence>
4.837

> <Coulomb>
45.097

> <VdW>
0.692

> <VdW6>
-6.655

> <VdW12>
7.347

> <Bond>
0.223

> <Angle>
1.167

> <Pdih>
3.447

> <Idih>
0.000

> <Tether>
0.000

$$$$
VeraChem MOL file


 23 22  0  0  0  0  0  0  0  0999 V2000     
   16.8971   19.0484   21.5354 N   0  3  0  0  0  0  0  0  0  0  0  0
   16.6553   18.7300   20.5915 H   0  0  0  0  0  0  0  0  0  0  0  0
   16.2672   19.8268   21.7575 H   0  0  0  0  0  0  0  0  0  0  0  0
   16.6661   18.2849   22.1793 H   0  0  0  0  0  0  0  0  0  0  0  0
   18.3530   19.4548   21.6390 C   0  0  0  0  0  0  0  0  0  0  0  0
   18.5273   19.8145   22.6546 H   0  0  0  0  0  0  0  0  0  0  0  0
   18.5193   20.2870   20.9497 H   0  0  0  0  0  0  0  0  0  0  0  0
   19.3245   18.3060   21.3037 C   0  0  0  0  0  0  0  0  0  0  0  0
   19.1379   17.4443   21.9583 H   0  0  0  0  0  0  0  0  0  0  0  0
   19.1128   17.9692   20.2801 H   0  0  0  0  0  0  0  0  0  0  0  0
   20.8140   18.7254   21.3862 C   0  0  0  0  0  0  0  0  0  0  0  0
   20.9370   19.7523   21.0148 H   0  0  0  0  0  0  0  0  0  0  0  0
   21.3864   18.0898   20.6964 H   0  0  0  0  0  0  0  0  0  0  0  0
   21.4562   18.5861   22.7911 C   0  0  0  0  0  0  0  0  0  0  0  0
   21.4206   17.5343   23.1070 H   0  0  0  0  0  0  0  0  0  0  0  0
   22.5214   18.8423   22.7065 H   0  0  0  0  0  0  0  0  0  0  0  0
   20.8138   19.4716   23.8837 C   0  0  0  0  0  0  0  0  0  0  0  0
   19.7933   19.1258   24.0929 H   0  0  0  0  0  0  0  0  0  0  0  0
   20.7408   20.5092   23.5291 H   0  0  0  0  0  0  0  0  0  0  0  0
   21.6257   19.4351   25.1960 C   0  0  0  0  0  0  0  0  0  0  0  0
   22.6454   19.8111   25.0409 H   0  0  0  0  0  0  0  0  0  0  0  0
   21.6945   18.4123   25.5891 H   0  0  0  0  0  0  0  0  0  0  0  0
   21.1502   20.0596   25.9634 H   0  0  0  0  0  0  0  0  0  0  0  0
  1  2  1  0  0  0  0
  1  3  1  0  0  0  0
  1  4  1  0  0  0  0
  1  5  1  0  0  0  0
  5  6  1  0  0  0  0
  5  7  1  0  0  0  0
  5  8  1  0  0  0  0
  8  9  1  0  0  0  0
  8 10  1  0  0  0  0
  8 11  1  0  0  0  0
 11 12  1  0  0  0  0
 11 13  1  0  0  0  0
 11 14  1  0  0  0  0
 14 15  1  0  0  0  0
 14 16  1  0  0  0  0
 14 17  1  0  0  0  0
 17 18  1  0  0  0  0
 17 19  1  0  0  0  0
 17 20  1  0  0  0  0
 20 21  1  0  0  0  0
 20 22  1  0  0  0  0
 20 23  1  0  0  0  0
M  END
> <VConfSearch Rank>
105

> <Conf_Id>
93

> <Delta U+W>
2.589

> <U+W>
-5.793

> <U>
50.122

> <W>
-55.915

> <W(PB)>
-58.031

> <W(SA)>
2.115

> <Valence>
4.132

> <Coulomb>
45.536

> <VdW>
0.454

> <VdW6>
-6.262

> <VdW12>
6.715

> <Bond>
0.182

> <Angle>
1.157

> <Pdih>
2.794

> <Idih>
0.000

> <Tether>
0.000

$$$$
VeraChem MOL file


 23 22  0  0  0  0  0  0  0  0999 V2000     
   17.7784   20.7188   20.8536 N   0  3  0  0  0  0  0  0  0  0  0  0
   17.2709   20.9890   21.7022 H   0  0  0  0  0  0  0  0  0  0  0  0
   17.0968   20.2800   20.2252 H   0  0  0  0  0  0  0  0  0  0  0  0
   18.0878   21.5841   20.3992 H   0  0  0  0  0  0  0  0  0  0  0  0
   18.9396   19.7946   21.1588 C   0  0  0  0  0  0  0  0  0  0  0  0
   19.4137   19.5263   20.2109 H   0  0  0  0  0  0  0  0  0  0  0  0
   18.5333   18.8851   21.6051 H   0  0  0  0  0  0  0  0  0  0  0  0
   19.9851   20.4301   22.0962 C   0  0  0  0  0  0  0  0  0  0  0  0
   20.3630   21.3424   21.6157 H   0  0  0  0  0  0  0  0  0  0  0  0
   19.5134   20.7474   23.0358 H   0  0  0  0  0  0  0  0  0  0  0  0
   21.1853   19.4954   22.3915 C   0  0  0  0  0  0  0  0  0  0  0  0
   22.0613   20.1226   22.6082 H   0  0  0  0  0  0  0  0  0  0  0  0
   21.4463   18.9221   21.4911 H   0  0  0  0  0  0  0  0  0  0  0  0
   20.9880   18.5373   23.5950 C   0  0  0  0  0  0  0  0  0  0  0  0
   21.9243   17.9825   23.7469 H   0  0  0  0  0  0  0  0  0  0  0  0
   20.8315   19.1259   24.5096 H   0  0  0  0  0  0  0  0  0  0  0  0
   19.8290   17.5272   23.4310 C   0  0  0  0  0  0  0  0  0  0  0  0
   19.9146   17.0137   22.4632 H   0  0  0  0  0  0  0  0  0  0  0  0
   18.8677   18.0572   23.4351 H   0  0  0  0  0  0  0  0  0  0  0  0
   19.8203   16.4814   24.5663 C   0  0  0  0  0  0  0  0  0  0  0  0
   18.9856   15.7797   24.4405 H   0  0  0  0  0  0  0  0  0  0  0  0
   19.7101   16.9639   25.5463 H   0  0  0  0  0  0  0  0  0  0  0  0
   20.7509   15.8990   24.5746 H   0  0  0  0  0  0  0  0  0  0  0  0
  1  2  1  0  0  0  0
  1  3  1  0  0  0  0
  1  4  1  0  0  0  0
  1  5  1  0  0  0  0
  5  6  1  0  0  0  0
  5  7  1  0  0  0  0
  5  8  1  0  0  0  0
  8  9  1  0  0  0  0
  8 10  1  0  0  0  0
  8 11  1  0  0  0  0
 11 12  1  0  0  0  0
 11 13  1  0  0  0  0
 11 14  1  0  0  0  0
 14 15  1  0  0  0  0
 14 16  1  0  0  0  0
 14 17  1  0  0  0  0
 17 18  1  0  0  0  0
 17 19  1  0  0  0  0
 17 20  1  0  0  0  0
 20 21  1  0  0  0  0
 20 22  1  0  0  0  0
 20 23  1  0  0  0  0
M  END
> <VConfSearch Rank>
106

> <Conf_Id>
70

> <Delta U+W>
2.599

> <U+W>
-5.783

> <U>
50.122

> <W>
-55.906

> <W(PB)>
-58.010

> <W(SA)>
2.105

> <Valence>
4.132

> <Coulomb>
45.536

> <VdW>
0.454

> <VdW6>
-6.262

> <VdW12>
6.715

> <Bond>
0.182

> <Angle>
1.157

> <Pdih>
2.794

> <Idih>
0.000

> <Tether>
0.000

$$$$
VeraChem MOL file


 23 22  0  0  0  0  0  0  0  0999 V2000     
   20.0390   21.5067   23.8804 N   0  3  0  0  0  0  0  0  0  0  0  0
   20.0295   21.6415   24.8964 H   0  0  0  0  0  0  0  0  0  0  0  0
   19.9351   22.4338   23.4545 H   0  0  0  0  0  0  0  0  0  0  0  0
   20.9705   21.1623   23.6293 H   0  0  0  0  0  0  0  0  0  0  0  0
   18.9498   20.5536   23.4291 C   0  0  0  0  0  0  0  0  0  0  0  0
   18.9929   20.4802   22.3393 H   0  0  0  0  0  0  0  0  0  0  0  0
   17.9872   20.9945   23.7020 H   0  0  0  0  0  0  0  0  0  0  0  0
   19.0635   19.1468   24.0501 C   0  0  0  0  0  0  0  0  0  0  0  0
   18.9843   19.2291   25.1422 H   0  0  0  0  0  0  0  0  0  0  0  0
   18.2000   18.5485   23.7324 H   0  0  0  0  0  0  0  0  0  0  0  0
   20.3760   18.4024   23.6889 C   0  0  0  0  0  0  0  0  0  0  0  0
   20.3501   17.4006   24.1393 H   0  0  0  0  0  0  0  0  0  0  0  0
   21.2249   18.9167   24.1590 H   0  0  0  0  0  0  0  0  0  0  0  0
   20.6526   18.2666   22.1691 C   0  0  0  0  0  0  0  0  0  0  0  0
   20.7756   19.2603   21.7180 H   0  0  0  0  0  0  0  0  0  0  0  0
   21.6152   17.7535   22.0370 H   0  0  0  0  0  0  0  0  0  0  0  0
   19.5572   17.4820   21.4093 C   0  0  0  0  0  0  0  0  0  0  0  0
   18.5991   18.0153   21.4685 H   0  0  0  0  0  0  0  0  0  0  0  0
   19.4065   16.5020   21.8833 H   0  0  0  0  0  0  0  0  0  0  0  0
   19.9274   17.2810   19.9244 C   0  0  0  0  0  0  0  0  0  0  0  0
   19.1390   16.7254   19.4002 H   0  0  0  0  0  0  0  0  0  0  0  0
   20.8623   16.7146   19.8233 H   0  0  0  0  0  0  0  0  0  0  0  0
   20.0551   18.2454   19.4156 H   0  0  0  0  0  0  0  0  0  0  0  0
  1  2  1  0  0  0  0
  1  3  1  0  0  0  0
  1  4  1  0  0  0  0
  1  5  1  0  0  0  0
  5  6  1  0  0  0  0
  5  7  1  0  0  0  0
  5  8  1  0  0  0  0
  8  9  1  0  0  0  0
  8 10  1  0  0  0  0
  8 11  1  0  0  0  0
 11 12  1  0  0  0  0
 11 13  1  0  0  0  0
 11 14  1  0  0  0  0
 14 15  1  0  0  0  0
 14 16  1  0  0  0  0
 14 17  1  0  0  0  0
 17 18  1  0  0  0  0
 17 19  1  0  0  0  0
 17 20  1  0  0  0  0
 20 21  1  0  0  0  0
 20 22  1  0  0  0  0
 20 23  1  0  0  0  0
M  END
> <VConfSearch Rank>
107

> <Conf_Id>
72

> <Delta U+W>
1.051

> <U+W>
-7.331

> <U>
48.590

> <W>
-55.922

> <W(PB)>
-58.012

> <W(SA)>
2.090

> <Valence>
2.601

> <Coulomb>
45.520

> <VdW>
0.469

> <VdW6>
-6.867

> <VdW12>
7.336

> <Bond>
0.205

> <Angle>
0.962

> <Pdih>
1.434

> <Idih>
0.000

> <Tether>
0.000

$$$$
VeraChem MOL file


 23 22  0  0  0  0  0  0  0  0999 V2000     
   17.7083   18.5684   20.2699 N   0  3  0  0  0  0  0  0  0  0  0  0
   16.7372   18.8862   20.1812 H   0  0  0  0  0  0  0  0  0  0  0  0
   17.7716   17.6665   19.7868 H   0  0  0  0  0  0  0  0  0  0  0  0
   18.2882   19.2322   19.7466 H   0  0  0  0  0  0  0  0  0  0  0  0
   18.1361   18.4639   21.7196 C   0  0  0  0  0  0  0  0  0  0  0  0
   17.4612   17.7655   22.2217 H   0  0  0  0  0  0  0  0  0  0  0  0
   18.0150   19.4491   22.1775 H   0  0  0  0  0  0  0  0  0  0  0  0
   19.5915   17.9887   21.8873 C   0  0  0  0  0  0  0  0  0  0  0  0
   19.7112   17.0162   21.3917 H   0  0  0  0  0  0  0  0  0  0  0  0
   20.2689   18.6820   21.3726 H   0  0  0  0  0  0  0  0  0  0  0  0
   20.0066   17.8473   23.3728 C   0  0  0  0  0  0  0  0  0  0  0  0
   21.0423   17.4856   23.4232 H   0  0  0  0  0  0  0  0  0  0  0  0
   19.3959   17.0615   23.8384 H   0  0  0  0  0  0  0  0  0  0  0  0
   19.8686   19.1449   24.2142 C   0  0  0  0  0  0  0  0  0  0  0  0
   18.8070   19.4130   24.2999 H   0  0  0  0  0  0  0  0  0  0  0  0
   20.2031   18.9349   25.2395 H   0  0  0  0  0  0  0  0  0  0  0  0
   20.6524   20.3678   23.6736 C   0  0  0  0  0  0  0  0  0  0  0  0
   20.4692   21.2230   24.3390 H   0  0  0  0  0  0  0  0  0  0  0  0
   20.2634   20.6638   22.6901 H   0  0  0  0  0  0  0  0  0  0  0  0
   22.1762   20.1271   23.5812 C   0  0  0  0  0  0  0  0  0  0  0  0
   22.5860   19.8174   24.5513 H   0  0  0  0  0  0  0  0  0  0  0  0
   22.6931   21.0462   23.2763 H   0  0  0  0  0  0  0  0  0  0  0  0
   22.4171   19.3521   22.8431 H   0  0  0  0  0  0  0  0  0  0  0  0
  1  2  1  0  0  0  0
  1  3  1  0  0  0  0
  1  4  1  0  0  0  0
  1  5  1  0  0  0  0
  5  6  1  0  0  0  0
  5  7  1  0  0  0  0
  5  8  1  0  0  0  0
  8  9  1  0  0  0  0
  8 10  1  0  0  0  0
  8 11  1  0  0  0  0
 11 12  1  0  0  0  0
 11 13  1  0  0  0  0
 11 14  1  0  0  0  0
 14 15  1  0  0  0  0
 14 16  1  0  0  0  0
 14 17  1  0  0  0  0
 17 18  1  0  0  0  0
 17 19  1  0  0  0  0
 17 20  1  0  0  0  0
 20 21  1  0  0  0  0
 20 22  1  0  0  0  0
 20 23  1  0  0  0  0
M  END
> <VConfSearch Rank>
108

> <Conf_Id>
26

> <Delta U+W>
1.076

> <U+W>
-7.306

> <U>
48.641

> <W>
-55.947

> <W(PB)>
-58.031

> <W(SA)>
2.084

> <Valence>
2.922

> <Coulomb>
45.269

> <VdW>
0.449

> <VdW6>
-7.045

> <VdW12>
7.494

> <Bond>
0.220

> <Angle>
1.205

> <Pdih>
1.497

> <Idih>
0.000

> <Tether>
0.000

$$$$
VeraChem MOL file


 23 22  0  0  0  0  0  0  0  0999 V2000     
   19.1646   20.1126   25.4690 N   0  3  0  0  0  0  0  0  0  0  0  0
   19.9039   20.6845   25.8899 H   0  0  0  0  0  0  0  0  0  0  0  0
   18.6423   19.6854   26.2414 H   0  0  0  0  0  0  0  0  0  0  0  0
   18.5217   20.7535   24.9929 H   0  0  0  0  0  0  0  0  0  0  0  0
   19.7261   19.0694   24.5245 C   0  0  0  0  0  0  0  0  0  0  0  0
   18.8897   18.4807   24.1386 H   0  0  0  0  0  0  0  0  0  0  0  0
   20.3767   18.4064   25.1012 H   0  0  0  0  0  0  0  0  0  0  0  0
   20.5166   19.6791   23.3519 C   0  0  0  0  0  0  0  0  0  0  0  0
   19.8681   20.3549   22.7799 H   0  0  0  0  0  0  0  0  0  0  0  0
   21.3310   20.2982   23.7510 H   0  0  0  0  0  0  0  0  0  0  0  0
   21.1195   18.6038   22.4142 C   0  0  0  0  0  0  0  0  0  0  0  0
   21.8564   18.0148   22.9776 H   0  0  0  0  0  0  0  0  0  0  0  0
   21.6865   19.1007   21.6158 H   0  0  0  0  0  0  0  0  0  0  0  0
   20.0840   17.6314   21.7874 C   0  0  0  0  0  0  0  0  0  0  0  0
   20.6160   16.9271   21.1330 H   0  0  0  0  0  0  0  0  0  0  0  0
   19.6352   17.0164   22.5790 H   0  0  0  0  0  0  0  0  0  0  0  0
   18.9506   18.3088   20.9757 C   0  0  0  0  0  0  0  0  0  0  0  0
   18.3370   18.9392   21.6332 H   0  0  0  0  0  0  0  0  0  0  0  0
   18.2778   17.5277   20.5948 H   0  0  0  0  0  0  0  0  0  0  0  0
   19.4666   19.1455   19.7832 C   0  0  0  0  0  0  0  0  0  0  0  0
   20.0566   20.0064   20.1211 H   0  0  0  0  0  0  0  0  0  0  0  0
   18.6262   19.5321   19.1923 H   0  0  0  0  0  0  0  0  0  0  0  0
   20.0939   18.5385   19.1177 H   0  0  0  0  0  0  0  0  0  0  0  0
  1  2  1  0  0  0  0
  1  3  1  0  0  0  0
  1  4  1  0  0  0  0
  1  5  1  0  0  0  0
  5  6  1  0  0  0  0
  5  7  1  0  0  0  0
  5  8  1  0  0  0  0
  8  9  1  0  0  0  0
  8 10  1  0  0  0  0
  8 11  1  0  0  0  0
 11 12  1  0  0  0  0
 11 13  1  0  0  0  0
 11 14  1  0  0  0  0
 14 15  1  0  0  0  0
 14 16  1  0  0  0  0
 14 17  1  0  0  0  0
 17 18  1  0  0  0  0
 17 19  1  0  0  0  0
 17 20  1  0  0  0  0
 20 21  1  0  0  0  0
 20 22  1  0  0  0  0
 20 23  1  0  0  0  0
M  END
> <VConfSearch Rank>
109

> <Conf_Id>
90

> <Delta U+W>
1.131

> <U+W>
-7.251

> <U>
48.641

> <W>
-55.892

> <W(PB)>
-57.962

> <W(SA)>
2.070

> <Valence>
2.922

> <Coulomb>
45.269

> <VdW>
0.450

> <VdW6>
-7.045

> <VdW12>
7.495

> <Bond>
0.220

> <Angle>
1.205

> <Pdih>
1.497

> <Idih>
0.000

> <Tether>
0.000

$$$$
VeraChem MOL file


 23 22  0  0  0  0  0  0  0  0999 V2000     
   20.2522   17.8770   20.2086 N   0  3  0  0  0  0  0  0  0  0  0  0
   21.0126   17.8861   19.5205 H   0  0  0  0  0  0  0  0  0  0  0  0
   20.0121   18.8534   20.4053 H   0  0  0  0  0  0  0  0  0  0  0  0
   19.4400   17.4507   19.7512 H   0  0  0  0  0  0  0  0  0  0  0  0
   20.6428   17.1324   21.4702 C   0  0  0  0  0  0  0  0  0  0  0  0
   21.5287   17.6168   21.8890 H   0  0  0  0  0  0  0  0  0  0  0  0
   20.9172   16.1134   21.1840 H   0  0  0  0  0  0  0  0  0  0  0  0
   19.5249   17.0824   22.5316 C   0  0  0  0  0  0  0  0  0  0  0  0
   18.6577   16.5524   22.1159 H   0  0  0  0  0  0  0  0  0  0  0  0
   19.8728   16.4800   23.3812 H   0  0  0  0  0  0  0  0  0  0  0  0
   19.0780   18.4755   23.0417 C   0  0  0  0  0  0  0  0  0  0  0  0
   18.2739   18.3373   23.7775 H   0  0  0  0  0  0  0  0  0  0  0  0
   18.6395   19.0454   22.2129 H   0  0  0  0  0  0  0  0  0  0  0  0
   20.2302   19.2811   23.6937 C   0  0  0  0  0  0  0  0  0  0  0  0
   20.7106   18.6606   24.4628 H   0  0  0  0  0  0  0  0  0  0  0  0
   21.0049   19.5054   22.9484 H   0  0  0  0  0  0  0  0  0  0  0  0
   19.7605   20.6016   24.3502 C   0  0  0  0  0  0  0  0  0  0  0  0
   20.6111   21.0552   24.8779 H   0  0  0  0  0  0  0  0  0  0  0  0
   19.0027   20.3873   25.1167 H   0  0  0  0  0  0  0  0  0  0  0  0
   19.2000   21.6251   23.3365 C   0  0  0  0  0  0  0  0  0  0  0  0
   19.9297   21.8366   22.5441 H   0  0  0  0  0  0  0  0  0  0  0  0
   18.9656   22.5730   23.8379 H   0  0  0  0  0  0  0  0  0  0  0  0
   18.2766   21.2638   22.8672 H   0  0  0  0  0  0  0  0  0  0  0  0
  1  2  1  0  0  0  0
  1  3  1  0  0  0  0
  1  4  1  0  0  0  0
  1  5  1  0  0  0  0
  5  6  1  0  0  0  0
  5  7  1  0  0  0  0
  5  8  1  0  0  0  0
  8  9  1  0  0  0  0
  8 10  1  0  0  0  0
  8 11  1  0  0  0  0
 11 12  1  0  0  0  0
 11 13  1  0  0  0  0
 11 14  1  0  0  0  0
 14 15  1  0  0  0  0
 14 16  1  0  0  0  0
 14 17  1  0  0  0  0
 17 18  1  0  0  0  0
 17 19  1  0  0  0  0
 17 20  1  0  0  0  0
 20 21  1  0  0  0  0
 20 22  1  0  0  0  0
 20 23  1  0  0  0  0
M  END
> <VConfSearch Rank>
110

> <Conf_Id>
85

> <Delta U+W>
1.193

> <U+W>
-7.189

> <U>
48.775

> <W>
-55.965

> <W(PB)>
-58.038

> <W(SA)>
2.073

> <Valence>
2.602

> <Coulomb>
45.581

> <VdW>
0.592

> <VdW6>
-6.616

> <VdW12>
7.208

> <Bond>
0.196

> <Angle>
0.832

> <Pdih>
1.574

> <Idih>
0.000

> <Tether>
0.000

$$$$
VeraChem MOL file


 23 22  0  0  0  0  0  0  0  0999 V2000     
   18.0988   18.5684   21.3252 N   0  3  0  0  0  0  0  0  0  0  0  0
   18.7778   17.9908   21.8313 H   0  0  0  0  0  0  0  0  0  0  0  0
   18.0209   18.1899   20.3750 H   0  0  0  0  0  0  0  0  0  0  0  0
   17.1875   18.4348   21.7755 H   0  0  0  0  0  0  0  0  0  0  0  0
   18.5122   20.0274   21.3179 C   0  0  0  0  0  0  0  0  0  0  0  0
   17.7434   20.5743   20.7653 H   0  0  0  0  0  0  0  0  0  0  0  0
   19.4544   20.1218   20.7715 H   0  0  0  0  0  0  0  0  0  0  0  0
   18.6573   20.6453   22.7235 C   0  0  0  0  0  0  0  0  0  0  0  0
   18.5579   21.7341   22.6213 H   0  0  0  0  0  0  0  0  0  0  0  0
   17.8185   20.3273   23.3570 H   0  0  0  0  0  0  0  0  0  0  0  0
   20.0055   20.3578   23.4375 C   0  0  0  0  0  0  0  0  0  0  0  0
   19.9927   20.8993   24.3936 H   0  0  0  0  0  0  0  0  0  0  0  0
   20.8344   20.7951   22.8639 H   0  0  0  0  0  0  0  0  0  0  0  0
   20.2923   18.8639   23.7362 C   0  0  0  0  0  0  0  0  0  0  0  0
   20.8142   18.7949   24.7009 H   0  0  0  0  0  0  0  0  0  0  0  0
   19.3501   18.3163   23.8706 H   0  0  0  0  0  0  0  0  0  0  0  0
   21.1831   18.1883   22.6651 C   0  0  0  0  0  0  0  0  0  0  0  0
   22.1782   18.6550   22.6750 H   0  0  0  0  0  0  0  0  0  0  0  0
   20.7830   18.3521   21.6575 H   0  0  0  0  0  0  0  0  0  0  0  0
   21.3315   16.6733   22.9191 C   0  0  0  0  0  0  0  0  0  0  0  0
   21.7807   16.4811   23.9023 H   0  0  0  0  0  0  0  0  0  0  0  0
   21.9777   16.2145   22.1595 H   0  0  0  0  0  0  0  0  0  0  0  0
   20.3587   16.1661   22.8842 H   0  0  0  0  0  0  0  0  0  0  0  0
  1  2  1  0  0  0  0
  1  3  1  0  0  0  0
  1  4  1  0  0  0  0
  1  5  1  0  0  0  0
  5  6  1  0  0  0  0
  5  7  1  0  0  0  0
  5  8  1  0  0  0  0
  8  9  1  0  0  0  0
  8 10  1  0  0  0  0
  8 11  1  0  0  0  0
 11 12  1  0  0  0  0
 11 13  1  0  0  0  0
 11 14  1  0  0  0  0
 14 15  1  0  0  0  0
 14 16  1  0  0  0  0
 14 17  1  0  0  0  0
 17 18  1  0  0  0  0
 17 19  1  0  0  0  0
 17 20  1  0  0  0  0
 20 21  1  0  0  0  0
 20 22  1  0  0  0  0
 20 23  1  0  0  0  0
M  END
> <VConfSearch Rank>
111

> <Conf_Id>
82

> <Delta U+W>
5.994

> <U+W>
-2.388

> <U>
52.836

> <W>
-55.224

> <W(PB)>
-57.261

> <W(SA)>
2.037

> <Valence>
5.785

> <Coulomb>
46.744

> <VdW>
0.307

> <VdW6>
-7.672

> <VdW12>
7.979

> <Bond>
0.217

> <Angle>
1.470

> <Pdih>
4.098

> <Idih>
0.000

> <Tether>
0.000

$$$$
VeraChem MOL file


 23 22  0  0  0  0  0  0  0  0999 V2000     
   19.5092   19.8490   24.4083 N   0  3  0  0  0  0  0  0  0  0  0  0
   19.6123   19.2526   25.2358 H   0  0  0  0  0  0  0  0  0  0  0  0
   19.5427   20.8210   24.7345 H   0  0  0  0  0  0  0  0  0  0  0  0
   20.3314   19.6953   23.8159 H   0  0  0  0  0  0  0  0  0  0  0  0
   18.2252   19.5508   23.6585 C   0  0  0  0  0  0  0  0  0  0  0  0
   18.1333   20.2548   22.8273 H   0  0  0  0  0  0  0  0  0  0  0  0
   17.4003   19.7353   24.3520 H   0  0  0  0  0  0  0  0  0  0  0  0
   18.1272   18.1040   23.1333 C   0  0  0  0  0  0  0  0  0  0  0  0
   18.4735   17.4045   23.9058 H   0  0  0  0  0  0  0  0  0  0  0  0
   17.0641   17.8761   22.9796 H   0  0  0  0  0  0  0  0  0  0  0  0
   18.8679   17.8331   21.7961 C   0  0  0  0  0  0  0  0  0  0  0  0
   18.4279   18.4416   20.9938 H   0  0  0  0  0  0  0  0  0  0  0  0
   18.6683   16.7895   21.5158 H   0  0  0  0  0  0  0  0  0  0  0  0
   20.4046   18.0334   21.8368 C   0  0  0  0  0  0  0  0  0  0  0  0
   20.7858   17.8384   22.8480 H   0  0  0  0  0  0  0  0  0  0  0  0
   20.8724   17.2751   21.1935 H   0  0  0  0  0  0  0  0  0  0  0  0
   20.8513   19.4267   21.3305 C   0  0  0  0  0  0  0  0  0  0  0  0
   20.3035   20.2274   21.8415 H   0  0  0  0  0  0  0  0  0  0  0  0
   20.6012   19.5218   20.2644 H   0  0  0  0  0  0  0  0  0  0  0  0
   22.3682   19.6420   21.5164 C   0  0  0  0  0  0  0  0  0  0  0  0
   22.6518   19.5868   22.5753 H   0  0  0  0  0  0  0  0  0  0  0  0
   22.6687   20.6280   21.1384 H   0  0  0  0  0  0  0  0  0  0  0  0
   22.9434   18.8834   20.9696 H   0  0  0  0  0  0  0  0  0  0  0  0
  1  2  1  0  0  0  0
  1  3  1  0  0  0  0
  1  4  1  0  0  0  0
  1  5  1  0  0  0  0
  5  6  1  0  0  0  0
  5  7  1  0  0  0  0
  5  8  1  0  0  0  0
  8  9  1  0  0  0  0
  8 10  1  0  0  0  0
  8 11  1  0  0  0  0
 11 12  1  0  0  0  0
 11 13  1  0  0  0  0
 11 14  1  0  0  0  0
 14 15  1  0  0  0  0
 14 16  1  0  0  0  0
 14 17  1  0  0  0  0
 17 18  1  0  0  0  0
 17 19  1  0  0  0  0
 17 20  1  0  0  0  0
 20 21  1  0  0  0  0
 20 22  1  0  0  0  0
 20 23  1  0  0  0  0
M  END
> <VConfSearch Rank>
112

> <Conf_Id>
5

> <Delta U+W>
6.087

> <U+W>
-2.295

> <U>
52.836

> <W>
-55.131

> <W(PB)>
-57.202

> <W(SA)>
2.071

> <Valence>
5.785

> <Coulomb>
46.744

> <VdW>
0.307

> <VdW6>
-7.672

> <VdW12>
7.980

> <Bond>
0.217

> <Angle>
1.470

> <Pdih>
4.098

> <Idih>
0.000

> <Tether>
0.000

$$$$
VeraChem MOL file


 23 22  0  0  0  0  0  0  0  0999 V2000     
   17.1384   18.3209   19.8898 N   0  3  0  0  0  0  0  0  0  0  0  0
   16.4155   17.9600   20.5206 H   0  0  0  0  0  0  0  0  0  0  0  0
   17.0397   17.8149   19.0030 H   0  0  0  0  0  0  0  0  0  0  0  0
   16.9103   19.3021   19.6996 H   0  0  0  0  0  0  0  0  0  0  0  0
   18.5278   18.1662   20.4742 C   0  0  0  0  0  0  0  0  0  0  0  0
   19.2463   18.5418   19.7406 H   0  0  0  0  0  0  0  0  0  0  0  0
   18.7145   17.0992   20.6230 H   0  0  0  0  0  0  0  0  0  0  0  0
   18.7089   18.9146   21.8068 C   0  0  0  0  0  0  0  0  0  0  0  0
   18.5046   19.9830   21.6561 H   0  0  0  0  0  0  0  0  0  0  0  0
   17.9746   18.5456   22.5354 H   0  0  0  0  0  0  0  0  0  0  0  0
   20.1363   18.7318   22.3685 C   0  0  0  0  0  0  0  0  0  0  0  0
   20.8681   19.0972   21.6346 H   0  0  0  0  0  0  0  0  0  0  0  0
   20.3387   17.6613   22.5129 H   0  0  0  0  0  0  0  0  0  0  0  0
   20.3294   19.4796   23.7074 C   0  0  0  0  0  0  0  0  0  0  0  0
   20.1273   20.5500   23.5631 H   0  0  0  0  0  0  0  0  0  0  0  0
   19.5977   19.1144   24.4413 H   0  0  0  0  0  0  0  0  0  0  0  0
   21.7570   19.2966   24.2689 C   0  0  0  0  0  0  0  0  0  0  0  0
   22.4927   19.6628   23.5391 H   0  0  0  0  0  0  0  0  0  0  0  0
   21.9633   18.2273   24.4173 H   0  0  0  0  0  0  0  0  0  0  0  0
   21.9461   20.0446   25.6057 C   0  0  0  0  0  0  0  0  0  0  0  0
   22.9652   19.9029   25.9885 H   0  0  0  0  0  0  0  0  0  0  0  0
   21.2461   19.6759   26.3669 H   0  0  0  0  0  0  0  0  0  0  0  0
   21.7797   21.1227   25.4819 H   0  0  0  0  0  0  0  0  0  0  0  0
  1  2  1  0  0  0  0
  1  3  1  0  0  0  0
  1  4  1  0  0  0  0
  1  5  1  0  0  0  0
  5  6  1  0  0  0  0
  5  7  1  0  0  0  0
  5  8  1  0  0  0  0
  8  9  1  0  0  0  0
  8 10  1  0  0  0  0
  8 11  1  0  0  0  0
 11 12  1  0  0  0  0
 11 13  1  0  0  0  0
 11 14  1  0  0  0  0
 14 15  1  0  0  0  0
 14 16  1  0  0  0  0
 14 17  1  0  0  0  0
 17 18  1  0  0  0  0
 17 19  1  0  0  0  0
 17 20  1  0  0  0  0
 20 21  1  0  0  0  0
 20 22  1  0  0  0  0
 20 23  1  0  0  0  0
M  END
> <VConfSearch Rank>
113

> <Conf_Id>
40

> <Delta U+W>
0.000

> <U+W>
-8.382

> <U>
46.604

> <W>
-54.986

> <W(PB)>
-57.162

> <W(SA)>
2.176

> <Valence>
1.727

> <Coulomb>
44.434

> <VdW>
0.443

> <VdW6>
-4.623

> <VdW12>
5.066

> <Bond>
0.112

> <Angle>
0.386

> <Pdih>
1.228

> <Idih>
0.000

> <Tether>
0.000

$$$$
VeraChem MOL file


 23 22  0  0  0  0  0  0  0  0999 V2000     
   19.6959   20.3944   19.3117 N   0  3  0  0  0  0  0  0  0  0  0  0
   19.6376   21.4170   19.3528 H   0  0  0  0  0  0  0  0  0  0  0  0
   18.7660   20.0497   19.0521 H   0  0  0  0  0  0  0  0  0  0  0  0
   20.3267   20.1629   18.5368 H   0  0  0  0  0  0  0  0  0  0  0  0
   20.1729   19.8021   20.6222 C   0  0  0  0  0  0  0  0  0  0  0  0
   21.1762   20.1883   20.8217 H   0  0  0  0  0  0  0  0  0  0  0  0
   20.2401   18.7187   20.4951 H   0  0  0  0  0  0  0  0  0  0  0  0
   19.2454   20.1329   21.8069 C   0  0  0  0  0  0  0  0  0  0  0  0
   19.1500   21.2236   21.8923 H   0  0  0  0  0  0  0  0  0  0  0  0
   18.2379   19.7442   21.6076 H   0  0  0  0  0  0  0  0  0  0  0  0
   19.7639   19.5690   23.1510 C   0  0  0  0  0  0  0  0  0  0  0  0
   19.1143   19.9422   23.9533 H   0  0  0  0  0  0  0  0  0  0  0  0
   20.7680   19.9672   23.3524 H   0  0  0  0  0  0  0  0  0  0  0  0
   19.7979   18.0197   23.1880 C   0  0  0  0  0  0  0  0  0  0  0  0
   18.7896   17.6226   23.0072 H   0  0  0  0  0  0  0  0  0  0  0  0
   20.4282   17.6464   22.3701 H   0  0  0  0  0  0  0  0  0  0  0  0
   20.3469   17.4473   24.5175 C   0  0  0  0  0  0  0  0  0  0  0  0
   21.3599   17.8331   24.6984 H   0  0  0  0  0  0  0  0  0  0  0  0
   20.4471   16.3575   24.4164 H   0  0  0  0  0  0  0  0  0  0  0  0
   19.4484   17.7517   25.7379 C   0  0  0  0  0  0  0  0  0  0  0  0
   19.4174   18.8257   25.9590 H   0  0  0  0  0  0  0  0  0  0  0  0
   19.8307   17.2428   26.6323 H   0  0  0  0  0  0  0  0  0  0  0  0
   18.4209   17.4048   25.5684 H   0  0  0  0  0  0  0  0  0  0  0  0
  1  2  1  0  0  0  0
  1  3  1  0  0  0  0
  1  4  1  0  0  0  0
  1  5  1  0  0  0  0
  5  6  1  0  0  0  0
  5  7  1  0  0  0  0
  5  8  1  0  0  0  0
  8  9  1  0  0  0  0
  8 10  1  0  0  0  0
  8 11  1  0  0  0  0
 11 12  1  0  0  0  0
 11 13  1  0  0  0  0
 11 14  1  0  0  0  0
 14 15  1  0  0  0  0
 14 16  1  0  0  0  0
 14 17  1  0  0  0  0
 17 18  1  0  0  0  0
 17 19  1  0  0  0  0
 17 20  1  0  0  0  0
 20 21  1  0  0  0  0
 20 22  1  0  0  0  0
 20 23  1  0  0  0  0
M  END
> <VConfSearch Rank>
114

> <Conf_Id>
65

> <Delta U+W>
1.004

> <U+W>
-7.378

> <U>
48.047

> <W>
-55.425

> <W(PB)>
-57.542

> <W(SA)>
2.116

> <Valence>
2.583

> <Coulomb>
44.791

> <VdW>
0.673

> <VdW6>
-5.788

> <VdW12>
6.462

> <Bond>
0.177

> <Angle>
0.787

> <Pdih>
1.619

> <Idih>
0.000

> <Tether>
0.000

$$$$
VeraChem MOL file


 23 22  0  0  0  0  0  0  0  0999 V2000     
   17.6017   16.1770   22.6079 N   0  3  0  0  0  0  0  0  0  0  0  0
   17.1176   16.0987   21.7078 H   0  0  0  0  0  0  0  0  0  0  0  0
   16.9242   15.9202   23.3339 H   0  0  0  0  0  0  0  0  0  0  0  0
   18.3356   15.4613   22.6188 H   0  0  0  0  0  0  0  0  0  0  0  0
   18.1638   17.5667   22.8286 C   0  0  0  0  0  0  0  0  0  0  0  0
   18.6352   17.5844   23.8145 H   0  0  0  0  0  0  0  0  0  0  0  0
   17.3282   18.2718   22.8336 H   0  0  0  0  0  0  0  0  0  0  0  0
   19.1856   17.9820   21.7531 C   0  0  0  0  0  0  0  0  0  0  0  0
   20.0257   17.2747   21.7484 H   0  0  0  0  0  0  0  0  0  0  0  0
   18.7118   17.9135   20.7648 H   0  0  0  0  0  0  0  0  0  0  0  0
   19.7180   19.4206   21.9544 C   0  0  0  0  0  0  0  0  0  0  0  0
   18.8763   20.1268   21.9489 H   0  0  0  0  0  0  0  0  0  0  0  0
   20.3461   19.6779   21.0917 H   0  0  0  0  0  0  0  0  0  0  0  0
   20.5347   19.5895   23.2610 C   0  0  0  0  0  0  0  0  0  0  0  0
   19.9135   19.3083   24.1215 H   0  0  0  0  0  0  0  0  0  0  0  0
   21.3882   18.8976   23.2565 H   0  0  0  0  0  0  0  0  0  0  0  0
   21.0432   21.0341   23.4869 C   0  0  0  0  0  0  0  0  0  0  0  0
   21.5059   21.0925   24.4821 H   0  0  0  0  0  0  0  0  0  0  0  0
   20.1925   21.7297   23.5028 H   0  0  0  0  0  0  0  0  0  0  0  0
   22.0745   21.4972   22.4326 C   0  0  0  0  0  0  0  0  0  0  0  0
   21.6246   21.5777   21.4354 H   0  0  0  0  0  0  0  0  0  0  0  0
   22.9200   20.7996   22.3740 H   0  0  0  0  0  0  0  0  0  0  0  0
   22.4732   22.4859   22.6942 H   0  0  0  0  0  0  0  0  0  0  0  0
  1  2  1  0  0  0  0
  1  3  1  0  0  0  0
  1  4  1  0  0  0  0
  1  5  1  0  0  0  0
  5  6  1  0  0  0  0
  5  7  1  0  0  0  0
  5  8  1  0  0  0  0
  8  9  1  0  0  0  0
  8 10  1  0  0  0  0
  8 11  1  0  0  0  0
 11 12  1  0  0  0  0
 11 13  1  0  0  0  0
 11 14  1  0  0  0  0
 14 15  1  0  0  0  0
 14 16  1  0  0  0  0
 14 17  1  0  0  0  0
 17 18  1  0  0  0  0
 17 19  1  0  0  0  0
 17 20  1  0  0  0  0
 20 21  1  0  0  0  0
 20 22  1  0  0  0  0
 20 23  1  0  0  0  0
M  END
> <VConfSearch Rank>
115

> <Conf_Id>
92

> <Delta U+W>
0.973

> <U+W>
-7.409

> <U>
48.047

> <W>
-55.456

> <W(PB)>
-57.595

> <W(SA)>
2.138

> <Valence>
2.583

> <Coulomb>
44.791

> <VdW>
0.674

> <VdW6>
-5.789

> <VdW12>
6.462

> <Bond>
0.177

> <Angle>
0.787

> <Pdih>
1.619

> <Idih>
0.000

> <Tether>
0.000

$$$$
VeraChem MOL file


 23 22  0  0  0  0  0  0  0  0999 V2000     
   22.4240   19.7244   20.4223 N   0  3  0  0  0  0  0  0  0  0  0  0
   22.3602   20.4946   19.7481 H   0  0  0  0  0  0  0  0  0  0  0  0
   22.8461   18.9311   19.9289 H   0  0  0  0  0  0  0  0  0  0  0  0
   23.0880   20.0167   21.1465 H   0  0  0  0  0  0  0  0  0  0  0  0
   21.0704   19.3724   21.0050 C   0  0  0  0  0  0  0  0  0  0  0  0
   20.4080   19.0994   20.1791 H   0  0  0  0  0  0  0  0  0  0  0  0
   20.6694   20.2682   21.4861 H   0  0  0  0  0  0  0  0  0  0  0  0
   21.1331   18.2174   22.0223 C   0  0  0  0  0  0  0  0  0  0  0  0
   21.5785   17.3377   21.5390 H   0  0  0  0  0  0  0  0  0  0  0  0
   21.7991   18.4914   22.8514 H   0  0  0  0  0  0  0  0  0  0  0  0
   19.7414   17.8339   22.5782 C   0  0  0  0  0  0  0  0  0  0  0  0
   19.8506   16.9494   23.2211 H   0  0  0  0  0  0  0  0  0  0  0  0
   19.0851   17.5356   21.7488 H   0  0  0  0  0  0  0  0  0  0  0  0
   19.0752   18.9722   23.3881 C   0  0  0  0  0  0  0  0  0  0  0  0
   19.7483   19.2904   24.1963 H   0  0  0  0  0  0  0  0  0  0  0  0
   18.9150   19.8473   22.7442 H   0  0  0  0  0  0  0  0  0  0  0  0
   17.7221   18.5322   23.9899 C   0  0  0  0  0  0  0  0  0  0  0  0
   17.8717   17.6613   24.6435 H   0  0  0  0  0  0  0  0  0  0  0  0
   17.0449   18.2120   23.1856 H   0  0  0  0  0  0  0  0  0  0  0  0
   17.0580   19.6686   24.7962 C   0  0  0  0  0  0  0  0  0  0  0  0
   17.6978   19.9876   25.6293 H   0  0  0  0  0  0  0  0  0  0  0  0
   16.0992   19.3371   25.2157 H   0  0  0  0  0  0  0  0  0  0  0  0
   16.8634   20.5422   24.1606 H   0  0  0  0  0  0  0  0  0  0  0  0
  1  2  1  0  0  0  0
  1  3  1  0  0  0  0
  1  4  1  0  0  0  0
  1  5  1  0  0  0  0
  5  6  1  0  0  0  0
  5  7  1  0  0  0  0
  5  8  1  0  0  0  0
  8  9  1  0  0  0  0
  8 10  1  0  0  0  0
  8 11  1  0  0  0  0
 11 12  1  0  0  0  0
 11 13  1  0  0  0  0
 11 14  1  0  0  0  0
 14 15  1  0  0  0  0
 14 16  1  0  0  0  0
 14 17  1  0  0  0  0
 17 18  1  0  0  0  0
 17 19  1  0  0  0  0
 17 20  1  0  0  0  0
 20 21  1  0  0  0  0
 20 22  1  0  0  0  0
 20 23  1  0  0  0  0
M  END
> <VConfSearch Rank>
116

> <Conf_Id>
42

> <Delta U+W>
0.365

> <U+W>
-8.017

> <U>
47.375

> <W>
-55.392

> <W(PB)>
-57.543

> <W(SA)>
2.152

> <Valence>
2.032

> <Coulomb>
44.843

> <VdW>
0.499

> <VdW6>
-5.218

> <VdW12>
5.717

> <Bond>
0.135

> <Angle>
0.514

> <Pdih>
1.383

> <Idih>
0.000

> <Tether>
0.000

$$$$
VeraChem MOL file


 23 22  0  0  0  0  0  0  0  0999 V2000     
   20.6851   21.6486   21.1570 N   0  3  0  0  0  0  0  0  0  0  0  0
   19.9584   22.2177   21.6028 H   0  0  0  0  0  0  0  0  0  0  0  0
   21.0385   22.1870   20.3588 H   0  0  0  0  0  0  0  0  0  0  0  0
   21.4565   21.5644   21.8258 H   0  0  0  0  0  0  0  0  0  0  0  0
   20.1572   20.2923   20.7313 C   0  0  0  0  0  0  0  0  0  0  0  0
   20.9709   19.7480   20.2443 H   0  0  0  0  0  0  0  0  0  0  0  0
   19.3705   20.4620   19.9911 H   0  0  0  0  0  0  0  0  0  0  0  0
   19.5915   19.4508   21.8920 C   0  0  0  0  0  0  0  0  0  0  0  0
   18.7932   20.0109   22.3967 H   0  0  0  0  0  0  0  0  0  0  0  0
   19.1304   18.5535   21.4615 H   0  0  0  0  0  0  0  0  0  0  0  0
   20.6776   19.0321   22.9126 C   0  0  0  0  0  0  0  0  0  0  0  0
   21.2103   19.9246   23.2660 H   0  0  0  0  0  0  0  0  0  0  0  0
   21.4286   18.4076   22.4090 H   0  0  0  0  0  0  0  0  0  0  0  0
   20.1322   18.2801   24.1544 C   0  0  0  0  0  0  0  0  0  0  0  0
   20.9841   18.0782   24.8184 H   0  0  0  0  0  0  0  0  0  0  0  0
   19.4606   18.9344   24.7272 H   0  0  0  0  0  0  0  0  0  0  0  0
   19.4322   16.9313   23.8455 C   0  0  0  0  0  0  0  0  0  0  0  0
   19.6601   16.2250   24.6562 H   0  0  0  0  0  0  0  0  0  0  0  0
   19.8480   16.4852   22.9313 H   0  0  0  0  0  0  0  0  0  0  0  0
   17.8940   17.0492   23.7356 C   0  0  0  0  0  0  0  0  0  0  0  0
   17.4621   17.4235   24.6728 H   0  0  0  0  0  0  0  0  0  0  0  0
   17.4472   16.0673   23.5326 H   0  0  0  0  0  0  0  0  0  0  0  0
   17.5880   17.7259   22.9302 H   0  0  0  0  0  0  0  0  0  0  0  0
  1  2  1  0  0  0  0
  1  3  1  0  0  0  0
  1  4  1  0  0  0  0
  1  5  1  0  0  0  0
  5  6  1  0  0  0  0
  5  7  1  0  0  0  0
  5  8  1  0  0  0  0
  8  9  1  0  0  0  0
  8 10  1  0  0  0  0
  8 11  1  0  0  0  0
 11 12  1  0  0  0  0
 11 13  1  0  0  0  0
 11 14  1  0  0  0  0
 14 15  1  0  0  0  0
 14 16  1  0  0  0  0
 14 17  1  0  0  0  0
 17 18  1  0  0  0  0
 17 19  1  0  0  0  0
 17 20  1  0  0  0  0
 20 21  1  0  0  0  0
 20 22  1  0  0  0  0
 20 23  1  0  0  0  0
M  END
> <VConfSearch Rank>
117

> <Conf_Id>
3

> <Delta U+W>
3.283

> <U+W>
-5.099

> <U>
50.701

> <W>
-55.800

> <W(PB)>
-57.867

> <W(SA)>
2.067

> <Valence>
4.880

> <Coulomb>
45.095

> <VdW>
0.726

> <VdW6>
-6.620

> <VdW12>
7.346

> <Bond>
0.222

> <Angle>
1.260

> <Pdih>
3.398

> <Idih>
0.000

> <Tether>
0.000

$$$$
VeraChem MOL file


 23 22  0  0  0  0  0  0  0  0999 V2000     
   21.3401   20.4876   20.5702 N   0  3  0  0  0  0  0  0  0  0  0  0
   20.8548   20.5806   19.6722 H   0  0  0  0  0  0  0  0  0  0  0  0
   22.2339   20.9825   20.4800 H   0  0  0  0  0  0  0  0  0  0  0  0
   20.7857   20.9925   21.2683 H   0  0  0  0  0  0  0  0  0  0  0  0
   21.5370   19.0348   20.9561 C   0  0  0  0  0  0  0  0  0  0  0  0
   22.0842   19.0062   21.9018 H   0  0  0  0  0  0  0  0  0  0  0  0
   22.1621   18.5688   20.1896 H   0  0  0  0  0  0  0  0  0  0  0  0
   20.2190   18.2448   21.0903 C   0  0  0  0  0  0  0  0  0  0  0  0
   19.7053   18.2384   20.1198 H   0  0  0  0  0  0  0  0  0  0  0  0
   20.4577   17.1970   21.3162 H   0  0  0  0  0  0  0  0  0  0  0  0
   19.2568   18.7940   22.1739 C   0  0  0  0  0  0  0  0  0  0  0  0
   18.3420   18.1877   22.1548 H   0  0  0  0  0  0  0  0  0  0  0  0
   18.9506   19.8171   21.9184 H   0  0  0  0  0  0  0  0  0  0  0  0
   19.8652   18.7690   23.5993 C   0  0  0  0  0  0  0  0  0  0  0  0
   20.1456   17.7402   23.8641 H   0  0  0  0  0  0  0  0  0  0  0  0
   20.7933   19.3553   23.6135 H   0  0  0  0  0  0  0  0  0  0  0  0
   18.9193   19.3411   24.6830 C   0  0  0  0  0  0  0  0  0  0  0  0
   18.6440   20.3742   24.4289 H   0  0  0  0  0  0  0  0  0  0  0  0
   19.4665   19.3946   25.6346 H   0  0  0  0  0  0  0  0  0  0  0  0
   17.6405   18.4985   24.8929 C   0  0  0  0  0  0  0  0  0  0  0  0
   17.8886   17.4526   25.1156 H   0  0  0  0  0  0  0  0  0  0  0  0
   16.9938   18.5179   24.0071 H   0  0  0  0  0  0  0  0  0  0  0  0
   17.0562   18.8911   25.7352 H   0  0  0  0  0  0  0  0  0  0  0  0
  1  2  1  0  0  0  0
  1  3  1  0  0  0  0
  1  4  1  0  0  0  0
  1  5  1  0  0  0  0
  5  6  1  0  0  0  0
  5  7  1  0  0  0  0
  5  8  1  0  0  0  0
  8  9  1  0  0  0  0
  8 10  1  0  0  0  0
  8 11  1  0  0  0  0
 11 12  1  0  0  0  0
 11 13  1  0  0  0  0
 11 14  1  0  0  0  0
 14 15  1  0  0  0  0
 14 16  1  0  0  0  0
 14 17  1  0  0  0  0
 17 18  1  0  0  0  0
 17 19  1  0  0  0  0
 17 20  1  0  0  0  0
 20 21  1  0  0  0  0
 20 22  1  0  0  0  0
 20 23  1  0  0  0  0
M  END
> <VConfSearch Rank>
118

> <Conf_Id>
83

> <Delta U+W>
1.229

> <U+W>
-7.154

> <U>
48.727

> <W>
-55.880

> <W(PB)>
-57.960

> <W(SA)>
2.080

> <Valence>
2.671

> <Coulomb>
45.371

> <VdW>
0.684

> <VdW6>
-6.511

> <VdW12>
7.195

> <Bond>
0.203

> <Angle>
0.915

> <Pdih>
1.554

> <Idih>
0.000

> <Tether>
0.000

$$$$
VeraChem MOL file


 23 22  0  0  0  0  0  0  0  0999 V2000     
   18.0646   19.3519   20.2065 N   0  3  0  0  0  0  0  0  0  0  0  0
   18.3825   20.1028   19.5856 H   0  0  0  0  0  0  0  0  0  0  0  0
   17.8029   19.7851   21.0972 H   0  0  0  0  0  0  0  0  0  0  0  0
   17.2075   18.9665   19.7957 H   0  0  0  0  0  0  0  0  0  0  0  0
   19.1279   18.2875   20.3931 C   0  0  0  0  0  0  0  0  0  0  0  0
   19.3322   17.8463   19.4138 H   0  0  0  0  0  0  0  0  0  0  0  0
   18.7162   17.5059   21.0366 H   0  0  0  0  0  0  0  0  0  0  0  0
   20.4425   18.8234   20.9964 C   0  0  0  0  0  0  0  0  0  0  0  0
   21.1689   18.0012   21.0444 H   0  0  0  0  0  0  0  0  0  0  0  0
   20.8709   19.5698   20.3144 H   0  0  0  0  0  0  0  0  0  0  0  0
   20.2860   19.4491   22.4055 C   0  0  0  0  0  0  0  0  0  0  0  0
   19.6197   20.3205   22.3559 H   0  0  0  0  0  0  0  0  0  0  0  0
   21.2662   19.8315   22.7182 H   0  0  0  0  0  0  0  0  0  0  0  0
   19.7598   18.4459   23.4634 C   0  0  0  0  0  0  0  0  0  0  0  0
   18.7906   18.0445   23.1397 H   0  0  0  0  0  0  0  0  0  0  0  0
   20.4425   17.5877   23.5316 H   0  0  0  0  0  0  0  0  0  0  0  0
   19.5756   19.0714   24.8674 C   0  0  0  0  0  0  0  0  0  0  0  0
   19.0933   18.3315   25.5215 H   0  0  0  0  0  0  0  0  0  0  0  0
   18.8850   19.9241   24.8073 H   0  0  0  0  0  0  0  0  0  0  0  0
   20.9021   19.5213   25.5213 C   0  0  0  0  0  0  0  0  0  0  0  0
   21.6224   18.6941   25.5631 H   0  0  0  0  0  0  0  0  0  0  0  0
   20.7262   19.8648   26.5489 H   0  0  0  0  0  0  0  0  0  0  0  0
   21.3624   20.3515   24.9716 H   0  0  0  0  0  0  0  0  0  0  0  0
  1  2  1  0  0  0  0
  1  3  1  0  0  0  0
  1  4  1  0  0  0  0
  1  5  1  0  0  0  0
  5  6  1  0  0  0  0
  5  7  1  0  0  0  0
  5  8  1  0  0  0  0
  8  9  1  0  0  0  0
  8 10  1  0  0  0  0
  8 11  1  0  0  0  0
 11 12  1  0  0  0  0
 11 13  1  0  0  0  0
 11 14  1  0  0  0  0
 14 15  1  0  0  0  0
 14 16  1  0  0  0  0
 14 17  1  0  0  0  0
 17 18  1  0  0  0  0
 17 19  1  0  0  0  0
 17 20  1  0  0  0  0
 20 21  1  0  0  0  0
 20 22  1  0  0  0  0
 20 23  1  0  0  0  0
M  END
> <VConfSearch Rank>
119

> <Conf_Id>
50

> <Delta U+W>
1.252

> <U+W>
-7.130

> <U>
48.727

> <W>
-55.857

> <W(PB)>
-57.937

> <W(SA)>
2.080

> <Valence>
2.671

> <Coulomb>
45.371

> <VdW>
0.684

> <VdW6>
-6.511

> <VdW12>
7.196

> <Bond>
0.203

> <Angle>
0.915

> <Pdih>
1.554

> <Idih>
0.000

> <Tether>
0.000

$$$$
VeraChem MOL file


 23 22  0  0  0  0  0  0  0  0999 V2000     
   18.0148   16.5809   21.7061 N   0  3  0  0  0  0  0  0  0  0  0  0
   18.9499   16.3150   21.3828 H   0  0  0  0  0  0  0  0  0  0  0  0
   17.3456   16.2154   21.0202 H   0  0  0  0  0  0  0  0  0  0  0  0
   17.8445   16.0816   22.5849 H   0  0  0  0  0  0  0  0  0  0  0  0
   17.8836   18.0820   21.8758 C   0  0  0  0  0  0  0  0  0  0  0  0
   16.8547   18.2922   22.1805 H   0  0  0  0  0  0  0  0  0  0  0  0
   18.0525   18.5496   20.9020 H   0  0  0  0  0  0  0  0  0  0  0  0
   18.8551   18.6785   22.9126 C   0  0  0  0  0  0  0  0  0  0  0  0
   18.6094   19.7384   23.0423 H   0  0  0  0  0  0  0  0  0  0  0  0
   18.6851   18.2021   23.8873 H   0  0  0  0  0  0  0  0  0  0  0  0
   20.3407   18.5184   22.5003 C   0  0  0  0  0  0  0  0  0  0  0  0
   20.5000   18.9077   21.4852 H   0  0  0  0  0  0  0  0  0  0  0  0
   20.5768   17.4468   22.4561 H   0  0  0  0  0  0  0  0  0  0  0  0
   21.3294   19.1907   23.4886 C   0  0  0  0  0  0  0  0  0  0  0  0
   20.9086   19.1983   24.5035 H   0  0  0  0  0  0  0  0  0  0  0  0
   22.2318   18.5665   23.5476 H   0  0  0  0  0  0  0  0  0  0  0  0
   21.7772   20.6192   23.0861 C   0  0  0  0  0  0  0  0  0  0  0  0
   22.2883   20.5847   22.1139 H   0  0  0  0  0  0  0  0  0  0  0  0
   22.5266   20.9666   23.8110 H   0  0  0  0  0  0  0  0  0  0  0  0
   20.6311   21.6526   23.0256 C   0  0  0  0  0  0  0  0  0  0  0  0
   20.0627   21.6695   23.9645 H   0  0  0  0  0  0  0  0  0  0  0  0
   19.9406   21.4344   22.2017 H   0  0  0  0  0  0  0  0  0  0  0  0
   21.0323   22.6605   22.8581 H   0  0  0  0  0  0  0  0  0  0  0  0
  1  2  1  0  0  0  0
  1  3  1  0  0  0  0
  1  4  1  0  0  0  0
  1  5  1  0  0  0  0
  5  6  1  0  0  0  0
  5  7  1  0  0  0  0
  5  8  1  0  0  0  0
  8  9  1  0  0  0  0
  8 10  1  0  0  0  0
  8 11  1  0  0  0  0
 11 12  1  0  0  0  0
 11 13  1  0  0  0  0
 11 14  1  0  0  0  0
 14 15  1  0  0  0  0
 14 16  1  0  0  0  0
 14 17  1  0  0  0  0
 17 18  1  0  0  0  0
 17 19  1  0  0  0  0
 17 20  1  0  0  0  0
 20 21  1  0  0  0  0
 20 22  1  0  0  0  0
 20 23  1  0  0  0  0
M  END
> <VConfSearch Rank>
120

> <Conf_Id>
55

> <Delta U+W>
3.232

> <U+W>
-5.150

> <U>
50.625

> <W>
-55.776

> <W(PB)>
-57.839

> <W(SA)>
2.064

> <Valence>
4.837

> <Coulomb>
45.097

> <VdW>
0.692

> <VdW6>
-6.655

> <VdW12>
7.347

> <Bond>
0.223

> <Angle>
1.167

> <Pdih>
3.447

> <Idih>
0.000

> <Tether>
0.000

$$$$
VeraChem MOL file


 23 22  0  0  0  0  0  0  0  0999 V2000     
   16.9021   18.5533   21.6287 N   0  3  0  0  0  0  0  0  0  0  0  0
   16.3893   17.6905   21.8372 H   0  0  0  0  0  0  0  0  0  0  0  0
   16.6046   18.8582   20.6957 H   0  0  0  0  0  0  0  0  0  0  0  0
   16.5779   19.2643   22.2921 H   0  0  0  0  0  0  0  0  0  0  0  0
   18.4018   18.3513   21.7037 C   0  0  0  0  0  0  0  0  0  0  0  0
   18.8791   19.2957   21.4360 H   0  0  0  0  0  0  0  0  0  0  0  0
   18.6783   17.6054   20.9537 H   0  0  0  0  0  0  0  0  0  0  0  0
   18.8782   17.8857   23.0937 C   0  0  0  0  0  0  0  0  0  0  0  0
   18.5667   18.6031   23.8646 H   0  0  0  0  0  0  0  0  0  0  0  0
   18.3716   16.9399   23.3278 H   0  0  0  0  0  0  0  0  0  0  0  0
   20.4090   17.6560   23.1667 C   0  0  0  0  0  0  0  0  0  0  0  0
   20.7696   17.2209   22.2242 H   0  0  0  0  0  0  0  0  0  0  0  0
   20.6040   16.8975   23.9375 H   0  0  0  0  0  0  0  0  0  0  0  0
   21.2429   18.9130   23.5271 C   0  0  0  0  0  0  0  0  0  0  0  0
   20.9445   19.2779   24.5197 H   0  0  0  0  0  0  0  0  0  0  0  0
   22.2952   18.6101   23.6181 H   0  0  0  0  0  0  0  0  0  0  0  0
   21.1414   20.0683   22.5046 C   0  0  0  0  0  0  0  0  0  0  0  0
   20.1275   20.4888   22.5149 H   0  0  0  0  0  0  0  0  0  0  0  0
   21.3267   19.6875   21.4905 H   0  0  0  0  0  0  0  0  0  0  0  0
   22.1465   21.1968   22.8192 C   0  0  0  0  0  0  0  0  0  0  0  0
   23.1798   20.8282   22.7809 H   0  0  0  0  0  0  0  0  0  0  0  0
   21.9695   21.6154   23.8186 H   0  0  0  0  0  0  0  0  0  0  0  0
   22.0534   22.0128   22.0908 H   0  0  0  0  0  0  0  0  0  0  0  0
  1  2  1  0  0  0  0
  1  3  1  0  0  0  0
  1  4  1  0  0  0  0
  1  5  1  0  0  0  0
  5  6  1  0  0  0  0
  5  7  1  0  0  0  0
  5  8  1  0  0  0  0
  8  9  1  0  0  0  0
  8 10  1  0  0  0  0
  8 11  1  0  0  0  0
 11 12  1  0  0  0  0
 11 13  1  0  0  0  0
 11 14  1  0  0  0  0
 14 15  1  0  0  0  0
 14 16  1  0  0  0  0
 14 17  1  0  0  0  0
 17 18  1  0  0  0  0
 17 19  1  0  0  0  0
 17 20  1  0  0  0  0
 20 21  1  0  0  0  0
 20 22  1  0  0  0  0
 20 23  1  0  0  0  0
M  END
> <VConfSearch Rank>
121

> <Conf_Id>
93

> <Delta U+W>
2.589

> <U+W>
-5.793

> <U>
50.122

> <W>
-55.915

> <W(PB)>
-58.031

> <W(SA)>
2.115

> <Valence>
4.132

> <Coulomb>
45.536

> <VdW>
0.454

> <VdW6>
-6.262

> <VdW12>
6.715

> <Bond>
0.182

> <Angle>
1.157

> <Pdih>
2.794

> <Idih>
0.000

> <Tether>
0.000

$$$$
VeraChem MOL file


 23 22  0  0  0  0  0  0  0  0999 V2000     
   22.4004   20.5369   22.9412 N   0  3  0  0  0  0  0  0  0  0  0  0
   22.7139   19.8348   23.6191 H   0  0  0  0  0  0  0  0  0  0  0  0
   22.4192   21.4436   23.4203 H   0  0  0  0  0  0  0  0  0  0  0  0
   23.1077   20.5773   22.2003 H   0  0  0  0  0  0  0  0  0  0  0  0
   21.0246   20.2184   22.3921 C   0  0  0  0  0  0  0  0  0  0  0  0
   20.7446   21.0191   21.7023 H   0  0  0  0  0  0  0  0  0  0  0  0
   20.3220   20.2280   23.2273 H   0  0  0  0  0  0  0  0  0  0  0  0
   20.9672   18.8635   21.6595 C   0  0  0  0  0  0  0  0  0  0  0  0
   21.6907   18.8922   20.8338 H   0  0  0  0  0  0  0  0  0  0  0  0
   21.2909   18.0540   22.3271 H   0  0  0  0  0  0  0  0  0  0  0  0
   19.5669   18.5460   21.0767 C   0  0  0  0  0  0  0  0  0  0  0  0
   19.7006   17.8925   20.2035 H   0  0  0  0  0  0  0  0  0  0  0  0
   19.1023   19.4644   20.6917 H   0  0  0  0  0  0  0  0  0  0  0  0
   18.5991   17.8280   22.0532 C   0  0  0  0  0  0  0  0  0  0  0  0
   17.6743   17.5948   21.5076 H   0  0  0  0  0  0  0  0  0  0  0  0
   19.0291   16.8613   22.3498 H   0  0  0  0  0  0  0  0  0  0  0  0
   18.2419   18.6402   23.3194 C   0  0  0  0  0  0  0  0  0  0  0  0
   17.9184   19.6515   23.0361 H   0  0  0  0  0  0  0  0  0  0  0  0
   19.1288   18.7481   23.9570 H   0  0  0  0  0  0  0  0  0  0  0  0
   17.1262   17.9565   24.1382 C   0  0  0  0  0  0  0  0  0  0  0  0
   16.8929   18.5400   25.0382 H   0  0  0  0  0  0  0  0  0  0  0  0
   17.4309   16.9514   24.4579 H   0  0  0  0  0  0  0  0  0  0  0  0
   16.2042   17.8632   23.5496 H   0  0  0  0  0  0  0  0  0  0  0  0
  1  2  1  0  0  0  0
  1  3  1  0  0  0  0
  1  4  1  0  0  0  0
  1  5  1  0  0  0  0
  5  6  1  0  0  0  0
  5  7  1  0  0  0  0
  5  8  1  0  0  0  0
  8  9  1  0  0  0  0
  8 10  1  0  0  0  0
  8 11  1  0  0  0  0
 11 12  1  0  0  0  0
 11 13  1  0  0  0  0
 11 14  1  0  0  0  0
 14 15  1  0  0  0  0
 14 16  1  0  0  0  0
 14 17  1  0  0  0  0
 17 18  1  0  0  0  0
 17 19  1  0  0  0  0
 17 20  1  0  0  0  0
 20 21  1  0  0  0  0
 20 22  1  0  0  0  0
 20 23  1  0  0  0  0
M  END
> <VConfSearch Rank>
122

> <Conf_Id>
70

> <Delta U+W>
2.599

> <U+W>
-5.783

> <U>
50.122

> <W>
-55.906

> <W(PB)>
-58.010

> <W(SA)>
2.105

> <Valence>
4.132

> <Coulomb>
45.536

> <VdW>
0.454

> <VdW6>
-6.262

> <VdW12>
6.715

> <Bond>
0.182

> <Angle>
1.157

> <Pdih>
2.794

> <Idih>
0.000

> <Tether>
0.000

$$$$
VeraChem MOL file


 23 22  0  0  0  0  0  0  0  0999 V2000     
   22.5960   19.2317   23.1109 N   0  3  0  0  0  0  0  0  0  0  0  0
   23.2838   18.4867   22.9612 H   0  0  0  0  0  0  0  0  0  0  0  0
   23.0615   19.9631   23.6587 H   0  0  0  0  0  0  0  0  0  0  0  0
   22.3803   19.6335   22.1936 H   0  0  0  0  0  0  0  0  0  0  0  0
   21.3496   18.7161   23.8029 C   0  0  0  0  0  0  0  0  0  0  0  0
   20.6752   19.5615   23.9622 H   0  0  0  0  0  0  0  0  0  0  0  0
   21.6474   18.3302   24.7816 H   0  0  0  0  0  0  0  0  0  0  0  0
   20.6193   17.6090   23.0162 C   0  0  0  0  0  0  0  0  0  0  0  0
   21.2943   16.7519   22.8923 H   0  0  0  0  0  0  0  0  0  0  0  0
   19.7784   17.2423   23.6187 H   0  0  0  0  0  0  0  0  0  0  0  0
   20.1064   18.0594   21.6230 C   0  0  0  0  0  0  0  0  0  0  0  0
   19.5680   17.2228   21.1567 H   0  0  0  0  0  0  0  0  0  0  0  0
   20.9652   18.2604   20.9687 H   0  0  0  0  0  0  0  0  0  0  0  0
   19.1860   19.3075   21.6381 C   0  0  0  0  0  0  0  0  0  0  0  0
   19.7384   20.1787   22.0144 H   0  0  0  0  0  0  0  0  0  0  0  0
   18.9120   19.5479   20.6016 H   0  0  0  0  0  0  0  0  0  0  0  0
   17.8942   19.1126   22.4664 C   0  0  0  0  0  0  0  0  0  0  0  0
   18.1433   18.9410   23.5221 H   0  0  0  0  0  0  0  0  0  0  0  0
   17.3598   18.2188   22.1155 H   0  0  0  0  0  0  0  0  0  0  0  0
   16.9626   20.3391   22.3648 C   0  0  0  0  0  0  0  0  0  0  0  0
   16.0530   20.1852   22.9598 H   0  0  0  0  0  0  0  0  0  0  0  0
   16.6583   20.5192   21.3255 H   0  0  0  0  0  0  0  0  0  0  0  0
   17.4598   21.2441   22.7374 H   0  0  0  0  0  0  0  0  0  0  0  0
  1  2  1  0  0  0  0
  1  3  1  0  0  0  0
  1  4  1  0  0  0  0
  1  5  1  0  0  0  0
  5  6  1  0  0  0  0
  5  7  1  0  0  0  0
  5  8  1  0  0  0  0
  8  9  1  0  0  0  0
  8 10  1  0  0  0  0
  8 11  1  0  0  0  0
 11 12  1  0  0  0  0
 11 13  1  0  0  0  0
 11 14  1  0  0  0  0
 14 15  1  0  0  0  0
 14 16  1  0  0  0  0
 14 17  1  0  0  0  0
 17 18  1  0  0  0  0
 17 19  1  0  0  0  0
 17 20  1  0  0  0  0
 20 21  1  0  0  0  0
 20 22  1  0  0  0  0
 20 23  1  0  0  0  0
M  END
> <VConfSearch Rank>
123

> <Conf_Id>
72

> <Delta U+W>
1.051

> <U+W>
-7.331

> <U>
48.590

> <W>
-55.922

> <W(PB)>
-58.012

> <W(SA)>
2.090

> <Valence>
2.601

> <Coulomb>
45.520

> <VdW>
0.469

> <VdW6>
-6.867

> <VdW12>
7.336

> <Bond>
0.205

> <Angle>
0.962

> <Pdih>
1.434

> <Idih>
0.000

> <Tether>
0.000

$$$$
VeraChem MOL file


 23 22  0  0  0  0  0  0  0  0999 V2000     
   17.4953   17.5296   24.2470 N   0  3  0  0  0  0  0  0  0  0  0  0
   16.4861   17.4767   24.0714 H   0  0  0  0  0  0  0  0  0  0  0  0
   17.6199   17.5438   25.2644 H   0  0  0  0  0  0  0  0  0  0  0  0
   17.9036   16.6537   23.9053 H   0  0  0  0  0  0  0  0  0  0  0  0
   18.1191   18.7410   23.5844 C   0  0  0  0  0  0  0  0  0  0  0  0
   17.6195   19.6330   23.9719 H   0  0  0  0  0  0  0  0  0  0  0  0
   17.9227   18.6753   22.5111 H   0  0  0  0  0  0  0  0  0  0  0  0
   19.6357   18.8494   23.8291 C   0  0  0  0  0  0  0  0  0  0  0  0
   19.8241   18.8771   24.9106 H   0  0  0  0  0  0  0  0  0  0  0  0
   20.1368   17.9487   23.4523 H   0  0  0  0  0  0  0  0  0  0  0  0
   20.2570   20.1116   23.1811 C   0  0  0  0  0  0  0  0  0  0  0  0
   21.3305   20.1414   23.4102 H   0  0  0  0  0  0  0  0  0  0  0  0
   19.8278   21.0032   23.6588 H   0  0  0  0  0  0  0  0  0  0  0  0
   20.0506   20.2248   21.6464 C   0  0  0  0  0  0  0  0  0  0  0  0
   18.9823   20.3616   21.4310 H   0  0  0  0  0  0  0  0  0  0  0  0
   20.5421   21.1418   21.2934 H   0  0  0  0  0  0  0  0  0  0  0  0
   20.5789   19.0249   20.8198 C   0  0  0  0  0  0  0  0  0  0  0  0
   20.3668   19.2110   19.7576 H   0  0  0  0  0  0  0  0  0  0  0  0
   20.0274   18.1117   21.0806 H   0  0  0  0  0  0  0  0  0  0  0  0
   22.0961   18.7846   20.9891 C   0  0  0  0  0  0  0  0  0  0  0  0
   22.6683   19.6892   20.7457 H   0  0  0  0  0  0  0  0  0  0  0  0
   22.4355   17.9825   20.3210 H   0  0  0  0  0  0  0  0  0  0  0  0
   22.3442   18.4868   22.0155 H   0  0  0  0  0  0  0  0  0  0  0  0
  1  2  1  0  0  0  0
  1  3  1  0  0  0  0
  1  4  1  0  0  0  0
  1  5  1  0  0  0  0
  5  6  1  0  0  0  0
  5  7  1  0  0  0  0
  5  8  1  0  0  0  0
  8  9  1  0  0  0  0
  8 10  1  0  0  0  0
  8 11  1  0  0  0  0
 11 12  1  0  0  0  0
 11 13  1  0  0  0  0
 11 14  1  0  0  0  0
 14 15  1  0  0  0  0
 14 16  1  0  0  0  0
 14 17  1  0  0  0  0
 17 18  1  0  0  0  0
 17 19  1  0  0  0  0
 17 20  1  0  0  0  0
 20 21  1  0  0  0  0
 20 22  1  0  0  0  0
 20 23  1  0  0  0  0
M  END
> <VConfSearch Rank>
124

> <Conf_Id>
26

> <Delta U+W>
1.076

> <U+W>
-7.306

> <U>
48.641

> <W>
-55.947

> <W(PB)>
-58.031

> <W(SA)>
2.084

> <Valence>
2.922

> <Coulomb>
45.269

> <VdW>
0.449

> <VdW6>
-7.045

> <VdW12>
7.494

> <Bond>
0.220

> <Angle>
1.205

> <Pdih>
1.497

> <Idih>
0.000

> <Tether>
0.000

$$$$
VeraChem MOL file


 23 22  0  0  0  0  0  0  0  0999 V2000     
   21.0599   16.1311   22.9065 N   0  3  0  0  0  0  0  0  0  0  0  0
   21.5464   15.9570   23.7917 H   0  0  0  0  0  0  0  0  0  0  0  0
   21.4990   15.5288   22.2019 H   0  0  0  0  0  0  0  0  0  0  0  0
   20.0963   15.8012   23.0220 H   0  0  0  0  0  0  0  0  0  0  0  0
   21.1138   17.5925   22.5100 C   0  0  0  0  0  0  0  0  0  0  0  0
   20.6051   17.6987   21.5484 H   0  0  0  0  0  0  0  0  0  0  0  0
   22.1634   17.8680   22.3766 H   0  0  0  0  0  0  0  0  0  0  0  0
   20.4616   18.5245   23.5482 C   0  0  0  0  0  0  0  0  0  0  0  0
   19.4114   18.2405   23.6926 H   0  0  0  0  0  0  0  0  0  0  0  0
   20.9554   18.3826   24.5187 H   0  0  0  0  0  0  0  0  0  0  0  0
   20.5567   20.0190   23.1528 C   0  0  0  0  0  0  0  0  0  0  0  0
   21.6150   20.3137   23.1319 H   0  0  0  0  0  0  0  0  0  0  0  0
   20.0956   20.6290   23.9410 H   0  0  0  0  0  0  0  0  0  0  0  0
   19.9176   20.3723   21.7825 C   0  0  0  0  0  0  0  0  0  0  0  0
   20.0276   21.4522   21.6126 H   0  0  0  0  0  0  0  0  0  0  0  0
   20.4878   19.8881   20.9783 H   0  0  0  0  0  0  0  0  0  0  0  0
   18.4221   19.9931   21.6351 C   0  0  0  0  0  0  0  0  0  0  0  0
   18.2987   18.9035   21.6962 H   0  0  0  0  0  0  0  0  0  0  0  0
   18.0864   20.2776   20.6281 H   0  0  0  0  0  0  0  0  0  0  0  0
   17.5099   20.6808   22.6760 C   0  0  0  0  0  0  0  0  0  0  0  0
   17.7359   20.3425   23.6949 H   0  0  0  0  0  0  0  0  0  0  0  0
   16.4557   20.4486   22.4768 H   0  0  0  0  0  0  0  0  0  0  0  0
   17.6258   21.7718   22.6422 H   0  0  0  0  0  0  0  0  0  0  0  0
  1  2  1  0  0  0  0
  1  3  1  0  0  0  0
  1  4  1  0  0  0  0
  1  5  1  0  0  0  0
  5  6  1  0  0  0  0
  5  7  1  0  0  0  0
  5  8  1  0  0  0  0
  8  9  1  0  0  0  0
  8 10  1  0  0  0  0
  8 11  1  0  0  0  0
 11 12  1  0  0  0  0
 11 13  1  0  0  0  0
 11 14  1  0  0  0  0
 14 15  1  0  0  0  0
 14 16  1  0  0  0  0
 14 17  1  0  0  0  0
 17 18  1  0  0  0  0
 17 19  1  0  0  0  0
 17 20  1  0  0  0  0
 20 21  1  0  0  0  0
 20 22  1  0  0  0  0
 20 23  1  0  0  0  0
M  END
> <VConfSearch Rank>
125

> <Conf_Id>
90

> <Delta U+W>
1.131

> <U+W>
-7.251

> <U>
48.641

> <W>
-55.892

> <W(PB)>
-57.962

> <W(SA)>
2.070

> <Valence>
2.922

> <Coulomb>
45.269

> <VdW>
0.450

> <VdW6>
-7.045

> <VdW12>
7.495

> <Bond>
0.220

> <Angle>
1.205

> <Pdih>
1.497

> <Idih>
0.000

> <Tether>
0.000

$$$$
VeraChem MOL file


 23 22  0  0  0  0  0  0  0  0999 V2000     
   21.6702   20.4918   21.5275 N   0  3  0  0  0  0  0  0  0  0  0  0
   21.6942   21.3670   20.9934 H   0  0  0  0  0  0  0  0  0  0  0  0
   21.0512   19.8487   21.0245 H   0  0  0  0  0  0  0  0  0  0  0  0
   22.6142   20.0942   21.4928 H   0  0  0  0  0  0  0  0  0  0  0  0
   21.2053   20.7145   22.9532 C   0  0  0  0  0  0  0  0  0  0  0  0
   20.2106   21.1662   22.9186 H   0  0  0  0  0  0  0  0  0  0  0  0
   21.8873   21.4319   23.4176 H   0  0  0  0  0  0  0  0  0  0  0  0
   21.1638   19.4260   23.7999 C   0  0  0  0  0  0  0  0  0  0  0  0
   22.1765   19.0069   23.8670 H   0  0  0  0  0  0  0  0  0  0  0  0
   20.8730   19.6882   24.8259 H   0  0  0  0  0  0  0  0  0  0  0  0
   20.1968   18.3451   23.2549 C   0  0  0  0  0  0  0  0  0  0  0  0
   20.2483   17.4660   23.9120 H   0  0  0  0  0  0  0  0  0  0  0  0
   20.5409   18.0100   22.2683 H   0  0  0  0  0  0  0  0  0  0  0  0
   18.7278   18.8316   23.1718 C   0  0  0  0  0  0  0  0  0  0  0  0
   18.4304   19.2413   24.1470 H   0  0  0  0  0  0  0  0  0  0  0  0
   18.6415   19.6553   22.4507 H   0  0  0  0  0  0  0  0  0  0  0  0
   17.7318   17.7121   22.7845 C   0  0  0  0  0  0  0  0  0  0  0  0
   16.7097   18.1104   22.8521 H   0  0  0  0  0  0  0  0  0  0  0  0
   17.7908   16.8925   23.5143 H   0  0  0  0  0  0  0  0  0  0  0  0
   17.9568   17.1569   21.3596 C   0  0  0  0  0  0  0  0  0  0  0  0
   17.9288   17.9613   20.6132 H   0  0  0  0  0  0  0  0  0  0  0  0
   17.1731   16.4329   21.1016 H   0  0  0  0  0  0  0  0  0  0  0  0
   18.9215   16.6417   21.2751 H   0  0  0  0  0  0  0  0  0  0  0  0
  1  2  1  0  0  0  0
  1  3  1  0  0  0  0
  1  4  1  0  0  0  0
  1  5  1  0  0  0  0
  5  6  1  0  0  0  0
  5  7  1  0  0  0  0
  5  8  1  0  0  0  0
  8  9  1  0  0  0  0
  8 10  1  0  0  0  0
  8 11  1  0  0  0  0
 11 12  1  0  0  0  0
 11 13  1  0  0  0  0
 11 14  1  0  0  0  0
 14 15  1  0  0  0  0
 14 16  1  0  0  0  0
 14 17  1  0  0  0  0
 17 18  1  0  0  0  0
 17 19  1  0  0  0  0
 17 20  1  0  0  0  0
 20 21  1  0  0  0  0
 20 22  1  0  0  0  0
 20 23  1  0  0  0  0
M  END
> <VConfSearch Rank>
126

> <Conf_Id>
85

> <Delta U+W>
1.193

> <U+W>
-7.189

> <U>
48.775

> <W>
-55.965

> <W(PB)>
-58.038

> <W(SA)>
2.073

> <Valence>
2.602

> <Coulomb>
45.581

> <VdW>
0.592

> <VdW6>
-6.616

> <VdW12>
7.208

> <Bond>
0.196

> <Angle>
0.832

> <Pdih>
1.574

> <Idih>
0.000

> <Tether>
0.000

$$$$
VeraChem MOL file


 23 22  0  0  0  0  0  0  0  0999 V2000     
   19.3893   17.0564   23.3701 N   0  3  0  0  0  0  0  0  0  0  0  0
   19.1604   18.0213   23.6292 H   0  0  0  0  0  0  0  0  0  0  0  0
   19.7563   16.5918   24.2079 H   0  0  0  0  0  0  0  0  0  0  0  0
   18.5101   16.5873   23.1295 H   0  0  0  0  0  0  0  0  0  0  0  0
   20.3801   17.0133   22.2229 C   0  0  0  0  0  0  0  0  0  0  0  0
   20.5713   15.9589   22.0056 H   0  0  0  0  0  0  0  0  0  0  0  0
   21.3183   17.4670   22.5530 H   0  0  0  0  0  0  0  0  0  0  0  0
   19.8842   17.7098   20.9393 C   0  0  0  0  0  0  0  0  0  0  0  0
   20.4509   17.2958   20.0948 H   0  0  0  0  0  0  0  0  0  0  0  0
   18.8352   17.4431   20.7540 H   0  0  0  0  0  0  0  0  0  0  0  0
   20.0560   19.2525   20.9142 C   0  0  0  0  0  0  0  0  0  0  0  0
   19.7169   19.6046   19.9301 H   0  0  0  0  0  0  0  0  0  0  0  0
   21.1225   19.5120   20.9669 H   0  0  0  0  0  0  0  0  0  0  0  0
   19.2639   20.0258   21.9995 C   0  0  0  0  0  0  0  0  0  0  0  0
   18.9133   20.9732   21.5669 H   0  0  0  0  0  0  0  0  0  0  0  0
   18.3559   19.4722   22.2728 H   0  0  0  0  0  0  0  0  0  0  0  0
   20.1121   20.3603   23.2508 C   0  0  0  0  0  0  0  0  0  0  0  0
   20.9171   21.0533   22.9679 H   0  0  0  0  0  0  0  0  0  0  0  0
   20.6088   19.4648   23.6428 H   0  0  0  0  0  0  0  0  0  0  0  0
   19.2580   21.0032   24.3640 C   0  0  0  0  0  0  0  0  0  0  0  0
   18.7906   21.9329   24.0141 H   0  0  0  0  0  0  0  0  0  0  0  0
   19.8784   21.2469   25.2363 H   0  0  0  0  0  0  0  0  0  0  0  0
   18.4611   20.3255   24.6965 H   0  0  0  0  0  0  0  0  0  0  0  0
  1  2  1  0  0  0  0
  1  3  1  0  0  0  0
  1  4  1  0  0  0  0
  1  5  1  0  0  0  0
  5  6  1  0  0  0  0
  5  7  1  0  0  0  0
  5  8  1  0  0  0  0
  8  9  1  0  0  0  0
  8 10  1  0  0  0  0
  8 11  1  0  0  0  0
 11 12  1  0  0  0  0
 11 13  1  0  0  0  0
 11 14  1  0  0  0  0
 14 15  1  0  0  0  0
 14 16  1  0  0  0  0
 14 17  1  0  0  0  0
 17 18  1  0  0  0  0
 17 19  1  0  0  0  0
 17 20  1  0  0  0  0
 20 21  1  0  0  0  0
 20 22  1  0  0  0  0
 20 23  1  0  0  0  0
M  END
> <VConfSearch Rank>
127

> <Conf_Id>
82

> <Delta U+W>
5.994

> <U+W>
-2.388

> <U>
52.836

> <W>
-55.224

> <W(PB)>
-57.261

> <W(SA)>
2.037

> <Valence>
5.785

> <Coulomb>
46.744

> <VdW>
0.307

> <VdW6>
-7.672

> <VdW12>
7.979

> <Bond>
0.217

> <Angle>
1.470

> <Pdih>
4.098

> <Idih>
0.000

> <Tether>
0.000

$$$$
VeraChem MOL file


 23 22  0  0  0  0  0  0  0  0999 V2000     
   20.7688   20.6303   21.6871 N   0  3  0  0  0  0  0  0  0  0  0  0
   21.7327   20.5185   21.3564 H   0  0  0  0  0  0  0  0  0  0  0  0
   20.3895   21.4643   21.2257 H   0  0  0  0  0  0  0  0  0  0  0  0
   20.2343   19.8231   21.3504 H   0  0  0  0  0  0  0  0  0  0  0  0
   20.7037   20.7441   23.1978 C   0  0  0  0  0  0  0  0  0  0  0  0
   19.6665   20.9262   23.4911 H   0  0  0  0  0  0  0  0  0  0  0  0
   21.2943   21.6206   23.4778 H   0  0  0  0  0  0  0  0  0  0  0  0
   21.2503   19.5098   23.9439 C   0  0  0  0  0  0  0  0  0  0  0  0
   22.1814   19.1719   23.4698 H   0  0  0  0  0  0  0  0  0  0  0  0
   21.5300   19.8289   24.9567 H   0  0  0  0  0  0  0  0  0  0  0  0
   20.2578   18.3237   24.0781 C   0  0  0  0  0  0  0  0  0  0  0  0
   19.3840   18.6309   24.6693 H   0  0  0  0  0  0  0  0  0  0  0  0
   20.7552   17.5450   24.6729 H   0  0  0  0  0  0  0  0  0  0  0  0
   19.8006   17.6869   22.7406 C   0  0  0  0  0  0  0  0  0  0  0  0
   20.5820   17.8041   21.9782 H   0  0  0  0  0  0  0  0  0  0  0  0
   19.6928   16.6034   22.8890 H   0  0  0  0  0  0  0  0  0  0  0  0
   18.4427   18.2348   22.2375 C   0  0  0  0  0  0  0  0  0  0  0  0
   18.4446   19.3309   22.2090 H   0  0  0  0  0  0  0  0  0  0  0  0
   17.6528   17.9521   22.9476 H   0  0  0  0  0  0  0  0  0  0  0  0
   18.0880   17.6849   20.8398 C   0  0  0  0  0  0  0  0  0  0  0  0
   18.8396   17.9756   20.0946 H   0  0  0  0  0  0  0  0  0  0  0  0
   17.1163   18.0717   20.5063 H   0  0  0  0  0  0  0  0  0  0  0  0
   18.0267   16.5887   20.8519 H   0  0  0  0  0  0  0  0  0  0  0  0
  1  2  1  0  0  0  0
  1  3  1  0  0  0  0
  1  4  1  0  0  0  0
  1  5  1  0  0  0  0
  5  6  1  0  0  0  0
  5  7  1  0  0  0  0
  5  8  1  0  0  0  0
  8  9  1  0  0  0  0
  8 10  1  0  0  0  0
  8 11  1  0  0  0  0
 11 12  1  0  0  0  0
 11 13  1  0  0  0  0
 11 14  1  0  0  0  0
 14 15  1  0  0  0  0
 14 16  1  0  0  0  0
 14 17  1  0  0  0  0
 17 18  1  0  0  0  0
 17 19  1  0  0  0  0
 17 20  1  0  0  0  0
 20 21  1  0  0  0  0
 20 22  1  0  0  0  0
 20 23  1  0  0  0  0
M  END
> <VConfSearch Rank>
128

> <Conf_Id>
5

> <Delta U+W>
6.087

> <U+W>
-2.295

> <U>
52.836

> <W>
-55.131

> <W(PB)>
-57.202

> <W(SA)>
2.071

> <Valence>
5.785

> <Coulomb>
46.744

> <VdW>
0.307

> <VdW6>
-7.672

> <VdW12>
7.980

> <Bond>
0.217

> <Angle>
1.470

> <Pdih>
4.098

> <Idih>
0.000

> <Tether>
0.000

$$$$
VeraChem MOL file


 23 22  0  0  0  0  0  0  0  0999 V2000     
   22.3298   16.6110   24.1700 N   0  3  0  0  0  0  0  0  0  0  0  0
   22.7339   16.2815   23.2874 H   0  0  0  0  0  0  0  0  0  0  0  0
   22.3674   15.8242   24.8269 H   0  0  0  0  0  0  0  0  0  0  0  0
   22.9560   17.3351   24.5367 H   0  0  0  0  0  0  0  0  0  0  0  0
   20.9161   17.1250   23.9878 C   0  0  0  0  0  0  0  0  0  0  0  0
   20.5390   17.4301   24.9677 H   0  0  0  0  0  0  0  0  0  0  0  0
   20.3003   16.2976   23.6249 H   0  0  0  0  0  0  0  0  0  0  0  0
   20.8253   18.3073   23.0067 C   0  0  0  0  0  0  0  0  0  0  0  0
   21.4579   19.1297   23.3667 H   0  0  0  0  0  0  0  0  0  0  0  0
   21.2202   18.0012   22.0287 H   0  0  0  0  0  0  0  0  0  0  0  0
   19.3701   18.8009   22.8491 C   0  0  0  0  0  0  0  0  0  0  0  0
   18.9769   19.1011   23.8304 H   0  0  0  0  0  0  0  0  0  0  0  0
   18.7395   17.9739   22.4938 H   0  0  0  0  0  0  0  0  0  0  0  0
   19.2672   19.9887   21.8655 C   0  0  0  0  0  0  0  0  0  0  0  0
   19.8976   20.8158   22.2207 H   0  0  0  0  0  0  0  0  0  0  0  0
   19.6603   19.6887   20.8842 H   0  0  0  0  0  0  0  0  0  0  0  0
   17.8116   20.4820   21.7080 C   0  0  0  0  0  0  0  0  0  0  0  0
   17.4146   20.7857   22.6868 H   0  0  0  0  0  0  0  0  0  0  0  0
   17.1773   19.6587   21.3505 H   0  0  0  0  0  0  0  0  0  0  0  0
   17.7129   21.6681   20.7252 C   0  0  0  0  0  0  0  0  0  0  0  0
   16.6725   22.0042   20.6265 H   0  0  0  0  0  0  0  0  0  0  0  0
   18.0713   21.3847   19.7270 H   0  0  0  0  0  0  0  0  0  0  0  0
   18.3105   22.5205   21.0738 H   0  0  0  0  0  0  0  0  0  0  0  0
  1  2  1  0  0  0  0
  1  3  1  0  0  0  0
  1  4  1  0  0  0  0
  1  5  1  0  0  0  0
  5  6  1  0  0  0  0
  5  7  1  0  0  0  0
  5  8  1  0  0  0  0
  8  9  1  0  0  0  0
  8 10  1  0  0  0  0
  8 11  1  0  0  0  0
 11 12  1  0  0  0  0
 11 13  1  0  0  0  0
 11 14  1  0  0  0  0
 14 15  1  0  0  0  0
 14 16  1  0  0  0  0
 14 17  1  0  0  0  0
 17 18  1  0  0  0  0
 17 19  1  0  0  0  0
 17 20  1  0  0  0  0
 20 21  1  0  0  0  0
 20 22  1  0  0  0  0
 20 23  1  0  0  0  0
M  END
> <VConfSearch Rank>
129

> <Conf_Id>
40

> <Delta U+W>
0.000

> <U+W>
-8.382

> <U>
46.604

> <W>
-54.986

> <W(PB)>
-57.162

> <W(SA)>
2.176

> <Valence>
1.727

> <Coulomb>
44.434

> <VdW>
0.443

> <VdW6>
-4.623

> <VdW12>
5.066

> <Bond>
0.112

> <Angle>
0.386

> <Pdih>
1.228

> <Idih>
0.000

> <Tether>
0.000

$$$$
VeraChem MOL file


 23 22  0  0  0  0  0  0  0  0999 V2000     
   21.5289   16.4425   20.8730 N   0  3  0  0  0  0  0  0  0  0  0  0
   21.2143   16.3899   19.8987 H   0  0  0  0  0  0  0  0  0  0  0  0
   21.1101   15.6487   21.3682 H   0  0  0  0  0  0  0  0  0  0  0  0
   22.5429   16.2889   20.8672 H   0  0  0  0  0  0  0  0  0  0  0  0
   21.1635   17.7657   21.5145 C   0  0  0  0  0  0  0  0  0  0  0  0
   21.6643   18.5611   20.9560 H   0  0  0  0  0  0  0  0  0  0  0  0
   21.5550   17.7623   22.5349 H   0  0  0  0  0  0  0  0  0  0  0  0
   19.6453   18.0259   21.5379 C   0  0  0  0  0  0  0  0  0  0  0  0
   19.2589   17.9790   20.5111 H   0  0  0  0  0  0  0  0  0  0  0  0
   19.1419   17.2279   22.0997 H   0  0  0  0  0  0  0  0  0  0  0  0
   19.2811   19.4005   22.1476 C   0  0  0  0  0  0  0  0  0  0  0  0
   18.2016   19.5559   22.0232 H   0  0  0  0  0  0  0  0  0  0  0  0
   19.7784   20.1974   21.5775 H   0  0  0  0  0  0  0  0  0  0  0  0
   19.6540   19.5186   23.6474 C   0  0  0  0  0  0  0  0  0  0  0  0
   19.1400   18.7342   24.2199 H   0  0  0  0  0  0  0  0  0  0  0  0
   20.7297   19.3386   23.7739 H   0  0  0  0  0  0  0  0  0  0  0  0
   19.3234   20.9026   24.2571 C   0  0  0  0  0  0  0  0  0  0  0  0
   19.8434   21.6906   23.6946 H   0  0  0  0  0  0  0  0  0  0  0  0
   19.7233   20.9409   25.2801 H   0  0  0  0  0  0  0  0  0  0  0  0
   17.8092   21.2101   24.3046 C   0  0  0  0  0  0  0  0  0  0  0  0
   17.3850   21.3080   23.2978 H   0  0  0  0  0  0  0  0  0  0  0  0
   17.6259   22.1551   24.8321 H   0  0  0  0  0  0  0  0  0  0  0  0
   17.2619   20.4192   24.8338 H   0  0  0  0  0  0  0  0  0  0  0  0
  1  2  1  0  0  0  0
  1  3  1  0  0  0  0
  1  4  1  0  0  0  0
  1  5  1  0  0  0  0
  5  6  1  0  0  0  0
  5  7  1  0  0  0  0
  5  8  1  0  0  0  0
  8  9  1  0  0  0  0
  8 10  1  0  0  0  0
  8 11  1  0  0  0  0
 11 12  1  0  0  0  0
 11 13  1  0  0  0  0
 11 14  1  0  0  0  0
 14 15  1  0  0  0  0
 14 16  1  0  0  0  0
 14 17  1  0  0  0  0
 17 18  1  0  0  0  0
 17 19  1  0  0  0  0
 17 20  1  0  0  0  0
 20 21  1  0  0  0  0
 20 22  1  0  0  0  0
 20 23  1  0  0  0  0
M  END
> <VConfSearch Rank>
130

> <Conf_Id>
65

> <Delta U+W>
1.004

> <U+W>
-7.378

> <U>
48.047

> <W>
-55.425

> <W(PB)>
-57.542

> <W(SA)>
2.116

> <Valence>
2.583

> <Coulomb>
44.791

> <VdW>
0.673

> <VdW6>
-5.788

> <VdW12>
6.462

> <Bond>
0.177

> <Angle>
0.787

> <Pdih>
1.619

> <Idih>
0.000

> <Tether>
0.000

$$$$
VeraChem MOL file


 23 22  0  0  0  0  0  0  0  0999 V2000     
   18.2491   22.1159   21.6641 N   0  3  0  0  0  0  0  0  0  0  0  0
   18.3338   22.2596   20.6526 H   0  0  0  0  0  0  0  0  0  0  0  0
   18.3899   23.0300   22.1075 H   0  0  0  0  0  0  0  0  0  0  0  0
   17.2791   21.8411   21.8494 H   0  0  0  0  0  0  0  0  0  0  0  0
   19.2360   21.0851   22.1733 C   0  0  0  0  0  0  0  0  0  0  0  0
   19.1102   21.0076   23.2562 H   0  0  0  0  0  0  0  0  0  0  0  0
   20.2448   21.4540   21.9693 H   0  0  0  0  0  0  0  0  0  0  0  0
   19.0499   19.7000   21.5251 C   0  0  0  0  0  0  0  0  0  0  0  0
   18.0372   19.3284   21.7307 H   0  0  0  0  0  0  0  0  0  0  0  0
   19.1317   19.8019   20.4348 H   0  0  0  0  0  0  0  0  0  0  0  0
   20.0922   18.6649   22.0108 C   0  0  0  0  0  0  0  0  0  0  0  0
   21.1041   19.0350   21.7949 H   0  0  0  0  0  0  0  0  0  0  0  0
   19.9642   17.7470   21.4225 H   0  0  0  0  0  0  0  0  0  0  0  0
   19.9657   18.3368   23.5204 C   0  0  0  0  0  0  0  0  0  0  0  0
   20.0693   19.2592   24.1068 H   0  0  0  0  0  0  0  0  0  0  0  0
   18.9604   17.9473   23.7319 H   0  0  0  0  0  0  0  0  0  0  0  0
   21.0262   17.3268   24.0221 C   0  0  0  0  0  0  0  0  0  0  0  0
   20.9411   17.2410   25.1145 H   0  0  0  0  0  0  0  0  0  0  0  0
   22.0344   17.7161   23.8225 H   0  0  0  0  0  0  0  0  0  0  0  0
   20.8797   15.9188   23.4010 C   0  0  0  0  0  0  0  0  0  0  0  0
   21.0815   15.9298   22.3229 H   0  0  0  0  0  0  0  0  0  0  0  0
   19.8688   15.5209   23.5584 H   0  0  0  0  0  0  0  0  0  0  0  0
   21.5904   15.2204   23.8616 H   0  0  0  0  0  0  0  0  0  0  0  0
  1  2  1  0  0  0  0
  1  3  1  0  0  0  0
  1  4  1  0  0  0  0
  1  5  1  0  0  0  0
  5  6  1  0  0  0  0
  5  7  1  0  0  0  0
  5  8  1  0  0  0  0
  8  9  1  0  0  0  0
  8 10  1  0  0  0  0
  8 11  1  0  0  0  0
 11 12  1  0  0  0  0
 11 13  1  0  0  0  0
 11 14  1  0  0  0  0
 14 15  1  0  0  0  0
 14 16  1  0  0  0  0
 14 17  1  0  0  0  0
 17 18  1  0  0  0  0
 17 19  1  0  0  0  0
 17 20  1  0  0  0  0
 20 21  1  0  0  0  0
 20 22  1  0  0  0  0
 20 23  1  0  0  0  0
M  END
> <VConfSearch Rank>
131

> <Conf_Id>
92

> <Delta U+W>
0.973

> <U+W>
-7.409

> <U>
48.047

> <W>
-55.456

> <W(PB)>
-57.595

> <W(SA)>
2.138

> <Valence>
2.583

> <Coulomb>
44.791

> <VdW>
0.674

> <VdW6>
-5.789

> <VdW12>
6.462

> <Bond>
0.177

> <Angle>
0.787

> <Pdih>
1.619

> <Idih>
0.000

> <Tether>
0.000

$$$$
VeraChem MOL file


 23 22  0  0  0  0  0  0  0  0999 V2000     
   21.6579   21.7686   21.5995 N   0  3  0  0  0  0  0  0  0  0  0  0
   22.2676   21.7285   20.7757 H   0  0  0  0  0  0  0  0  0  0  0  0
   22.1855   22.2466   22.3372 H   0  0  0  0  0  0  0  0  0  0  0  0
   20.8664   22.3726   21.3553 H   0  0  0  0  0  0  0  0  0  0  0  0
   21.2044   20.3892   22.0321 C   0  0  0  0  0  0  0  0  0  0  0  0
   22.0952   19.7933   22.2483 H   0  0  0  0  0  0  0  0  0  0  0  0
   20.6789   19.9301   21.1908 H   0  0  0  0  0  0  0  0  0  0  0  0
   20.2863   20.4160   23.2688 C   0  0  0  0  0  0  0  0  0  0  0  0
   20.8094   20.9191   24.0929 H   0  0  0  0  0  0  0  0  0  0  0  0
   19.3920   21.0152   23.0518 H   0  0  0  0  0  0  0  0  0  0  0  0
   19.8647   19.0013   23.7314 C   0  0  0  0  0  0  0  0  0  0  0  0
   19.2927   19.0922   24.6653 H   0  0  0  0  0  0  0  0  0  0  0  0
   20.7607   18.4124   23.9723 H   0  0  0  0  0  0  0  0  0  0  0  0
   19.0107   18.2481   22.6832 C   0  0  0  0  0  0  0  0  0  0  0  0
   18.1330   18.8545   22.4202 H   0  0  0  0  0  0  0  0  0  0  0  0
   19.5882   18.1067   21.7598 H   0  0  0  0  0  0  0  0  0  0  0  0
   18.5456   16.8704   23.2051 C   0  0  0  0  0  0  0  0  0  0  0  0
   17.9589   17.0004   24.1253 H   0  0  0  0  0  0  0  0  0  0  0  0
   19.4200   16.2596   23.4704 H   0  0  0  0  0  0  0  0  0  0  0  0
   17.6952   16.1195   22.1584 C   0  0  0  0  0  0  0  0  0  0  0  0
   16.7950   16.6911   21.8975 H   0  0  0  0  0  0  0  0  0  0  0  0
   17.3741   15.1444   22.5472 H   0  0  0  0  0  0  0  0  0  0  0  0
   18.2670   15.9433   21.2379 H   0  0  0  0  0  0  0  0  0  0  0  0
  1  2  1  0  0  0  0
  1  3  1  0  0  0  0
  1  4  1  0  0  0  0
  1  5  1  0  0  0  0
  5  6  1  0  0  0  0
  5  7  1  0  0  0  0
  5  8  1  0  0  0  0
  8  9  1  0  0  0  0
  8 10  1  0  0  0  0
  8 11  1  0  0  0  0
 11 12  1  0  0  0  0
 11 13  1  0  0  0  0
 11 14  1  0  0  0  0
 14 15  1  0  0  0  0
 14 16  1  0  0  0  0
 14 17  1  0  0  0  0
 17 18  1  0  0  0  0
 17 19  1  0  0  0  0
 17 20  1  0  0  0  0
 20 21  1  0  0  0  0
 20 22  1  0  0  0  0
 20 23  1  0  0  0  0
M  END
> <VConfSearch Rank>
132

> <Conf_Id>
42

> <Delta U+W>
0.365

> <U+W>
-8.017

> <U>
47.375

> <W>
-55.392

> <W(PB)>
-57.543

> <W(SA)>
2.152

> <Valence>
2.032

> <Coulomb>
44.843

> <VdW>
0.499

> <VdW6>
-5.218

> <VdW12>
5.717

> <Bond>
0.135

> <Angle>
0.514

> <Pdih>
1.383

> <Idih>
0.000

> <Tether>
0.000

$$$$
VeraChem MOL file


 23 22  0  0  0  0  0  0  0  0999 V2000     
   20.9526   18.4125   19.7344 N   0  3  0  0  0  0  0  0  0  0  0  0
   20.7494   19.3588   19.3969 H   0  0  0  0  0  0  0  0  0  0  0  0
   21.1275   17.8316   18.9074 H   0  0  0  0  0  0  0  0  0  0  0  0
   21.8318   18.4599   20.2579 H   0  0  0  0  0  0  0  0  0  0  0  0
   19.8215   17.8607   20.5804 C   0  0  0  0  0  0  0  0  0  0  0  0
   20.0895   16.8459   20.8867 H   0  0  0  0  0  0  0  0  0  0  0  0
   18.9333   17.8012   19.9455 H   0  0  0  0  0  0  0  0  0  0  0  0
   19.5015   18.7112   21.8252 C   0  0  0  0  0  0  0  0  0  0  0  0
   19.2596   19.7370   21.5171 H   0  0  0  0  0  0  0  0  0  0  0  0
   18.6000   18.2959   22.2920 H   0  0  0  0  0  0  0  0  0  0  0  0
   20.6565   18.7216   22.8561 C   0  0  0  0  0  0  0  0  0  0  0  0
   21.5843   19.0387   22.3620 H   0  0  0  0  0  0  0  0  0  0  0  0
   20.8350   17.6977   23.2128 H   0  0  0  0  0  0  0  0  0  0  0  0
   20.4207   19.6560   24.0712 C   0  0  0  0  0  0  0  0  0  0  0  0
   21.3197   19.6108   24.7014 H   0  0  0  0  0  0  0  0  0  0  0  0
   20.3477   20.6999   23.7362 H   0  0  0  0  0  0  0  0  0  0  0  0
   19.1974   19.2878   24.9501 C   0  0  0  0  0  0  0  0  0  0  0  0
   19.4450   19.4977   26.0001 H   0  0  0  0  0  0  0  0  0  0  0  0
   18.9994   18.2082   24.8970 H   0  0  0  0  0  0  0  0  0  0  0  0
   17.9224   20.0873   24.5931 C   0  0  0  0  0  0  0  0  0  0  0  0
   18.0889   21.1653   24.7165 H   0  0  0  0  0  0  0  0  0  0  0  0
   17.0928   19.8015   25.2526 H   0  0  0  0  0  0  0  0  0  0  0  0
   17.6007   19.9126   23.5605 H   0  0  0  0  0  0  0  0  0  0  0  0
  1  2  1  0  0  0  0
  1  3  1  0  0  0  0
  1  4  1  0  0  0  0
  1  5  1  0  0  0  0
  5  6  1  0  0  0  0
  5  7  1  0  0  0  0
  5  8  1  0  0  0  0
  8  9  1  0  0  0  0
  8 10  1  0  0  0  0
  8 11  1  0  0  0  0
 11 12  1  0  0  0  0
 11 13  1  0  0  0  0
 11 14  1  0  0  0  0
 14 15  1  0  0  0  0
 14 16  1  0  0  0  0
 14 17  1  0  0  0  0
 17 18  1  0  0  0  0
 17 19  1  0  0  0  0
 17 20  1  0  0  0  0
 20 21  1  0  0  0  0
 20 22  1  0  0  0  0
 20 23  1  0  0  0  0
M  END
> <VConfSearch Rank>
133

> <Conf_Id>
3

> <Delta U+W>
3.283

> <U+W>
-5.099

> <U>
50.701

> <W>
-55.800

> <W(PB)>
-57.867

> <W(SA)>
2.067

> <Valence>
4.880

> <Coulomb>
45.095

> <VdW>
0.726

> <VdW6>
-6.620

> <VdW12>
7.346

> <Bond>
0.222

> <Angle>
1.260

> <Pdih>
3.398

> <Idih>
0.000

> <Tether>
0.000

$$$$
VeraChem MOL file


 23 22  0  0  0  0  0  0  0  0999 V2000     
   22.2270   17.4667   22.5473 N   0  3  0  0  0  0  0  0  0  0  0  0
   23.0658   18.0027   22.3033 H   0  0  0  0  0  0  0  0  0  0  0  0
   22.5323   16.5086   22.7492 H   0  0  0  0  0  0  0  0  0  0  0  0
   21.8615   17.8564   23.4214 H   0  0  0  0  0  0  0  0  0  0  0  0
   21.1915   17.5067   21.4407 C   0  0  0  0  0  0  0  0  0  0  0  0
   20.3408   16.8941   21.7499 H   0  0  0  0  0  0  0  0  0  0  0  0
   21.6348   17.0465   20.5535 H   0  0  0  0  0  0  0  0  0  0  0  0
   20.7115   18.9305   21.0919 C   0  0  0  0  0  0  0  0  0  0  0  0
   21.5669   19.5188   20.7342 H   0  0  0  0  0  0  0  0  0  0  0  0
   20.0096   18.8691   20.2496 H   0  0  0  0  0  0  0  0  0  0  0  0
   20.0333   19.6780   22.2679 C   0  0  0  0  0  0  0  0  0  0  0  0
   19.7710   20.6866   21.9232 H   0  0  0  0  0  0  0  0  0  0  0  0
   20.7502   19.8125   23.0887 H   0  0  0  0  0  0  0  0  0  0  0  0
   18.7623   18.9632   22.7932 C   0  0  0  0  0  0  0  0  0  0  0  0
   18.0348   18.8543   21.9771 H   0  0  0  0  0  0  0  0  0  0  0  0
   19.0192   17.9457   23.1158 H   0  0  0  0  0  0  0  0  0  0  0  0
   18.0948   19.6907   23.9856 C   0  0  0  0  0  0  0  0  0  0  0  0
   18.8148   19.7929   24.8095 H   0  0  0  0  0  0  0  0  0  0  0  0
   17.2781   19.0625   24.3681 H   0  0  0  0  0  0  0  0  0  0  0  0
   17.5227   21.0792   23.6193 C   0  0  0  0  0  0  0  0  0  0  0  0
   16.8244   21.0085   22.7752 H   0  0  0  0  0  0  0  0  0  0  0  0
   18.3176   21.7857   23.3505 H   0  0  0  0  0  0  0  0  0  0  0  0
   16.9772   21.5062   24.4708 H   0  0  0  0  0  0  0  0  0  0  0  0
  1  2  1  0  0  0  0
  1  3  1  0  0  0  0
  1  4  1  0  0  0  0
  1  5  1  0  0  0  0
  5  6  1  0  0  0  0
  5  7  1  0  0  0  0
  5  8  1  0  0  0  0
  8  9  1  0  0  0  0
  8 10  1  0  0  0  0
  8 11  1  0  0  0  0
 11 12  1  0  0  0  0
 11 13  1  0  0  0  0
 11 14  1  0  0  0  0
 14 15  1  0  0  0  0
 14 16  1  0  0  0  0
 14 17  1  0  0  0  0
 17 18  1  0  0  0  0
 17 19  1  0  0  0  0
 17 20  1  0  0  0  0
 20 21  1  0  0  0  0
 20 22  1  0  0  0  0
 20 23  1  0  0  0  0
M  END
> <VConfSearch Rank>
134

> <Conf_Id>
83

> <Delta U+W>
1.229

> <U+W>
-7.154

> <U>
48.727

> <W>
-55.880

> <W(PB)>
-57.960

> <W(SA)>
2.080

> <Valence>
2.671

> <Coulomb>
45.371

> <VdW>
0.684

> <VdW6>
-6.511

> <VdW12>
7.195

> <Bond>
0.203

> <Angle>
0.915

> <Pdih>
1.554

> <Idih>
0.000

> <Tether>
0.000

$$$$
VeraChem MOL file


 23 22  0  0  0  0  0  0  0  0999 V2000     
   17.2748   17.7792   21.6111 N   0  3  0  0  0  0  0  0  0  0  0  0
   17.4085   17.2260   20.7587 H   0  0  0  0  0  0  0  0  0  0  0  0
   17.4997   18.7516   21.3800 H   0  0  0  0  0  0  0  0  0  0  0  0
   16.2746   17.7465   21.8355 H   0  0  0  0  0  0  0  0  0  0  0  0
   18.1261   17.2649   22.7553 C   0  0  0  0  0  0  0  0  0  0  0  0
   17.8107   16.2403   22.9701 H   0  0  0  0  0  0  0  0  0  0  0  0
   17.9142   17.8754   23.6368 H   0  0  0  0  0  0  0  0  0  0  0  0
   19.6397   17.2820   22.4586 C   0  0  0  0  0  0  0  0  0  0  0  0
   20.1713   16.8446   23.3141 H   0  0  0  0  0  0  0  0  0  0  0  0
   19.8440   16.6241   21.6035 H   0  0  0  0  0  0  0  0  0  0  0  0
   20.2139   18.6916   22.1673 C   0  0  0  0  0  0  0  0  0  0  0  0
   19.7429   19.1088   21.2674 H   0  0  0  0  0  0  0  0  0  0  0  0
   21.2802   18.5819   21.9310 H   0  0  0  0  0  0  0  0  0  0  0  0
   20.0447   19.6761   23.3525 C   0  0  0  0  0  0  0  0  0  0  0  0
   18.9803   19.7678   23.6055 H   0  0  0  0  0  0  0  0  0  0  0  0
   20.5405   19.2699   24.2449 H   0  0  0  0  0  0  0  0  0  0  0  0
   20.5921   21.0940   23.0584 C   0  0  0  0  0  0  0  0  0  0  0  0
   20.3289   21.7534   23.8973 H   0  0  0  0  0  0  0  0  0  0  0  0
   20.0918   21.5098   22.1727 H   0  0  0  0  0  0  0  0  0  0  0  0
   22.1242   21.1344   22.8576 C   0  0  0  0  0  0  0  0  0  0  0  0
   22.6470   20.6934   23.7162 H   0  0  0  0  0  0  0  0  0  0  0  0
   22.4700   22.1707   22.7508 H   0  0  0  0  0  0  0  0  0  0  0  0
   22.4278   20.5919   21.9539 H   0  0  0  0  0  0  0  0  0  0  0  0
  1  2  1  0  0  0  0
  1  3  1  0  0  0  0
  1  4  1  0  0  0  0
  1  5  1  0  0  0  0
  5  6  1  0  0  0  0
  5  7  1  0  0  0  0
  5  8  1  0  0  0  0
  8  9  1  0  0  0  0
  8 10  1  0  0  0  0
  8 11  1  0  0  0  0
 11 12  1  0  0  0  0
 11 13  1  0  0  0  0
 11 14  1  0  0  0  0
 14 15  1  0  0  0  0
 14 16  1  0  0  0  0
 14 17  1  0  0  0  0
 17 18  1  0  0  0  0
 17 19  1  0  0  0  0
 17 20  1  0  0  0  0
 20 21  1  0  0  0  0
 20 22  1  0  0  0  0
 20 23  1  0  0  0  0
M  END
> <VConfSearch Rank>
135

> <Conf_Id>
50

> <Delta U+W>
1.252

> <U+W>
-7.130

> <U>
48.727

> <W>
-55.857

> <W(PB)>
-57.937

> <W(SA)>
2.080

> <Valence>
2.671

> <Coulomb>
45.371

> <VdW>
0.684

> <VdW6>
-6.511

> <VdW12>
7.196

> <Bond>
0.203

> <Angle>
0.915

> <Pdih>
1.554

> <Idih>
0.000

> <Tether>
0.000

$$$$
VeraChem MOL file


 23 22  0  0  0  0  0  0  0  0999 V2000     
   17.8856   21.4844   23.3753 N   0  3  0  0  0  0  0  0  0  0  0  0
   18.6356   21.5701   24.0679 H   0  0  0  0  0  0  0  0  0  0  0  0
   17.0189   21.7859   23.8334 H   0  0  0  0  0  0  0  0  0  0  0  0
   18.0813   22.1615   22.6311 H   0  0  0  0  0  0  0  0  0  0  0  0
   17.7754   20.0711   22.8370 C   0  0  0  0  0  0  0  0  0  0  0  0
   16.9338   20.0470   22.1395 H   0  0  0  0  0  0  0  0  0  0  0  0
   17.5434   19.4064   23.6736 H   0  0  0  0  0  0  0  0  0  0  0  0
   19.0469   19.5771   22.1200 C   0  0  0  0  0  0  0  0  0  0  0  0
   18.8315   18.5991   21.6753 H   0  0  0  0  0  0  0  0  0  0  0  0
   19.2787   20.2506   21.2842 H   0  0  0  0  0  0  0  0  0  0  0  0
   20.2677   19.4776   23.0700 C   0  0  0  0  0  0  0  0  0  0  0  0
   20.0139   18.8824   23.9581 H   0  0  0  0  0  0  0  0  0  0  0  0
   20.5072   20.4847   23.4367 H   0  0  0  0  0  0  0  0  0  0  0  0
   21.5338   18.8984   22.3862 C   0  0  0  0  0  0  0  0  0  0  0  0
   21.5320   19.1379   21.3139 H   0  0  0  0  0  0  0  0  0  0  0  0
   22.4123   19.4113   22.8019 H   0  0  0  0  0  0  0  0  0  0  0  0
   21.7429   17.3763   22.5923 C   0  0  0  0  0  0  0  0  0  0  0  0
   21.8455   17.1605   23.6650 H   0  0  0  0  0  0  0  0  0  0  0  0
   22.6992   17.0904   22.1323 H   0  0  0  0  0  0  0  0  0  0  0  0
   20.6242   16.4934   21.9973 C   0  0  0  0  0  0  0  0  0  0  0  0
   20.4566   16.7265   20.9379 H   0  0  0  0  0  0  0  0  0  0  0  0
   19.6799   16.6272   22.5392 H   0  0  0  0  0  0  0  0  0  0  0  0
   20.8948   15.4320   22.0685 H   0  0  0  0  0  0  0  0  0  0  0  0
  1  2  1  0  0  0  0
  1  3  1  0  0  0  0
  1  4  1  0  0  0  0
  1  5  1  0  0  0  0
  5  6  1  0  0  0  0
  5  7  1  0  0  0  0
  5  8  1  0  0  0  0
  8  9  1  0  0  0  0
  8 10  1  0  0  0  0
  8 11  1  0  0  0  0
 11 12  1  0  0  0  0
 11 13  1  0  0  0  0
 11 14  1  0  0  0  0
 14 15  1  0  0  0  0
 14 16  1  0  0  0  0
 14 17  1  0  0  0  0
 17 18  1  0  0  0  0
 17 19  1  0  0  0  0
 17 20  1  0  0  0  0
 20 21  1  0  0  0  0
 20 22  1  0  0  0  0
 20 23  1  0  0  0  0
M  END
> <VConfSearch Rank>
136

> <Conf_Id>
55

> <Delta U+W>
3.232

> <U+W>
-5.150

> <U>
50.625

> <W>
-55.776

> <W(PB)>
-57.839

> <W(SA)>
2.064

> <Valence>
4.837

> <Coulomb>
45.097

> <VdW>
0.692

> <VdW6>
-6.655

> <VdW12>
7.347

> <Bond>
0.223

> <Angle>
1.167

> <Pdih>
3.447

> <Idih>
0.000

> <Tether>
0.000

$$$$
VeraChem MOL file


 23 22  0  0  0  0  0  0  0  0999 V2000     
   17.0689   19.6498   23.9169 N   0  3  0  0  0  0  0  0  0  0  0  0
   16.2557   19.0381   23.7929 H   0  0  0  0  0  0  0  0  0  0  0  0
   16.7145   20.6114   23.9575 H   0  0  0  0  0  0  0  0  0  0  0  0
   17.4665   19.4393   24.8379 H   0  0  0  0  0  0  0  0  0  0  0  0
   18.0852   19.4705   22.8075 C   0  0  0  0  0  0  0  0  0  0  0  0
   18.9000   20.1748   22.9849 H   0  0  0  0  0  0  0  0  0  0  0  0
   17.6029   19.7382   21.8635 H   0  0  0  0  0  0  0  0  0  0  0  0
   18.6311   18.0318   22.7174 C   0  0  0  0  0  0  0  0  0  0  0  0
   19.0778   17.7318   23.6746 H   0  0  0  0  0  0  0  0  0  0  0  0
   17.7826   17.3560   22.5460 H   0  0  0  0  0  0  0  0  0  0  0  0
   19.6534   17.8400   21.5687 C   0  0  0  0  0  0  0  0  0  0  0  0
   19.3505   18.4303   20.6927 H   0  0  0  0  0  0  0  0  0  0  0  0
   19.6129   16.7900   21.2473 H   0  0  0  0  0  0  0  0  0  0  0  0
   21.1249   18.1574   21.9425 C   0  0  0  0  0  0  0  0  0  0  0  0
   21.4497   17.4878   22.7508 H   0  0  0  0  0  0  0  0  0  0  0  0
   21.7567   17.9170   21.0762 H   0  0  0  0  0  0  0  0  0  0  0  0
   21.3819   19.6244   22.3576 C   0  0  0  0  0  0  0  0  0  0  0  0
   20.8811   19.8364   23.3110 H   0  0  0  0  0  0  0  0  0  0  0  0
   20.9570   20.3054   21.6070 H   0  0  0  0  0  0  0  0  0  0  0  0
   22.8895   19.9149   22.5172 C   0  0  0  0  0  0  0  0  0  0  0  0
   23.4256   19.7531   21.5729 H   0  0  0  0  0  0  0  0  0  0  0  0
   23.3378   19.2657   23.2805 H   0  0  0  0  0  0  0  0  0  0  0  0
   23.0533   20.9566   22.8224 H   0  0  0  0  0  0  0  0  0  0  0  0
  1  2  1  0  0  0  0
  1  3  1  0  0  0  0
  1  4  1  0  0  0  0
  1  5  1  0  0  0  0
  5  6  1  0  0  0  0
  5  7  1  0  0  0  0
  5  8  1  0  0  0  0
  8  9  1  0  0  0  0
  8 10  1  0  0  0  0
  8 11  1  0  0  0  0
 11 12  1  0  0  0  0
 11 13  1  0  0  0  0
 11 14  1  0  0  0  0
 14 15  1  0  0  0  0
 14 16  1  0  0  0  0
 14 17  1  0  0  0  0
 17 18  1  0  0  0  0
 17 19  1  0  0  0  0
 17 20  1  0  0  0  0
 20 21  1  0  0  0  0
 20 22  1  0  0  0  0
 20 23  1  0  0  0  0
M  END
> <VConfSearch Rank>
137

> <Conf_Id>
93

> <Delta U+W>
2.589

> <U+W>
-5.793

> <U>
50.122

> <W>
-55.915

> <W(PB)>
-58.031

> <W(SA)>
2.115

> <Valence>
4.132

> <Coulomb>
45.536

> <VdW>
0.454

> <VdW6>
-6.262

> <VdW12>
6.715

> <Bond>
0.182

> <Angle>
1.157

> <Pdih>
2.794

> <Idih>
0.000

> <Tether>
0.000

$$$$
VeraChem MOL file


 23 22  0  0  0  0  0  0  0  0999 V2000     
   20.4572   21.9273   23.3042 N   0  3  0  0  0  0  0  0  0  0  0  0
   21.1621   21.9186   22.5601 H   0  0  0  0  0  0  0  0  0  0  0  0
   20.9477   22.1485   24.1773 H   0  0  0  0  0  0  0  0  0  0  0  0
   19.8252   22.7110   23.1113 H   0  0  0  0  0  0  0  0  0  0  0  0
   19.7132   20.6105   23.3941 C   0  0  0  0  0  0  0  0  0  0  0  0
   19.0026   20.6819   24.2220 H   0  0  0  0  0  0  0  0  0  0  0  0
   20.4399   19.8328   23.6359 H   0  0  0  0  0  0  0  0  0  0  0  0
   18.9595   20.2546   22.0975 C   0  0  0  0  0  0  0  0  0  0  0  0
   18.2457   21.0620   21.8863 H   0  0  0  0  0  0  0  0  0  0  0  0
   19.6541   20.2249   21.2475 H   0  0  0  0  0  0  0  0  0  0  0  0
   18.1787   18.9196   22.1946 C   0  0  0  0  0  0  0  0  0  0  0  0
   17.3236   18.9733   21.5065 H   0  0  0  0  0  0  0  0  0  0  0  0
   17.7453   18.8092   23.1984 H   0  0  0  0  0  0  0  0  0  0  0  0
   18.9966   17.6547   21.8250 C   0  0  0  0  0  0  0  0  0  0  0  0
   18.3215   16.7885   21.8623 H   0  0  0  0  0  0  0  0  0  0  0  0
   19.3368   17.7305   20.7830 H   0  0  0  0  0  0  0  0  0  0  0  0
   20.2112   17.3822   22.7422 C   0  0  0  0  0  0  0  0  0  0  0  0
   19.8999   17.4184   23.7955 H   0  0  0  0  0  0  0  0  0  0  0  0
   20.9700   18.1624   22.5993 H   0  0  0  0  0  0  0  0  0  0  0  0
   20.8525   16.0100   22.4448 C   0  0  0  0  0  0  0  0  0  0  0  0
   21.7188   15.8377   23.0965 H   0  0  0  0  0  0  0  0  0  0  0  0
   21.1971   15.9528   21.4040 H   0  0  0  0  0  0  0  0  0  0  0  0
   20.1373   15.1943   22.6135 H   0  0  0  0  0  0  0  0  0  0  0  0
  1  2  1  0  0  0  0
  1  3  1  0  0  0  0
  1  4  1  0  0  0  0
  1  5  1  0  0  0  0
  5  6  1  0  0  0  0
  5  7  1  0  0  0  0
  5  8  1  0  0  0  0
  8  9  1  0  0  0  0
  8 10  1  0  0  0  0
  8 11  1  0  0  0  0
 11 12  1  0  0  0  0
 11 13  1  0  0  0  0
 11 14  1  0  0  0  0
 14 15  1  0  0  0  0
 14 16  1  0  0  0  0
 14 17  1  0  0  0  0
 17 18  1  0  0  0  0
 17 19  1  0  0  0  0
 17 20  1  0  0  0  0
 20 21  1  0  0  0  0
 20 22  1  0  0  0  0
 20 23  1  0  0  0  0
M  END
> <VConfSearch Rank>
138

> <Conf_Id>
70

> <Delta U+W>
2.599

> <U+W>
-5.783

> <U>
50.122

> <W>
-55.906

> <W(PB)>
-58.010

> <W(SA)>
2.105

> <Valence>
4.132

> <Coulomb>
45.536

> <VdW>
0.454

> <VdW6>
-6.262

> <VdW12>
6.715

> <Bond>
0.182

> <Angle>
1.157

> <Pdih>
2.794

> <Idih>
0.000

> <Tether>
0.000

$$$$
VeraChem MOL file


 23 22  0  0  0  0  0  0  0  0999 V2000     
   20.2537   16.5775   21.1409 N   0  3  0  0  0  0  0  0  0  0  0  0
   21.1758   16.2277   20.8619 H   0  0  0  0  0  0  0  0  0  0  0  0
   19.5568   16.0231   20.6322 H   0  0  0  0  0  0  0  0  0  0  0  0
   20.1383   16.3665   22.1366 H   0  0  0  0  0  0  0  0  0  0  0  0
   20.1068   18.0605   20.8627 C   0  0  0  0  0  0  0  0  0  0  0  0
   19.0958   18.3614   21.1497 H   0  0  0  0  0  0  0  0  0  0  0  0
   20.2121   18.2092   19.7846 H   0  0  0  0  0  0  0  0  0  0  0  0
   21.1395   18.9335   21.6037 C   0  0  0  0  0  0  0  0  0  0  0  0
   22.1493   18.6461   21.2819 H   0  0  0  0  0  0  0  0  0  0  0  0
   21.0117   19.9772   21.2893 H   0  0  0  0  0  0  0  0  0  0  0  0
   21.0511   18.8392   23.1497 C   0  0  0  0  0  0  0  0  0  0  0  0
   21.7926   19.5208   23.5888 H   0  0  0  0  0  0  0  0  0  0  0  0
   21.3497   17.8315   23.4686 H   0  0  0  0  0  0  0  0  0  0  0  0
   19.6553   19.1591   23.7447 C   0  0  0  0  0  0  0  0  0  0  0  0
   18.9173   18.4277   23.3893 H   0  0  0  0  0  0  0  0  0  0  0  0
   19.7063   19.0318   24.8349 H   0  0  0  0  0  0  0  0  0  0  0  0
   19.1626   20.5911   23.4293 C   0  0  0  0  0  0  0  0  0  0  0  0
   19.0361   20.7182   22.3459 H   0  0  0  0  0  0  0  0  0  0  0  0
   19.9176   21.3223   23.7502 H   0  0  0  0  0  0  0  0  0  0  0  0
   17.8218   20.8988   24.1293 C   0  0  0  0  0  0  0  0  0  0  0  0
   17.4858   21.9168   23.8929 H   0  0  0  0  0  0  0  0  0  0  0  0
   17.9185   20.8211   25.2201 H   0  0  0  0  0  0  0  0  0  0  0  0
   17.0383   20.2016   23.8049 H   0  0  0  0  0  0  0  0  0  0  0  0
  1  2  1  0  0  0  0
  1  3  1  0  0  0  0
  1  4  1  0  0  0  0
  1  5  1  0  0  0  0
  5  6  1  0  0  0  0
  5  7  1  0  0  0  0
  5  8  1  0  0  0  0
  8  9  1  0  0  0  0
  8 10  1  0  0  0  0
  8 11  1  0  0  0  0
 11 12  1  0  0  0  0
 11 13  1  0  0  0  0
 11 14  1  0  0  0  0
 14 15  1  0  0  0  0
 14 16  1  0  0  0  0
 14 17  1  0  0  0  0
 17 18  1  0  0  0  0
 17 19  1  0  0  0  0
 17 20  1  0  0  0  0
 20 21  1  0  0  0  0
 20 22  1  0  0  0  0
 20 23  1  0  0  0  0
M  END
> <VConfSearch Rank>
139

> <Conf_Id>
72

> <Delta U+W>
1.051

> <U+W>
-7.331

> <U>
48.590

> <W>
-55.922

> <W(PB)>
-58.012

> <W(SA)>
2.090

> <Valence>
2.601

> <Coulomb>
45.520

> <VdW>
0.469

> <VdW6>
-6.867

> <VdW12>
7.336

> <Bond>
0.205

> <Angle>
0.962

> <Pdih>
1.434

> <Idih>
0.000

> <Tether>
0.000

$$$$
VeraChem MOL file


 23 22  0  0  0  0  0  0  0  0999 V2000     
   20.6730   17.8338   19.8401 N   0  3  0  0  0  0  0  0  0  0  0  0
   21.5886   17.4778   19.5451 H   0  0  0  0  0  0  0  0  0  0  0  0
   20.2542   18.2907   19.0236 H   0  0  0  0  0  0  0  0  0  0  0  0
   20.0927   17.0181   20.0600 H   0  0  0  0  0  0  0  0  0  0  0  0
   20.7899   18.7792   21.0184 C   0  0  0  0  0  0  0  0  0  0  0  0
   21.4418   19.6063   20.7248 H   0  0  0  0  0  0  0  0  0  0  0  0
   21.2693   18.2372   21.8377 H   0  0  0  0  0  0  0  0  0  0  0  0
   19.4308   19.3320   21.4864 C   0  0  0  0  0  0  0  0  0  0  0  0
   18.9416   19.8418   20.6459 H   0  0  0  0  0  0  0  0  0  0  0  0
   18.7710   18.5018   21.7691 H   0  0  0  0  0  0  0  0  0  0  0  0
   19.5645   20.3275   22.6655 C   0  0  0  0  0  0  0  0  0  0  0  0
   18.5675   20.7001   22.9355 H   0  0  0  0  0  0  0  0  0  0  0  0
   20.1268   21.2077   22.3244 H   0  0  0  0  0  0  0  0  0  0  0  0
   20.2630   19.7527   23.9274 C   0  0  0  0  0  0  0  0  0  0  0  0
   21.3139   19.5339   23.6950 H   0  0  0  0  0  0  0  0  0  0  0  0
   20.2886   20.5335   24.7000 H   0  0  0  0  0  0  0  0  0  0  0  0
   19.6062   18.4816   24.5234 C   0  0  0  0  0  0  0  0  0  0  0  0
   20.1907   18.1626   25.3977 H   0  0  0  0  0  0  0  0  0  0  0  0
   19.6631   17.6525   23.8054 H   0  0  0  0  0  0  0  0  0  0  0  0
   18.1386   18.6962   24.9577 C   0  0  0  0  0  0  0  0  0  0  0  0
   18.0552   19.5297   25.6671 H   0  0  0  0  0  0  0  0  0  0  0  0
   17.7475   17.7962   25.4495 H   0  0  0  0  0  0  0  0  0  0  0  0
   17.4919   18.9106   24.0979 H   0  0  0  0  0  0  0  0  0  0  0  0
  1  2  1  0  0  0  0
  1  3  1  0  0  0  0
  1  4  1  0  0  0  0
  1  5  1  0  0  0  0
  5  6  1  0  0  0  0
  5  7  1  0  0  0  0
  5  8  1  0  0  0  0
  8  9  1  0  0  0  0
  8 10  1  0  0  0  0
  8 11  1  0  0  0  0
 11 12  1  0  0  0  0
 11 13  1  0  0  0  0
 11 14  1  0  0  0  0
 14 15  1  0  0  0  0
 14 16  1  0  0  0  0
 14 17  1  0  0  0  0
 17 18  1  0  0  0  0
 17 19  1  0  0  0  0
 17 20  1  0  0  0  0
 20 21  1  0  0  0  0
 20 22  1  0  0  0  0
 20 23  1  0  0  0  0
M  END
> <VConfSearch Rank>
140

> <Conf_Id>
26

> <Delta U+W>
1.076

> <U+W>
-7.306

> <U>
48.641

> <W>
-55.947

> <W(PB)>
-58.031

> <W(SA)>
2.084

> <Valence>
2.922

> <Coulomb>
45.269

> <VdW>
0.449

> <VdW6>
-7.045

> <VdW12>
7.494

> <Bond>
0.220

> <Angle>
1.205

> <Pdih>
1.497

> <Idih>
0.000

> <Tether>
0.000

$$$$
VeraChem MOL file


 23 22  0  0  0  0  0  0  0  0999 V2000     
   18.3213   16.4763   23.7378 N   0  3  0  0  0  0  0  0  0  0  0  0
   17.3406   16.6313   23.9926 H   0  0  0  0  0  0  0  0  0  0  0  0
   18.6669   15.7156   24.3327 H   0  0  0  0  0  0  0  0  0  0  0  0
   18.3311   16.1287   22.7736 H   0  0  0  0  0  0  0  0  0  0  0  0
   19.1512   17.7343   23.8942 C   0  0  0  0  0  0  0  0  0  0  0  0
   20.1848   17.4892   23.6362 H   0  0  0  0  0  0  0  0  0  0  0  0
   19.1200   18.0314   24.9459 H   0  0  0  0  0  0  0  0  0  0  0  0
   18.6578   18.8969   23.0128 C   0  0  0  0  0  0  0  0  0  0  0  0
   18.6763   18.5954   21.9578 H   0  0  0  0  0  0  0  0  0  0  0  0
   17.6080   19.1101   23.2539 H   0  0  0  0  0  0  0  0  0  0  0  0
   19.4881   20.1897   23.2090 C   0  0  0  0  0  0  0  0  0  0  0  0
   19.3581   20.5414   24.2418 H   0  0  0  0  0  0  0  0  0  0  0  0
   19.0736   20.9826   22.5723 H   0  0  0  0  0  0  0  0  0  0  0  0
   21.0071   20.0376   22.9256 C   0  0  0  0  0  0  0  0  0  0  0  0
   21.4915   21.0118   23.0791 H   0  0  0  0  0  0  0  0  0  0  0  0
   21.4522   19.3666   23.6725 H   0  0  0  0  0  0  0  0  0  0  0  0
   21.3651   19.5192   21.5095 C   0  0  0  0  0  0  0  0  0  0  0  0
   20.9804   18.5001   21.3695 H   0  0  0  0  0  0  0  0  0  0  0  0
   22.4585   19.4411   21.4313 H   0  0  0  0  0  0  0  0  0  0  0  0
   20.8494   20.4322   20.3742 C   0  0  0  0  0  0  0  0  0  0  0  0
   19.7530   20.4551   20.3428 H   0  0  0  0  0  0  0  0  0  0  0  0
   21.2006   20.0697   19.3995 H   0  0  0  0  0  0  0  0  0  0  0  0
   21.2114   21.4609   20.5002 H   0  0  0  0  0  0  0  0  0  0  0  0
  1  2  1  0  0  0  0
  1  3  1  0  0  0  0
  1  4  1  0  0  0  0
  1  5  1  0  0  0  0
  5  6  1  0  0  0  0
  5  7  1  0  0  0  0
  5  8  1  0  0  0  0
  8  9  1  0  0  0  0
  8 10  1  0  0  0  0
  8 11  1  0  0  0  0
 11 12  1  0  0  0  0
 11 13  1  0  0  0  0
 11 14  1  0  0  0  0
 14 15  1  0  0  0  0
 14 16  1  0  0  0  0
 14 17  1  0  0  0  0
 17 18  1  0  0  0  0
 17 19  1  0  0  0  0
 17 20  1  0  0  0  0
 20 21  1  0  0  0  0
 20 22  1  0  0  0  0
 20 23  1  0  0  0  0
M  END
> <VConfSearch Rank>
141

> <Conf_Id>
90

> <Delta U+W>
1.131

> <U+W>
-7.251

> <U>
48.641

> <W>
-55.892

> <W(PB)>
-57.962

> <W(SA)>
2.070

> <Valence>
2.922

> <Coulomb>
45.269

> <VdW>
0.450

> <VdW6>
-7.045

> <VdW12>
7.495

> <Bond>
0.220

> <Angle>
1.205

> <Pdih>
1.497

> <Idih>
0.000

> <Tether>
0.000

$$$$
VeraChem MOL file


 23 22  0  0  0  0  0  0  0  0999 V2000     
   19.3544   21.5481   22.6739 N   0  3  0  0  0  0  0  0  0  0  0  0
   19.2877   22.3138   21.9949 H   0  0  0  0  0  0  0  0  0  0  0  0
   20.2580   21.0894   22.5229 H   0  0  0  0  0  0  0  0  0  0  0  0
   19.3825   21.9755   23.6051 H   0  0  0  0  0  0  0  0  0  0  0  0
   18.2024   20.5720   22.5371 C   0  0  0  0  0  0  0  0  0  0  0  0
   18.2113   20.1780   21.5176 H   0  0  0  0  0  0  0  0  0  0  0  0
   17.2735   21.1317   22.6760 H   0  0  0  0  0  0  0  0  0  0  0  0
   18.2539   19.4073   23.5468 C   0  0  0  0  0  0  0  0  0  0  0  0
   18.1967   19.8119   24.5660 H   0  0  0  0  0  0  0  0  0  0  0  0
   17.3580   18.7863   23.4139 H   0  0  0  0  0  0  0  0  0  0  0  0
   19.5160   18.5178   23.4185 C   0  0  0  0  0  0  0  0  0  0  0  0
   19.4691   17.7312   24.1841 H   0  0  0  0  0  0  0  0  0  0  0  0
   20.4086   19.1138   23.6467 H   0  0  0  0  0  0  0  0  0  0  0  0
   19.6551   17.8599   22.0223 C   0  0  0  0  0  0  0  0  0  0  0  0
   18.7192   17.3393   21.7767 H   0  0  0  0  0  0  0  0  0  0  0  0
   19.7920   18.6306   21.2521 H   0  0  0  0  0  0  0  0  0  0  0  0
   20.8198   16.8442   21.9360 C   0  0  0  0  0  0  0  0  0  0  0  0
   20.7833   16.3481   20.9560 H   0  0  0  0  0  0  0  0  0  0  0  0
   20.6800   16.0531   22.6860 H   0  0  0  0  0  0  0  0  0  0  0  0
   22.2121   17.4909   22.1154 C   0  0  0  0  0  0  0  0  0  0  0  0
   22.3663   18.3035   21.3937 H   0  0  0  0  0  0  0  0  0  0  0  0
   23.0039   16.7474   21.9571 H   0  0  0  0  0  0  0  0  0  0  0  0
   22.3406   17.8983   23.1259 H   0  0  0  0  0  0  0  0  0  0  0  0
  1  2  1  0  0  0  0
  1  3  1  0  0  0  0
  1  4  1  0  0  0  0
  1  5  1  0  0  0  0
  5  6  1  0  0  0  0
  5  7  1  0  0  0  0
  5  8  1  0  0  0  0
  8  9  1  0  0  0  0
  8 10  1  0  0  0  0
  8 11  1  0  0  0  0
 11 12  1  0  0  0  0
 11 13  1  0  0  0  0
 11 14  1  0  0  0  0
 14 15  1  0  0  0  0
 14 16  1  0  0  0  0
 14 17  1  0  0  0  0
 17 18  1  0  0  0  0
 17 19  1  0  0  0  0
 17 20  1  0  0  0  0
 20 21  1  0  0  0  0
 20 22  1  0  0  0  0
 20 23  1  0  0  0  0
M  END
> <VConfSearch Rank>
142

> <Conf_Id>
85

> <Delta U+W>
1.193

> <U+W>
-7.189

> <U>
48.775

> <W>
-55.965

> <W(PB)>
-58.038

> <W(SA)>
2.073

> <Valence>
2.602

> <Coulomb>
45.581

> <VdW>
0.592

> <VdW6>
-6.616

> <VdW12>
7.208

> <Bond>
0.196

> <Angle>
0.832

> <Pdih>
1.574

> <Idih>
0.000

> <Tether>
0.000

$$$$
VeraChem MOL file


 23 22  0  0  0  0  0  0  0  0999 V2000     
   19.6049   17.9611   24.3800 N   0  3  0  0  0  0  0  0  0  0  0  0
   20.1628   17.8505   23.5272 H   0  0  0  0  0  0  0  0  0  0  0  0
   19.2646   17.0311   24.6475 H   0  0  0  0  0  0  0  0  0  0  0  0
   20.2395   18.2719   25.1227 H   0  0  0  0  0  0  0  0  0  0  0  0
   18.4649   18.9390   24.1707 C   0  0  0  0  0  0  0  0  0  0  0  0
   17.9219   19.0038   25.1175 H   0  0  0  0  0  0  0  0  0  0  0  0
   17.7861   18.5299   23.4177 H   0  0  0  0  0  0  0  0  0  0  0  0
   18.9197   20.3525   23.7536 C   0  0  0  0  0  0  0  0  0  0  0  0
   18.1143   21.0523   24.0131 H   0  0  0  0  0  0  0  0  0  0  0  0
   19.7853   20.6569   24.3569 H   0  0  0  0  0  0  0  0  0  0  0  0
   19.2321   20.5291   22.2432 C   0  0  0  0  0  0  0  0  0  0  0  0
   19.4861   21.5859   22.0818 H   0  0  0  0  0  0  0  0  0  0  0  0
   18.3248   20.3515   21.6493 H   0  0  0  0  0  0  0  0  0  0  0  0
   20.4015   19.6667   21.7027 C   0  0  0  0  0  0  0  0  0  0  0  0
   20.9469   20.2516   20.9489 H   0  0  0  0  0  0  0  0  0  0  0  0
   21.1267   19.4670   22.5026 H   0  0  0  0  0  0  0  0  0  0  0  0
   19.9310   18.3518   21.0343 C   0  0  0  0  0  0  0  0  0  0  0  0
   19.3436   18.5920   20.1368 H   0  0  0  0  0  0  0  0  0  0  0  0
   19.2580   17.7916   21.6942 H   0  0  0  0  0  0  0  0  0  0  0  0
   21.1228   17.4562   20.6352 C   0  0  0  0  0  0  0  0  0  0  0  0
   21.7863   17.9748   19.9307 H   0  0  0  0  0  0  0  0  0  0  0  0
   20.7709   16.5365   20.1499 H   0  0  0  0  0  0  0  0  0  0  0  0
   21.7161   17.1680   21.5125 H   0  0  0  0  0  0  0  0  0  0  0  0
  1  2  1  0  0  0  0
  1  3  1  0  0  0  0
  1  4  1  0  0  0  0
  1  5  1  0  0  0  0
  5  6  1  0  0  0  0
  5  7  1  0  0  0  0
  5  8  1  0  0  0  0
  8  9  1  0  0  0  0
  8 10  1  0  0  0  0
  8 11  1  0  0  0  0
 11 12  1  0  0  0  0
 11 13  1  0  0  0  0
 11 14  1  0  0  0  0
 14 15  1  0  0  0  0
 14 16  1  0  0  0  0
 14 17  1  0  0  0  0
 17 18  1  0  0  0  0
 17 19  1  0  0  0  0
 17 20  1  0  0  0  0
 20 21  1  0  0  0  0
 20 22  1  0  0  0  0
 20 23  1  0  0  0  0
M  END
> <VConfSearch Rank>
143

> <Conf_Id>
82

> <Delta U+W>
5.994

> <U+W>
-2.388

> <U>
52.836

> <W>
-55.224

> <W(PB)>
-57.261

> <W(SA)>
2.037

> <Valence>
5.785

> <Coulomb>
46.744

> <VdW>
0.307

> <VdW6>
-7.672

> <VdW12>
7.979

> <Bond>
0.217

> <Angle>
1.470

> <Pdih>
4.098

> <Idih>
0.000

> <Tether>
0.000

$$$$
VeraChem MOL file


 23 22  0  0  0  0  0  0  0  0999 V2000     
   18.9835   17.4479   21.4869 N   0  3  0  0  0  0  0  0  0  0  0  0
   18.1177   17.0458   21.8607 H   0  0  0  0  0  0  0  0  0  0  0  0
   19.0372   17.1759   20.4993 H   0  0  0  0  0  0  0  0  0  0  0  0
   18.8863   18.4678   21.5200 H   0  0  0  0  0  0  0  0  0  0  0  0
   20.1992   16.9839   22.2656 C   0  0  0  0  0  0  0  0  0  0  0  0
   21.0961   17.3874   21.7881 H   0  0  0  0  0  0  0  0  0  0  0  0
   20.2332   15.8940   22.1849 H   0  0  0  0  0  0  0  0  0  0  0  0
   20.1770   17.3777   23.7566 C   0  0  0  0  0  0  0  0  0  0  0  0
   19.1749   17.2048   24.1711 H   0  0  0  0  0  0  0  0  0  0  0  0
   20.8445   16.6905   24.2932 H   0  0  0  0  0  0  0  0  0  0  0  0
   20.6408   18.8266   24.0659 C   0  0  0  0  0  0  0  0  0  0  0  0
   21.6907   18.9558   23.7686 H   0  0  0  0  0  0  0  0  0  0  0  0
   20.6280   18.9493   25.1579 H   0  0  0  0  0  0  0  0  0  0  0  0
   19.7684   19.9486   23.4469 C   0  0  0  0  0  0  0  0  0  0  0  0
   18.7326   19.6031   23.3307 H   0  0  0  0  0  0  0  0  0  0  0  0
   19.7224   20.7864   24.1566 H   0  0  0  0  0  0  0  0  0  0  0  0
   20.3301   20.4896   22.1094 C   0  0  0  0  0  0  0  0  0  0  0  0
   20.5350   19.6726   21.4073 H   0  0  0  0  0  0  0  0  0  0  0  0
   21.2968   20.9790   22.2942 H   0  0  0  0  0  0  0  0  0  0  0  0
   19.3670   21.5015   21.4536 C   0  0  0  0  0  0  0  0  0  0  0  0
   18.3987   21.0387   21.2234 H   0  0  0  0  0  0  0  0  0  0  0  0
   19.7882   21.8852   20.5152 H   0  0  0  0  0  0  0  0  0  0  0  0
   19.1860   22.3586   22.1155 H   0  0  0  0  0  0  0  0  0  0  0  0
  1  2  1  0  0  0  0
  1  3  1  0  0  0  0
  1  4  1  0  0  0  0
  1  5  1  0  0  0  0
  5  6  1  0  0  0  0
  5  7  1  0  0  0  0
  5  8  1  0  0  0  0
  8  9  1  0  0  0  0
  8 10  1  0  0  0  0
  8 11  1  0  0  0  0
 11 12  1  0  0  0  0
 11 13  1  0  0  0  0
 11 14  1  0  0  0  0
 14 15  1  0  0  0  0
 14 16  1  0  0  0  0
 14 17  1  0  0  0  0
 17 18  1  0  0  0  0
 17 19  1  0  0  0  0
 17 20  1  0  0  0  0
 20 21  1  0  0  0  0
 20 22  1  0  0  0  0
 20 23  1  0  0  0  0
M  END
> <VConfSearch Rank>
144

> <Conf_Id>
5

> <Delta U+W>
6.087

> <U+W>
-2.295

> <U>
52.836

> <W>
-55.131

> <W(PB)>
-57.202

> <W(SA)>
2.071

> <Valence>
5.785

> <Coulomb>
46.744

> <VdW>
0.307

> <VdW6>
-7.672

> <VdW12>
7.980

> <Bond>
0.217

> <Angle>
1.470

> <Pdih>
4.098

> <Idih>
0.000

> <Tether>
0.000

$$$$
VeraChem MOL file


 23 22  0  0  0  0  0  0  0  0999 V2000     
   20.9506   21.7677   25.0017 N   0  3  0  0  0  0  0  0  0  0  0  0
   21.8874   21.3848   25.1649 H   0  0  0  0  0  0  0  0  0  0  0  0
   20.6609   22.2271   25.8718 H   0  0  0  0  0  0  0  0  0  0  0  0
   21.0446   22.5032   24.2938 H   0  0  0  0  0  0  0  0  0  0  0  0
   19.9675   20.6959   24.5768 C   0  0  0  0  0  0  0  0  0  0  0  0
   18.9889   21.1668   24.4500 H   0  0  0  0  0  0  0  0  0  0  0  0
   19.8947   19.9646   25.3864 H   0  0  0  0  0  0  0  0  0  0  0  0
   20.3739   19.9866   23.2729 C   0  0  0  0  0  0  0  0  0  0  0  0
   20.4616   20.7270   22.4666 H   0  0  0  0  0  0  0  0  0  0  0  0
   21.3643   19.5292   23.3996 H   0  0  0  0  0  0  0  0  0  0  0  0
   19.3474   18.9030   22.8750 C   0  0  0  0  0  0  0  0  0  0  0  0
   18.3569   19.3636   22.7544 H   0  0  0  0  0  0  0  0  0  0  0  0
   19.2587   18.1671   23.6864 H   0  0  0  0  0  0  0  0  0  0  0  0
   19.7458   18.1838   21.5661 C   0  0  0  0  0  0  0  0  0  0  0  0
   19.8344   18.9195   20.7547 H   0  0  0  0  0  0  0  0  0  0  0  0
   20.7362   17.7232   21.6866 H   0  0  0  0  0  0  0  0  0  0  0  0
   18.7191   17.1001   21.1685 C   0  0  0  0  0  0  0  0  0  0  0  0
   17.7269   17.5565   21.0445 H   0  0  0  0  0  0  0  0  0  0  0  0
   18.6287   16.3602   21.9762 H   0  0  0  0  0  0  0  0  0  0  0  0
   19.1202   16.3842   19.8612 C   0  0  0  0  0  0  0  0  0  0  0  0
   18.3796   15.6188   19.5954 H   0  0  0  0  0  0  0  0  0  0  0  0
   20.0942   15.8885   19.9654 H   0  0  0  0  0  0  0  0  0  0  0  0
   19.1855   17.0941   19.0264 H   0  0  0  0  0  0  0  0  0  0  0  0
  1  2  1  0  0  0  0
  1  3  1  0  0  0  0
  1  4  1  0  0  0  0
  1  5  1  0  0  0  0
  5  6  1  0  0  0  0
  5  7  1  0  0  0  0
  5  8  1  0  0  0  0
  8  9  1  0  0  0  0
  8 10  1  0  0  0  0
  8 11  1  0  0  0  0
 11 12  1  0  0  0  0
 11 13  1  0  0  0  0
 11 14  1  0  0  0  0
 14 15  1  0  0  0  0
 14 16  1  0  0  0  0
 14 17  1  0  0  0  0
 17 18  1  0  0  0  0
 17 19  1  0  0  0  0
 17 20  1  0  0  0  0
 20 21  1  0  0  0  0
 20 22  1  0  0  0  0
 20 23  1  0  0  0  0
M  END
> <VConfSearch Rank>
145

> <Conf_Id>
40

> <Delta U+W>
0.000

> <U+W>
-8.382

> <U>
46.604

> <W>
-54.986

> <W(PB)>
-57.162

> <W(SA)>
2.176

> <Valence>
1.727

> <Coulomb>
44.434

> <VdW>
0.443

> <VdW6>
-4.623

> <VdW12>
5.066

> <Bond>
0.112

> <Angle>
0.386

> <Pdih>
1.228

> <Idih>
0.000

> <Tether>
0.000

$$$$
VeraChem MOL file


 23 22  0  0  0  0  0  0  0  0999 V2000     
   22.2347   20.1903   24.9145 N   0  3  0  0  0  0  0  0  0  0  0  0
   22.5568   21.1260   24.6468 H   0  0  0  0  0  0  0  0  0  0  0  0
   22.9736   19.5304   24.6512 H   0  0  0  0  0  0  0  0  0  0  0  0
   22.1746   20.1776   25.9383 H   0  0  0  0  0  0  0  0  0  0  0  0
   20.9091   19.8422   24.2684 C   0  0  0  0  0  0  0  0  0  0  0  0
   20.1653   20.5654   24.6135 H   0  0  0  0  0  0  0  0  0  0  0  0
   20.6149   18.8506   24.6214 H   0  0  0  0  0  0  0  0  0  0  0  0
   20.9670   19.8532   22.7290 C   0  0  0  0  0  0  0  0  0  0  0  0
   21.3096   20.8404   22.3913 H   0  0  0  0  0  0  0  0  0  0  0  0
   21.7131   19.1261   22.3817 H   0  0  0  0  0  0  0  0  0  0  0  0
   19.5989   19.5472   22.0745 C   0  0  0  0  0  0  0  0  0  0  0  0
   19.6983   19.6864   20.9902 H   0  0  0  0  0  0  0  0  0  0  0  0
   18.8568   20.2820   22.4163 H   0  0  0  0  0  0  0  0  0  0  0  0
   19.0904   18.1131   22.3701 C   0  0  0  0  0  0  0  0  0  0  0  0
   19.8233   17.3784   22.0094 H   0  0  0  0  0  0  0  0  0  0  0  0
   19.0147   17.9666   23.4557 H   0  0  0  0  0  0  0  0  0  0  0  0
   17.7063   17.8097   21.7466 C   0  0  0  0  0  0  0  0  0  0  0  0
   16.9665   18.5355   22.1122 H   0  0  0  0  0  0  0  0  0  0  0  0
   17.3700   16.8246   22.0993 H   0  0  0  0  0  0  0  0  0  0  0  0
   17.7131   17.8073   20.2008 C   0  0  0  0  0  0  0  0  0  0  0  0
   17.9208   18.8055   19.7961 H   0  0  0  0  0  0  0  0  0  0  0  0
   16.7357   17.4922   19.8133 H   0  0  0  0  0  0  0  0  0  0  0  0
   18.4684   17.1130   19.8102 H   0  0  0  0  0  0  0  0  0  0  0  0
  1  2  1  0  0  0  0
  1  3  1  0  0  0  0
  1  4  1  0  0  0  0
  1  5  1  0  0  0  0
  5  6  1  0  0  0  0
  5  7  1  0  0  0  0
  5  8  1  0  0  0  0
  8  9  1  0  0  0  0
  8 10  1  0  0  0  0
  8 11  1  0  0  0  0
 11 12  1  0  0  0  0
 11 13  1  0  0  0  0
 11 14  1  0  0  0  0
 14 15  1  0  0  0  0
 14 16  1  0  0  0  0
 14 17  1  0  0  0  0
 17 18  1  0  0  0  0
 17 19  1  0  0  0  0
 17 20  1  0  0  0  0
 20 21  1  0  0  0  0
 20 22  1  0  0  0  0
 20 23  1  0  0  0  0
M  END
> <VConfSearch Rank>
146

> <Conf_Id>
65

> <Delta U+W>
1.004

> <U+W>
-7.378

> <U>
48.047

> <W>
-55.425

> <W(PB)>
-57.542

> <W(SA)>
2.116

> <Valence>
2.583

> <Coulomb>
44.791

> <VdW>
0.673

> <VdW6>
-5.788

> <VdW12>
6.462

> <Bond>
0.177

> <Angle>
0.787

> <Pdih>
1.619

> <Idih>
0.000

> <Tether>
0.000

$$$$
VeraChem MOL file


 23 22  0  0  0  0  0  0  0  0999 V2000     
   21.3886   21.6521   20.8149 N   0  3  0  0  0  0  0  0  0  0  0  0
   22.0909   22.1075   21.4067 H   0  0  0  0  0  0  0  0  0  0  0  0
   20.9358   22.3917   20.2673 H   0  0  0  0  0  0  0  0  0  0  0  0
   21.8942   21.0569   20.1508 H   0  0  0  0  0  0  0  0  0  0  0  0
   20.3863   20.8628   21.6322 C   0  0  0  0  0  0  0  0  0  0  0  0
   19.6553   20.4339   20.9421 H   0  0  0  0  0  0  0  0  0  0  0  0
   19.8667   21.5606   22.2944 H   0  0  0  0  0  0  0  0  0  0  0  0
   21.0366   19.7432   22.4669 C   0  0  0  0  0  0  0  0  0  0  0  0
   21.5577   19.0414   21.8022 H   0  0  0  0  0  0  0  0  0  0  0  0
   21.8014   20.1832   23.1207 H   0  0  0  0  0  0  0  0  0  0  0  0
   20.0157   18.9737   23.3383 C   0  0  0  0  0  0  0  0  0  0  0  0
   19.5030   19.6769   24.0091 H   0  0  0  0  0  0  0  0  0  0  0  0
   20.5693   18.2773   23.9813 H   0  0  0  0  0  0  0  0  0  0  0  0
   18.9709   18.1909   22.5027 C   0  0  0  0  0  0  0  0  0  0  0  0
   18.4346   18.8846   21.8418 H   0  0  0  0  0  0  0  0  0  0  0  0
   19.4832   17.4732   21.8471 H   0  0  0  0  0  0  0  0  0  0  0  0
   17.9253   17.4448   23.3666 C   0  0  0  0  0  0  0  0  0  0  0  0
   17.1606   17.0177   22.7026 H   0  0  0  0  0  0  0  0  0  0  0  0
   17.4021   18.1595   24.0172 H   0  0  0  0  0  0  0  0  0  0  0  0
   18.5298   16.3083   24.2224 C   0  0  0  0  0  0  0  0  0  0  0  0
   19.2092   16.6982   24.9903 H   0  0  0  0  0  0  0  0  0  0  0  0
   19.0868   15.5973   23.5984 H   0  0  0  0  0  0  0  0  0  0  0  0
   17.7360   15.7519   24.7374 H   0  0  0  0  0  0  0  0  0  0  0  0
  1  2  1  0  0  0  0
  1  3  1  0  0  0  0
  1  4  1  0  0  0  0
  1  5  1  0  0  0  0
  5  6  1  0  0  0  0
  5  7  1  0  0  0  0
  5  8  1  0  0  0  0
  8  9  1  0  0  0  0
  8 10  1  0  0  0  0
  8 11  1  0  0  0  0
 11 12  1  0  0  0  0
 11 13  1  0  0  0  0
 11 14  1  0  0  0  0
 14 15  1  0  0  0  0
 14 16  1  0  0  0  0
 14 17  1  0  0  0  0
 17 18  1  0  0  0  0
 17 19  1  0  0  0  0
 17 20  1  0  0  0  0
 20 21  1  0  0  0  0
 20 22  1  0  0  0  0
 20 23  1  0  0  0  0
M  END
> <VConfSearch Rank>
147

> <Conf_Id>
92

> <Delta U+W>
0.973

> <U+W>
-7.409

> <U>
48.047

> <W>
-55.456

> <W(PB)>
-57.595

> <W(SA)>
2.138

> <Valence>
2.583

> <Coulomb>
44.791

> <VdW>
0.674

> <VdW6>
-5.789

> <VdW12>
6.462

> <Bond>
0.177

> <Angle>
0.787

> <Pdih>
1.619

> <Idih>
0.000

> <Tether>
0.000

$$$$
VeraChem MOL file


 23 22  0  0  0  0  0  0  0  0999 V2000     
   16.7779   18.7527   24.5075 N   0  3  0  0  0  0  0  0  0  0  0  0
   16.1360   17.9596   24.4031 H   0  0  0  0  0  0  0  0  0  0  0  0
   16.2009   19.5990   24.5493 H   0  0  0  0  0  0  0  0  0  0  0  0
   17.2307   18.6511   25.4216 H   0  0  0  0  0  0  0  0  0  0  0  0
   17.7878   18.8120   23.3796 C   0  0  0  0  0  0  0  0  0  0  0  0
   17.2379   18.8908   22.4379 H   0  0  0  0  0  0  0  0  0  0  0  0
   18.3425   17.8702   23.3765 H   0  0  0  0  0  0  0  0  0  0  0  0
   18.7672   19.9941   23.5080 C   0  0  0  0  0  0  0  0  0  0  0  0
   18.1951   20.9303   23.5548 H   0  0  0  0  0  0  0  0  0  0  0  0
   19.3189   19.9153   24.4543 H   0  0  0  0  0  0  0  0  0  0  0  0
   19.7656   20.0743   22.3292 C   0  0  0  0  0  0  0  0  0  0  0  0
   20.3669   20.9875   22.4386 H   0  0  0  0  0  0  0  0  0  0  0  0
   19.2113   20.1789   21.3861 H   0  0  0  0  0  0  0  0  0  0  0  0
   20.7096   18.8505   22.2473 C   0  0  0  0  0  0  0  0  0  0  0  0
   21.2376   18.7294   23.2033 H   0  0  0  0  0  0  0  0  0  0  0  0
   20.1245   17.9348   22.0887 H   0  0  0  0  0  0  0  0  0  0  0  0
   21.7405   18.9964   21.1060 C   0  0  0  0  0  0  0  0  0  0  0  0
   22.3380   19.9061   21.2591 H   0  0  0  0  0  0  0  0  0  0  0  0
   21.2175   19.1186   20.1471 H   0  0  0  0  0  0  0  0  0  0  0  0
   22.6804   17.7748   21.0244 C   0  0  0  0  0  0  0  0  0  0  0  0
   23.2430   17.6465   21.9584 H   0  0  0  0  0  0  0  0  0  0  0  0
   23.4051   17.8971   20.2089 H   0  0  0  0  0  0  0  0  0  0  0  0
   22.1146   16.8530   20.8367 H   0  0  0  0  0  0  0  0  0  0  0  0
  1  2  1  0  0  0  0
  1  3  1  0  0  0  0
  1  4  1  0  0  0  0
  1  5  1  0  0  0  0
  5  6  1  0  0  0  0
  5  7  1  0  0  0  0
  5  8  1  0  0  0  0
  8  9  1  0  0  0  0
  8 10  1  0  0  0  0
  8 11  1  0  0  0  0
 11 12  1  0  0  0  0
 11 13  1  0  0  0  0
 11 14  1  0  0  0  0
 14 15  1  0  0  0  0
 14 16  1  0  0  0  0
 14 17  1  0  0  0  0
 17 18  1  0  0  0  0
 17 19  1  0  0  0  0
 17 20  1  0  0  0  0
 20 21  1  0  0  0  0
 20 22  1  0  0  0  0
 20 23  1  0  0  0  0
M  END
> <VConfSearch Rank>
148

> <Conf_Id>
42

> <Delta U+W>
0.365

> <U+W>
-8.017

> <U>
47.375

> <W>
-55.392

> <W(PB)>
-57.543

> <W(SA)>
2.152

> <Valence>
2.032

> <Coulomb>
44.843

> <VdW>
0.499

> <VdW6>
-5.218

> <VdW12>
5.717

> <Bond>
0.135

> <Angle>
0.514

> <Pdih>
1.383

> <Idih>
0.000

> <Tether>
0.000

$$$$
VeraChem MOL file


 23 22  0  0  0  0  0  0  0  0999 V2000     
   18.0560   21.5343   21.7767 N   0  3  0  0  0  0  0  0  0  0  0  0
   17.2694   21.2840   22.3844 H   0  0  0  0  0  0  0  0  0  0  0  0
   17.7081   22.2313   21.1095 H   0  0  0  0  0  0  0  0  0  0  0  0
   18.7537   22.0031   22.3621 H   0  0  0  0  0  0  0  0  0  0  0  0
   18.6332   20.3212   21.0732 C   0  0  0  0  0  0  0  0  0  0  0  0
   19.4477   20.6585   20.4265 H   0  0  0  0  0  0  0  0  0  0  0  0
   17.8469   19.9021   20.4395 H   0  0  0  0  0  0  0  0  0  0  0  0
   19.1495   19.2310   22.0324 C   0  0  0  0  0  0  0  0  0  0  0  0
   18.3369   18.9135   22.6993 H   0  0  0  0  0  0  0  0  0  0  0  0
   19.4280   18.3584   21.4290 H   0  0  0  0  0  0  0  0  0  0  0  0
   20.3716   19.6938   22.8626 C   0  0  0  0  0  0  0  0  0  0  0  0
   20.1253   20.6269   23.3861 H   0  0  0  0  0  0  0  0  0  0  0  0
   21.2020   19.9341   22.1844 H   0  0  0  0  0  0  0  0  0  0  0  0
   20.8520   18.6666   23.9204 C   0  0  0  0  0  0  0  0  0  0  0  0
   21.6871   19.1240   24.4690 H   0  0  0  0  0  0  0  0  0  0  0  0
   20.0648   18.4987   24.6684 H   0  0  0  0  0  0  0  0  0  0  0  0
   21.3397   17.3132   23.3418 C   0  0  0  0  0  0  0  0  0  0  0  0
   22.1840   16.9569   23.9487 H   0  0  0  0  0  0  0  0  0  0  0  0
   21.7359   17.4519   22.3263 H   0  0  0  0  0  0  0  0  0  0  0  0
   20.2512   16.2144   23.3497 C   0  0  0  0  0  0  0  0  0  0  0  0
   19.9030   16.0157   24.3716 H   0  0  0  0  0  0  0  0  0  0  0  0
   20.6509   15.2751   22.9461 H   0  0  0  0  0  0  0  0  0  0  0  0
   19.3803   16.4913   22.7454 H   0  0  0  0  0  0  0  0  0  0  0  0
  1  2  1  0  0  0  0
  1  3  1  0  0  0  0
  1  4  1  0  0  0  0
  1  5  1  0  0  0  0
  5  6  1  0  0  0  0
  5  7  1  0  0  0  0
  5  8  1  0  0  0  0
  8  9  1  0  0  0  0
  8 10  1  0  0  0  0
  8 11  1  0  0  0  0
 11 12  1  0  0  0  0
 11 13  1  0  0  0  0
 11 14  1  0  0  0  0
 14 15  1  0  0  0  0
 14 16  1  0  0  0  0
 14 17  1  0  0  0  0
 17 18  1  0  0  0  0
 17 19  1  0  0  0  0
 17 20  1  0  0  0  0
 20 21  1  0  0  0  0
 20 22  1  0  0  0  0
 20 23  1  0  0  0  0
M  END
> <VConfSearch Rank>
149

> <Conf_Id>
3

> <Delta U+W>
3.283

> <U+W>
-5.099

> <U>
50.701

> <W>
-55.800

> <W(PB)>
-57.867

> <W(SA)>
2.067

> <Valence>
4.880

> <Coulomb>
45.095

> <VdW>
0.726

> <VdW6>
-6.620

> <VdW12>
7.346

> <Bond>
0.222

> <Angle>
1.260

> <Pdih>
3.398

> <Idih>
0.000

> <Tether>
0.000

$$$$
VeraChem MOL file


 23 22  0  0  0  0  0  0  0  0999 V2000     
   16.9013   18.9941   22.3331 N   0  3  0  0  0  0  0  0  0  0  0  0
   16.4373   19.8225   22.7191 H   0  0  0  0  0  0  0  0  0  0  0  0
   16.1682   18.4010   21.9298 H   0  0  0  0  0  0  0  0  0  0  0  0
   17.4923   19.3107   21.5585 H   0  0  0  0  0  0  0  0  0  0  0  0
   17.7061   18.2577   23.3860 C   0  0  0  0  0  0  0  0  0  0  0  0
   18.1469   17.3734   22.9189 H   0  0  0  0  0  0  0  0  0  0  0  0
   17.0113   17.9204   24.1600 H   0  0  0  0  0  0  0  0  0  0  0  0
   18.8136   19.1151   24.0321 C   0  0  0  0  0  0  0  0  0  0  0  0
   18.3518   19.9716   24.5411 H   0  0  0  0  0  0  0  0  0  0  0  0
   19.3054   18.5233   24.8155 H   0  0  0  0  0  0  0  0  0  0  0  0
   19.8821   19.6293   23.0344 C   0  0  0  0  0  0  0  0  0  0  0  0
   20.5915   20.2565   23.5896 H   0  0  0  0  0  0  0  0  0  0  0  0
   19.4131   20.2850   22.2889 H   0  0  0  0  0  0  0  0  0  0  0  0
   20.6493   18.4875   22.3201 C   0  0  0  0  0  0  0  0  0  0  0  0
   21.1410   17.8484   23.0665 H   0  0  0  0  0  0  0  0  0  0  0  0
   19.9381   17.8453   21.7843 H   0  0  0  0  0  0  0  0  0  0  0  0
   21.7000   18.9939   21.3022 C   0  0  0  0  0  0  0  0  0  0  0  0
   21.2120   19.6252   20.5466 H   0  0  0  0  0  0  0  0  0  0  0  0
   22.1105   18.1298   20.7613 H   0  0  0  0  0  0  0  0  0  0  0  0
   22.8665   19.7707   21.9544 C   0  0  0  0  0  0  0  0  0  0  0  0
   23.3503   19.1726   22.7375 H   0  0  0  0  0  0  0  0  0  0  0  0
   22.5250   20.7123   22.4016 H   0  0  0  0  0  0  0  0  0  0  0  0
   23.6282   20.0200   21.2044 H   0  0  0  0  0  0  0  0  0  0  0  0
  1  2  1  0  0  0  0
  1  3  1  0  0  0  0
  1  4  1  0  0  0  0
  1  5  1  0  0  0  0
  5  6  1  0  0  0  0
  5  7  1  0  0  0  0
  5  8  1  0  0  0  0
  8  9  1  0  0  0  0
  8 10  1  0  0  0  0
  8 11  1  0  0  0  0
 11 12  1  0  0  0  0
 11 13  1  0  0  0  0
 11 14  1  0  0  0  0
 14 15  1  0  0  0  0
 14 16  1  0  0  0  0
 14 17  1  0  0  0  0
 17 18  1  0  0  0  0
 17 19  1  0  0  0  0
 17 20  1  0  0  0  0
 20 21  1  0  0  0  0
 20 22  1  0  0  0  0
 20 23  1  0  0  0  0
M  END
> <VConfSearch Rank>
150

> <Conf_Id>
83

> <Delta U+W>
1.229

> <U+W>
-7.154

> <U>
48.727

> <W>
-55.880

> <W(PB)>
-57.960

> <W(SA)>
2.080

> <Valence>
2.671

> <Coulomb>
45.371

> <VdW>
0.684

> <VdW6>
-6.511

> <VdW12>
7.195

> <Bond>
0.203

> <Angle>
0.915

> <Pdih>
1.554

> <Idih>
0.000

> <Tether>
0.000

$$$$
VeraChem MOL file


 23 22  0  0  0  0  0  0  0  0999 V2000     
   17.3274   17.5907   23.4041 N   0  3  0  0  0  0  0  0  0  0  0  0
   17.5264   16.7502   23.9559 H   0  0  0  0  0  0  0  0  0  0  0  0
   17.7375   17.4485   22.4761 H   0  0  0  0  0  0  0  0  0  0  0  0
   16.3102   17.6338   23.2806 H   0  0  0  0  0  0  0  0  0  0  0  0
   17.8678   18.8415   24.0689 C   0  0  0  0  0  0  0  0  0  0  0  0
   17.3646   18.9492   25.0336 H   0  0  0  0  0  0  0  0  0  0  0  0
   17.5964   19.6995   23.4486 H   0  0  0  0  0  0  0  0  0  0  0  0
   19.3943   18.8168   24.2887 C   0  0  0  0  0  0  0  0  0  0  0  0
   19.6884   19.7312   24.8211 H   0  0  0  0  0  0  0  0  0  0  0  0
   19.6463   17.9812   24.9550 H   0  0  0  0  0  0  0  0  0  0  0  0
   20.2220   18.6974   22.9839 C   0  0  0  0  0  0  0  0  0  0  0  0
   19.9917   17.7492   22.4804 H   0  0  0  0  0  0  0  0  0  0  0  0
   21.2836   18.6475   23.2585 H   0  0  0  0  0  0  0  0  0  0  0  0
   19.9946   19.8790   22.0070 C   0  0  0  0  0  0  0  0  0  0  0  0
   18.9290   19.9448   21.7508 H   0  0  0  0  0  0  0  0  0  0  0  0
   20.2520   20.8247   22.5035 H   0  0  0  0  0  0  0  0  0  0  0  0
   20.7980   19.7526   20.6898 C   0  0  0  0  0  0  0  0  0  0  0  0
   20.4920   20.5620   20.0122 H   0  0  0  0  0  0  0  0  0  0  0  0
   20.5366   18.8131   20.1831 H   0  0  0  0  0  0  0  0  0  0  0  0
   22.3288   19.8265   20.8912 C   0  0  0  0  0  0  0  0  0  0  0  0
   22.6131   20.7422   21.4258 H   0  0  0  0  0  0  0  0  0  0  0  0
   22.8437   19.8308   19.9218 H   0  0  0  0  0  0  0  0  0  0  0  0
   22.7038   18.9659   21.4587 H   0  0  0  0  0  0  0  0  0  0  0  0
  1  2  1  0  0  0  0
  1  3  1  0  0  0  0
  1  4  1  0  0  0  0
  1  5  1  0  0  0  0
  5  6  1  0  0  0  0
  5  7  1  0  0  0  0
  5  8  1  0  0  0  0
  8  9  1  0  0  0  0
  8 10  1  0  0  0  0
  8 11  1  0  0  0  0
 11 12  1  0  0  0  0
 11 13  1  0  0  0  0
 11 14  1  0  0  0  0
 14 15  1  0  0  0  0
 14 16  1  0  0  0  0
 14 17  1  0  0  0  0
 17 18  1  0  0  0  0
 17 19  1  0  0  0  0
 17 20  1  0  0  0  0
 20 21  1  0  0  0  0
 20 22  1  0  0  0  0
 20 23  1  0  0  0  0
M  END
> <VConfSearch Rank>
151

> <Conf_Id>
50

> <Delta U+W>
1.252

> <U+W>
-7.130

> <U>
48.727

> <W>
-55.857

> <W(PB)>
-57.937

> <W(SA)>
2.080

> <Valence>
2.671

> <Coulomb>
45.371

> <VdW>
0.684

> <VdW6>
-6.511

> <VdW12>
7.196

> <Bond>
0.203

> <Angle>
0.915

> <Pdih>
1.554

> <Idih>
0.000

> <Tether>
0.000

$$$$
VeraChem MOL file


 23 22  0  0  0  0  0  0  0  0999 V2000     
   17.2839   18.8108   24.5719 N   0  3  0  0  0  0  0  0  0  0  0  0
   17.9861   19.2556   25.1707 H   0  0  0  0  0  0  0  0  0  0  0  0
   16.7202   18.2008   25.1736 H   0  0  0  0  0  0  0  0  0  0  0  0
   16.6625   19.5516   24.2316 H   0  0  0  0  0  0  0  0  0  0  0  0
   17.9221   18.0421   23.4313 C   0  0  0  0  0  0  0  0  0  0  0  0
   17.1191   17.5641   22.8637 H   0  0  0  0  0  0  0  0  0  0  0  0
   18.5496   17.2565   23.8608 H   0  0  0  0  0  0  0  0  0  0  0  0
   18.7647   18.9186   22.4845 C   0  0  0  0  0  0  0  0  0  0  0  0
   19.0885   18.2987   21.6410 H   0  0  0  0  0  0  0  0  0  0  0  0
   18.1315   19.7090   22.0599 H   0  0  0  0  0  0  0  0  0  0  0  0
   19.9926   19.5496   23.1894 C   0  0  0  0  0  0  0  0  0  0  0  0
   20.5816   18.7742   23.6985 H   0  0  0  0  0  0  0  0  0  0  0  0
   19.6334   20.2255   23.9768 H   0  0  0  0  0  0  0  0  0  0  0  0
   20.9011   20.3635   22.2311 C   0  0  0  0  0  0  0  0  0  0  0  0
   20.3078   20.7830   21.4069 H   0  0  0  0  0  0  0  0  0  0  0  0
   21.2927   21.2290   22.7834 H   0  0  0  0  0  0  0  0  0  0  0  0
   22.1160   19.5815   21.6694 C   0  0  0  0  0  0  0  0  0  0  0  0
   22.7580   19.2532   22.4988 H   0  0  0  0  0  0  0  0  0  0  0  0
   22.7256   20.2700   21.0676 H   0  0  0  0  0  0  0  0  0  0  0  0
   21.7414   18.3623   20.7985 C   0  0  0  0  0  0  0  0  0  0  0  0
   21.0519   18.6473   19.9934 H   0  0  0  0  0  0  0  0  0  0  0  0
   21.2723   17.5729   21.3985 H   0  0  0  0  0  0  0  0  0  0  0  0
   22.6386   17.9319   20.3353 H   0  0  0  0  0  0  0  0  0  0  0  0
  1  2  1  0  0  0  0
  1  3  1  0  0  0  0
  1  4  1  0  0  0  0
  1  5  1  0  0  0  0
  5  6  1  0  0  0  0
  5  7  1  0  0  0  0
  5  8  1  0  0  0  0
  8  9  1  0  0  0  0
  8 10  1  0  0  0  0
  8 11  1  0  0  0  0
 11 12  1  0  0  0  0
 11 13  1  0  0  0  0
 11 14  1  0  0  0  0
 14 15  1  0  0  0  0
 14 16  1  0  0  0  0
 14 17  1  0  0  0  0
 17 18  1  0  0  0  0
 17 19  1  0  0  0  0
 17 20  1  0  0  0  0
 20 21  1  0  0  0  0
 20 22  1  0  0  0  0
 20 23  1  0  0  0  0
M  END
> <VConfSearch Rank>
152

> <Conf_Id>
55

> <Delta U+W>
3.232

> <U+W>
-5.150

> <U>
50.625

> <W>
-55.776

> <W(PB)>
-57.839

> <W(SA)>
2.064

> <Valence>
4.837

> <Coulomb>
45.097

> <VdW>
0.692

> <VdW6>
-6.655

> <VdW12>
7.347

> <Bond>
0.223

> <Angle>
1.167

> <Pdih>
3.447

> <Idih>
0.000

> <Tether>
0.000

$$$$
VeraChem MOL file


 23 22  0  0  0  0  0  0  0  0999 V2000     
   18.7718   20.5267   20.0685 N   0  3  0  0  0  0  0  0  0  0  0  0
   19.0031   21.5067   19.8766 H   0  0  0  0  0  0  0  0  0  0  0  0
   17.8119   20.3776   19.7394 H   0  0  0  0  0  0  0  0  0  0  0  0
   19.3819   19.9520   19.4785 H   0  0  0  0  0  0  0  0  0  0  0  0
   18.9226   20.1878   21.5376 C   0  0  0  0  0  0  0  0  0  0  0  0
   18.6263   19.1458   21.6714 H   0  0  0  0  0  0  0  0  0  0  0  0
   18.2259   20.8150   22.1003 H   0  0  0  0  0  0  0  0  0  0  0  0
   20.3547   20.4090   22.0629 C   0  0  0  0  0  0  0  0  0  0  0  0
   21.0723   19.8201   21.4762 H   0  0  0  0  0  0  0  0  0  0  0  0
   20.6162   21.4637   21.9042 H   0  0  0  0  0  0  0  0  0  0  0  0
   20.5062   20.0852   23.5708 C   0  0  0  0  0  0  0  0  0  0  0  0
   19.6047   20.3985   24.1155 H   0  0  0  0  0  0  0  0  0  0  0  0
   21.3238   20.7004   23.9715 H   0  0  0  0  0  0  0  0  0  0  0  0
   20.8356   18.6041   23.8922 C   0  0  0  0  0  0  0  0  0  0  0  0
   21.7935   18.3330   23.4273 H   0  0  0  0  0  0  0  0  0  0  0  0
   20.9882   18.5159   24.9768 H   0  0  0  0  0  0  0  0  0  0  0  0
   19.7499   17.5935   23.4558 C   0  0  0  0  0  0  0  0  0  0  0  0
   19.6938   17.5548   22.3602 H   0  0  0  0  0  0  0  0  0  0  0  0
   18.7664   17.9198   23.8218 H   0  0  0  0  0  0  0  0  0  0  0  0
   20.0478   16.1743   23.9848 C   0  0  0  0  0  0  0  0  0  0  0  0
   20.0741   16.1587   25.0822 H   0  0  0  0  0  0  0  0  0  0  0  0
   21.0150   15.8101   23.6144 H   0  0  0  0  0  0  0  0  0  0  0  0
   19.2739   15.4681   23.6570 H   0  0  0  0  0  0  0  0  0  0  0  0
  1  2  1  0  0  0  0
  1  3  1  0  0  0  0
  1  4  1  0  0  0  0
  1  5  1  0  0  0  0
  5  6  1  0  0  0  0
  5  7  1  0  0  0  0
  5  8  1  0  0  0  0
  8  9  1  0  0  0  0
  8 10  1  0  0  0  0
  8 11  1  0  0  0  0
 11 12  1  0  0  0  0
 11 13  1  0  0  0  0
 11 14  1  0  0  0  0
 14 15  1  0  0  0  0
 14 16  1  0  0  0  0
 14 17  1  0  0  0  0
 17 18  1  0  0  0  0
 17 19  1  0  0  0  0
 17 20  1  0  0  0  0
 20 21  1  0  0  0  0
 20 22  1  0  0  0  0
 20 23  1  0  0  0  0
M  END
> <VConfSearch Rank>
153

> <Conf_Id>
93

> <Delta U+W>
2.589

> <U+W>
-5.793

> <U>
50.122

> <W>
-55.915

> <W(PB)>
-58.031

> <W(SA)>
2.115

> <Valence>
4.132

> <Coulomb>
45.536

> <VdW>
0.454

> <VdW6>
-6.262

> <VdW12>
6.715

> <Bond>
0.182

> <Angle>
1.157

> <Pdih>
2.794

> <Idih>
0.000

> <Tether>
0.000

$$$$
VeraChem MOL file


 23 22  0  0  0  0  0  0  0  0999 V2000     
   20.4378   16.3475   21.0307 N   0  3  0  0  0  0  0  0  0  0  0  0
   19.4616   16.0429   21.1015 H   0  0  0  0  0  0  0  0  0  0  0  0
   21.0104   15.6182   21.4691 H   0  0  0  0  0  0  0  0  0  0  0  0
   20.6791   16.3565   20.0345 H   0  0  0  0  0  0  0  0  0  0  0  0
   20.6567   17.7001   21.6773 C   0  0  0  0  0  0  0  0  0  0  0  0
   21.7184   17.9464   21.5901 H   0  0  0  0  0  0  0  0  0  0  0  0
   20.4156   17.6057   22.7377 H   0  0  0  0  0  0  0  0  0  0  0  0
   19.8137   18.8188   21.0341 C   0  0  0  0  0  0  0  0  0  0  0  0
   20.0802   18.8768   19.9703 H   0  0  0  0  0  0  0  0  0  0  0  0
   18.7464   18.5634   21.0727 H   0  0  0  0  0  0  0  0  0  0  0  0
   20.0530   20.2077   21.6784 C   0  0  0  0  0  0  0  0  0  0  0  0
   19.8518   20.9758   20.9187 H   0  0  0  0  0  0  0  0  0  0  0  0
   21.1135   20.3224   21.9426 H   0  0  0  0  0  0  0  0  0  0  0  0
   19.1605   20.5216   22.9074 C   0  0  0  0  0  0  0  0  0  0  0  0
   19.3707   21.5514   23.2279 H   0  0  0  0  0  0  0  0  0  0  0  0
   18.1041   20.5066   22.6058 H   0  0  0  0  0  0  0  0  0  0  0  0
   19.3637   19.5718   24.1104 C   0  0  0  0  0  0  0  0  0  0  0  0
   20.4339   19.4915   24.3469 H   0  0  0  0  0  0  0  0  0  0  0  0
   19.0095   18.5646   23.8555 H   0  0  0  0  0  0  0  0  0  0  0  0
   18.5991   20.0623   25.3583 C   0  0  0  0  0  0  0  0  0  0  0  0
   18.7452   19.3715   26.1988 H   0  0  0  0  0  0  0  0  0  0  0  0
   17.5214   20.1285   25.1600 H   0  0  0  0  0  0  0  0  0  0  0  0
   18.9504   21.0537   25.6731 H   0  0  0  0  0  0  0  0  0  0  0  0
  1  2  1  0  0  0  0
  1  3  1  0  0  0  0
  1  4  1  0  0  0  0
  1  5  1  0  0  0  0
  5  6  1  0  0  0  0
  5  7  1  0  0  0  0
  5  8  1  0  0  0  0
  8  9  1  0  0  0  0
  8 10  1  0  0  0  0
  8 11  1  0  0  0  0
 11 12  1  0  0  0  0
 11 13  1  0  0  0  0
 11 14  1  0  0  0  0
 14 15  1  0  0  0  0
 14 16  1  0  0  0  0
 14 17  1  0  0  0  0
 17 18  1  0  0  0  0
 17 19  1  0  0  0  0
 17 20  1  0  0  0  0
 20 21  1  0  0  0  0
 20 22  1  0  0  0  0
 20 23  1  0  0  0  0
M  END
> <VConfSearch Rank>
154

> <Conf_Id>
70

> <Delta U+W>
2.599

> <U+W>
-5.783

> <U>
50.122

> <W>
-55.906

> <W(PB)>
-58.010

> <W(SA)>
2.105

> <Valence>
4.132

> <Coulomb>
45.536

> <VdW>
0.454

> <VdW6>
-6.262

> <VdW12>
6.715

> <Bond>
0.182

> <Angle>
1.157

> <Pdih>
2.794

> <Idih>
0.000

> <Tether>
0.000

$$$$
VeraChem MOL file


 23 22  0  0  0  0  0  0  0  0999 V2000     
   19.1671   21.3210   24.0732 N   0  3  0  0  0  0  0  0  0  0  0  0
   18.3042   21.4472   24.6117 H   0  0  0  0  0  0  0  0  0  0  0  0
   19.6185   22.2399   24.0115 H   0  0  0  0  0  0  0  0  0  0  0  0
   19.7841   20.7188   24.6265 H   0  0  0  0  0  0  0  0  0  0  0  0
   18.8943   20.7337   22.7025 C   0  0  0  0  0  0  0  0  0  0  0  0
   19.8460   20.6567   22.1703 H   0  0  0  0  0  0  0  0  0  0  0  0
   18.2575   21.4373   22.1594 H   0  0  0  0  0  0  0  0  0  0  0  0
   18.2100   19.3525   22.7472 C   0  0  0  0  0  0  0  0  0  0  0  0
   17.2402   19.4487   23.2530 H   0  0  0  0  0  0  0  0  0  0  0  0
   17.9817   19.0371   21.7211 H   0  0  0  0  0  0  0  0  0  0  0  0
   19.0483   18.2564   23.4563 C   0  0  0  0  0  0  0  0  0  0  0  0
   18.5024   17.3043   23.4041 H   0  0  0  0  0  0  0  0  0  0  0  0
   19.1258   18.4952   24.5255 H   0  0  0  0  0  0  0  0  0  0  0  0
   20.4752   18.0533   22.8842 C   0  0  0  0  0  0  0  0  0  0  0  0
   21.0674   18.9689   23.0141 H   0  0  0  0  0  0  0  0  0  0  0  0
   20.9800   17.2799   23.4797 H   0  0  0  0  0  0  0  0  0  0  0  0
   20.4901   17.6304   21.3964 C   0  0  0  0  0  0  0  0  0  0  0  0
   20.0533   18.4221   20.7731 H   0  0  0  0  0  0  0  0  0  0  0  0
   19.8668   16.7358   21.2587 H   0  0  0  0  0  0  0  0  0  0  0  0
   21.9226   17.3372   20.9022 C   0  0  0  0  0  0  0  0  0  0  0  0
   21.9151   17.0414   19.8451 H   0  0  0  0  0  0  0  0  0  0  0  0
   22.3796   16.5210   21.4768 H   0  0  0  0  0  0  0  0  0  0  0  0
   22.5627   18.2239   20.9994 H   0  0  0  0  0  0  0  0  0  0  0  0
  1  2  1  0  0  0  0
  1  3  1  0  0  0  0
  1  4  1  0  0  0  0
  1  5  1  0  0  0  0
  5  6  1  0  0  0  0
  5  7  1  0  0  0  0
  5  8  1  0  0  0  0
  8  9  1  0  0  0  0
  8 10  1  0  0  0  0
  8 11  1  0  0  0  0
 11 12  1  0  0  0  0
 11 13  1  0  0  0  0
 11 14  1  0  0  0  0
 14 15  1  0  0  0  0
 14 16  1  0  0  0  0
 14 17  1  0  0  0  0
 17 18  1  0  0  0  0
 17 19  1  0  0  0  0
 17 20  1  0  0  0  0
 20 21  1  0  0  0  0
 20 22  1  0  0  0  0
 20 23  1  0  0  0  0
M  END
> <VConfSearch Rank>
155

> <Conf_Id>
72

> <Delta U+W>
1.051

> <U+W>
-7.331

> <U>
48.590

> <W>
-55.922

> <W(PB)>
-58.012

> <W(SA)>
2.090

> <Valence>
2.601

> <Coulomb>
45.520

> <VdW>
0.469

> <VdW6>
-6.867

> <VdW12>
7.336

> <Bond>
0.205

> <Angle>
0.962

> <Pdih>
1.434

> <Idih>
0.000

> <Tether>
0.000

$$$$
VeraChem MOL file


 23 22  0  0  0  0  0  0  0  0999 V2000     
   19.0690   20.7736   20.1463 N   0  3  0  0  0  0  0  0  0  0  0  0
   18.1721   20.9359   19.6760 H   0  0  0  0  0  0  0  0  0  0  0  0
   19.7954   20.8151   19.4242 H   0  0  0  0  0  0  0  0  0  0  0  0
   19.2236   21.5678   20.7756 H   0  0  0  0  0  0  0  0  0  0  0  0
   19.0846   19.4526   20.8880 C   0  0  0  0  0  0  0  0  0  0  0  0
   18.8859   18.6567   20.1652 H   0  0  0  0  0  0  0  0  0  0  0  0
   18.2700   19.4669   21.6168 H   0  0  0  0  0  0  0  0  0  0  0  0
   20.4191   19.1786   21.6061 C   0  0  0  0  0  0  0  0  0  0  0  0
   21.2344   19.2036   20.8709 H   0  0  0  0  0  0  0  0  0  0  0  0
   20.6260   19.9837   22.3227 H   0  0  0  0  0  0  0  0  0  0  0  0
   20.4390   17.8085   22.3282 C   0  0  0  0  0  0  0  0  0  0  0  0
   21.4208   17.6650   22.7989 H   0  0  0  0  0  0  0  0  0  0  0  0
   20.3514   17.0108   21.5778 H   0  0  0  0  0  0  0  0  0  0  0  0
   19.3218   17.6149   23.3889 C   0  0  0  0  0  0  0  0  0  0  0  0
   18.3440   17.5937   22.8892 H   0  0  0  0  0  0  0  0  0  0  0  0
   19.4406   16.6228   23.8459 H   0  0  0  0  0  0  0  0  0  0  0  0
   19.2874   18.6816   24.5128 C   0  0  0  0  0  0  0  0  0  0  0  0
   18.4543   18.4492   25.1907 H   0  0  0  0  0  0  0  0  0  0  0  0
   19.0643   19.6708   24.0909 H   0  0  0  0  0  0  0  0  0  0  0  0
   20.5941   18.7477   25.3353 C   0  0  0  0  0  0  0  0  0  0  0  0
   20.8446   17.7657   25.7572 H   0  0  0  0  0  0  0  0  0  0  0  0
   20.4888   19.4543   26.1686 H   0  0  0  0  0  0  0  0  0  0  0  0
   21.4392   19.0838   24.7217 H   0  0  0  0  0  0  0  0  0  0  0  0
  1  2  1  0  0  0  0
  1  3  1  0  0  0  0
  1  4  1  0  0  0  0
  1  5  1  0  0  0  0
  5  6  1  0  0  0  0
  5  7  1  0  0  0  0
  5  8  1  0  0  0  0
  8  9  1  0  0  0  0
  8 10  1  0  0  0  0
  8 11  1  0  0  0  0
 11 12  1  0  0  0  0
 11 13  1  0  0  0  0
 11 14  1  0  0  0  0
 14 15  1  0  0  0  0
 14 16  1  0  0  0  0
 14 17  1  0  0  0  0
 17 18  1  0  0  0  0
 17 19  1  0  0  0  0
 17 20  1  0  0  0  0
 20 21  1  0  0  0  0
 20 22  1  0  0  0  0
 20 23  1  0  0  0  0
M  END
> <VConfSearch Rank>
156

> <Conf_Id>
26

> <Delta U+W>
1.076

> <U+W>
-7.306

> <U>
48.641

> <W>
-55.947

> <W(PB)>
-58.031

> <W(SA)>
2.084

> <Valence>
2.922

> <Coulomb>
45.269

> <VdW>
0.449

> <VdW6>
-7.045

> <VdW12>
7.494

> <Bond>
0.220

> <Angle>
1.205

> <Pdih>
1.497

> <Idih>
0.000

> <Tether>
0.000

$$$$
VeraChem MOL file


 23 22  0  0  0  0  0  0  0  0999 V2000     
   18.0268   17.7492   20.3628 N   0  3  0  0  0  0  0  0  0  0  0  0
   18.4553   17.7252   19.4319 H   0  0  0  0  0  0  0  0  0  0  0  0
   17.0122   17.8022   20.2223 H   0  0  0  0  0  0  0  0  0  0  0  0
   18.2195   16.8456   20.8069 H   0  0  0  0  0  0  0  0  0  0  0  0
   18.5415   18.9082   21.1919 C   0  0  0  0  0  0  0  0  0  0  0  0
   18.0227   18.8896   22.1539 H   0  0  0  0  0  0  0  0  0  0  0  0
   18.2781   19.8357   20.6765 H   0  0  0  0  0  0  0  0  0  0  0  0
   20.0635   18.8577   21.4216 C   0  0  0  0  0  0  0  0  0  0  0  0
   20.3307   17.9210   21.9273 H   0  0  0  0  0  0  0  0  0  0  0  0
   20.5732   18.8391   20.4492 H   0  0  0  0  0  0  0  0  0  0  0  0
   20.5854   20.0671   22.2365 C   0  0  0  0  0  0  0  0  0  0  0  0
   20.4161   20.9850   21.6568 H   0  0  0  0  0  0  0  0  0  0  0  0
   21.6749   19.9832   22.3457 H   0  0  0  0  0  0  0  0  0  0  0  0
   19.9353   20.2390   23.6361 C   0  0  0  0  0  0  0  0  0  0  0  0
   20.3883   21.1107   24.1281 H   0  0  0  0  0  0  0  0  0  0  0  0
   18.8722   20.4877   23.5165 H   0  0  0  0  0  0  0  0  0  0  0  0
   20.0607   19.0133   24.5764 C   0  0  0  0  0  0  0  0  0  0  0  0
   19.5233   18.1538   24.1539 H   0  0  0  0  0  0  0  0  0  0  0  0
   19.5565   19.2465   25.5246 H   0  0  0  0  0  0  0  0  0  0  0  0
   21.5244   18.6178   24.8758 C   0  0  0  0  0  0  0  0  0  0  0  0
   22.0404   18.2708   23.9719 H   0  0  0  0  0  0  0  0  0  0  0  0
   21.5601   17.8029   25.6103 H   0  0  0  0  0  0  0  0  0  0  0  0
   22.0858   19.4663   25.2879 H   0  0  0  0  0  0  0  0  0  0  0  0
  1  2  1  0  0  0  0
  1  3  1  0  0  0  0
  1  4  1  0  0  0  0
  1  5  1  0  0  0  0
  5  6  1  0  0  0  0
  5  7  1  0  0  0  0
  5  8  1  0  0  0  0
  8  9  1  0  0  0  0
  8 10  1  0  0  0  0
  8 11  1  0  0  0  0
 11 12  1  0  0  0  0
 11 13  1  0  0  0  0
 11 14  1  0  0  0  0
 14 15  1  0  0  0  0
 14 16  1  0  0  0  0
 14 17  1  0  0  0  0
 17 18  1  0  0  0  0
 17 19  1  0  0  0  0
 17 20  1  0  0  0  0
 20 21  1  0  0  0  0
 20 22  1  0  0  0  0
 20 23  1  0  0  0  0
M  END
> <VConfSearch Rank>
157

> <Conf_Id>
90

> <Delta U+W>
1.131

> <U+W>
-7.251

> <U>
48.641

> <W>
-55.892

> <W(PB)>
-57.962

> <W(SA)>
2.070

> <Valence>
2.922

> <Coulomb>
45.269

> <VdW>
0.450

> <VdW6>
-7.045

> <VdW12>
7.495

> <Bond>
0.220

> <Angle>
1.205

> <Pdih>
1.497

> <Idih>
0.000

> <Tether>
0.000

$$$$
VeraChem MOL file


 23 22  0  0  0  0  0  0  0  0999 V2000     
   18.6068   16.7943   23.5580 N   0  3  0  0  0  0  0  0  0  0  0  0
   18.8782   15.9830   24.1237 H   0  0  0  0  0  0  0  0  0  0  0  0
   19.2436   16.8290   22.7561 H   0  0  0  0  0  0  0  0  0  0  0  0
   17.6683   16.6037   23.1926 H   0  0  0  0  0  0  0  0  0  0  0  0
   18.6482   18.0798   24.3605 C   0  0  0  0  0  0  0  0  0  0  0  0
   19.6634   18.2068   24.7449 H   0  0  0  0  0  0  0  0  0  0  0  0
   17.9751   17.9614   25.2140 H   0  0  0  0  0  0  0  0  0  0  0  0
   18.2362   19.3278   23.5532 C   0  0  0  0  0  0  0  0  0  0  0  0
   17.1991   19.2095   23.2123 H   0  0  0  0  0  0  0  0  0  0  0  0
   18.2403   20.1977   24.2234 H   0  0  0  0  0  0  0  0  0  0  0  0
   19.1468   19.6179   22.3337 C   0  0  0  0  0  0  0  0  0  0  0  0
   18.7666   20.5101   21.8175 H   0  0  0  0  0  0  0  0  0  0  0  0
   19.0696   18.7925   21.6148 H   0  0  0  0  0  0  0  0  0  0  0  0
   20.6284   19.8497   22.7243 C   0  0  0  0  0  0  0  0  0  0  0  0
   20.6764   20.6200   23.5064 H   0  0  0  0  0  0  0  0  0  0  0  0
   21.0522   18.9365   23.1629 H   0  0  0  0  0  0  0  0  0  0  0  0
   21.5128   20.2995   21.5365 C   0  0  0  0  0  0  0  0  0  0  0  0
   22.5149   20.5442   21.9157 H   0  0  0  0  0  0  0  0  0  0  0  0
   21.1127   21.2277   21.1051 H   0  0  0  0  0  0  0  0  0  0  0  0
   21.6466   19.2275   20.4310 C   0  0  0  0  0  0  0  0  0  0  0  0
   22.0202   18.2807   20.8419 H   0  0  0  0  0  0  0  0  0  0  0  0
   22.3522   19.5591   19.6583 H   0  0  0  0  0  0  0  0  0  0  0  0
   20.6858   19.0341   19.9382 H   0  0  0  0  0  0  0  0  0  0  0  0
  1  2  1  0  0  0  0
  1  3  1  0  0  0  0
  1  4  1  0  0  0  0
  1  5  1  0  0  0  0
  5  6  1  0  0  0  0
  5  7  1  0  0  0  0
  5  8  1  0  0  0  0
  8  9  1  0  0  0  0
  8 10  1  0  0  0  0
  8 11  1  0  0  0  0
 11 12  1  0  0  0  0
 11 13  1  0  0  0  0
 11 14  1  0  0  0  0
 14 15  1  0  0  0  0
 14 16  1  0  0  0  0
 14 17  1  0  0  0  0
 17 18  1  0  0  0  0
 17 19  1  0  0  0  0
 17 20  1  0  0  0  0
 20 21  1  0  0  0  0
 20 22  1  0  0  0  0
 20 23  1  0  0  0  0
M  END
> <VConfSearch Rank>
158

> <Conf_Id>
85

> <Delta U+W>
1.193

> <U+W>
-7.189

> <U>
48.775

> <W>
-55.965

> <W(PB)>
-58.038

> <W(SA)>
2.073

> <Valence>
2.602

> <Coulomb>
45.581

> <VdW>
0.592

> <VdW6>
-6.616

> <VdW12>
7.208

> <Bond>
0.196

> <Angle>
0.832

> <Pdih>
1.574

> <Idih>
0.000

> <Tether>
0.000

$$$$
VeraChem MOL file


 23 22  0  0  0  0  0  0  0  0999 V2000     
   21.3768   18.9377   21.3025 N   0  3  0  0  0  0  0  0  0  0  0  0
   21.2165   19.0737   22.3057 H   0  0  0  0  0  0  0  0  0  0  0  0
   21.9999   19.6886   20.9860 H   0  0  0  0  0  0  0  0  0  0  0  0
   21.8899   18.0571   21.1912 H   0  0  0  0  0  0  0  0  0  0  0  0
   20.0711   18.9271   20.5314 C   0  0  0  0  0  0  0  0  0  0  0  0
   20.3234   18.7772   19.4782 H   0  0  0  0  0  0  0  0  0  0  0  0
   19.5978   19.9076   20.6304 H   0  0  0  0  0  0  0  0  0  0  0  0
   19.0891   17.8239   20.9757 C   0  0  0  0  0  0  0  0  0  0  0  0
   18.3959   17.6396   20.1443 H   0  0  0  0  0  0  0  0  0  0  0  0
   19.6327   16.8816   21.1254 H   0  0  0  0  0  0  0  0  0  0  0  0
   18.2423   18.1581   22.2332 C   0  0  0  0  0  0  0  0  0  0  0  0
   17.5552   17.3167   22.3994 H   0  0  0  0  0  0  0  0  0  0  0  0
   17.5995   19.0264   22.0326 H   0  0  0  0  0  0  0  0  0  0  0  0
   19.0508   18.3820   23.5369 C   0  0  0  0  0  0  0  0  0  0  0  0
   18.4738   17.9756   24.3793 H   0  0  0  0  0  0  0  0  0  0  0  0
   19.9823   17.8013   23.5098 H   0  0  0  0  0  0  0  0  0  0  0  0
   19.3321   19.8758   23.8307 C   0  0  0  0  0  0  0  0  0  0  0  0
   18.3807   20.3933   24.0182 H   0  0  0  0  0  0  0  0  0  0  0  0
   19.7793   20.3724   22.9614 H   0  0  0  0  0  0  0  0  0  0  0  0
   20.2550   20.0527   25.0549 C   0  0  0  0  0  0  0  0  0  0  0  0
   19.8058   19.6104   25.9537 H   0  0  0  0  0  0  0  0  0  0  0  0
   20.4309   21.1174   25.2568 H   0  0  0  0  0  0  0  0  0  0  0  0
   21.2299   19.5756   24.8913 H   0  0  0  0  0  0  0  0  0  0  0  0
  1  2  1  0  0  0  0
  1  3  1  0  0  0  0
  1  4  1  0  0  0  0
  1  5  1  0  0  0  0
  5  6  1  0  0  0  0
  5  7  1  0  0  0  0
  5  8  1  0  0  0  0
  8  9  1  0  0  0  0
  8 10  1  0  0  0  0
  8 11  1  0  0  0  0
 11 12  1  0  0  0  0
 11 13  1  0  0  0  0
 11 14  1  0  0  0  0
 14 15  1  0  0  0  0
 14 16  1  0  0  0  0
 14 17  1  0  0  0  0
 17 18  1  0  0  0  0
 17 19  1  0  0  0  0
 17 20  1  0  0  0  0
 20 21  1  0  0  0  0
 20 22  1  0  0  0  0
 20 23  1  0  0  0  0
M  END
> <VConfSearch Rank>
159

> <Conf_Id>
82

> <Delta U+W>
5.994

> <U+W>
-2.388

> <U>
52.836

> <W>
-55.224

> <W(PB)>
-57.261

> <W(SA)>
2.037

> <Valence>
5.785

> <Coulomb>
46.744

> <VdW>
0.307

> <VdW6>
-7.672

> <VdW12>
7.979

> <Bond>
0.217

> <Angle>
1.470

> <Pdih>
4.098

> <Idih>
0.000

> <Tether>
0.000

$$$$
VeraChem MOL file


 23 22  0  0  0  0  0  0  0  0999 V2000     
   18.3332   18.6111   21.2146 N   0  3  0  0  0  0  0  0  0  0  0  0
   17.5439   19.2651   21.2024 H   0  0  0  0  0  0  0  0  0  0  0  0
   18.3017   18.0883   20.3325 H   0  0  0  0  0  0  0  0  0  0  0  0
   19.1930   19.1691   21.2105 H   0  0  0  0  0  0  0  0  0  0  0  0
   18.2792   17.6893   22.4175 C   0  0  0  0  0  0  0  0  0  0  0  0
   19.1024   16.9734   22.3475 H   0  0  0  0  0  0  0  0  0  0  0  0
   17.3399   17.1335   22.3520 H   0  0  0  0  0  0  0  0  0  0  0  0
   18.3364   18.4230   23.7729 C   0  0  0  0  0  0  0  0  0  0  0  0
   17.6863   19.3075   23.7438 H   0  0  0  0  0  0  0  0  0  0  0  0
   17.9016   17.7579   24.5309 H   0  0  0  0  0  0  0  0  0  0  0  0
   19.7588   18.8204   24.2514 C   0  0  0  0  0  0  0  0  0  0  0  0
   20.3677   17.9190   24.4069 H   0  0  0  0  0  0  0  0  0  0  0  0
   19.6549   19.2789   25.2446 H   0  0  0  0  0  0  0  0  0  0  0  0
   20.5104   19.8216   23.3371 C   0  0  0  0  0  0  0  0  0  0  0  0
   19.7938   20.4640   22.8085 H   0  0  0  0  0  0  0  0  0  0  0  0
   21.1010   20.4975   23.9712 H   0  0  0  0  0  0  0  0  0  0  0  0
   21.4798   19.1325   22.3459 C   0  0  0  0  0  0  0  0  0  0  0  0
   20.9725   18.3397   21.7833 H   0  0  0  0  0  0  0  0  0  0  0  0
   22.2824   18.6368   22.9099 H   0  0  0  0  0  0  0  0  0  0  0  0
   22.1027   20.1439   21.3606 C   0  0  0  0  0  0  0  0  0  0  0  0
   21.3316   20.6367   20.7546 H   0  0  0  0  0  0  0  0  0  0  0  0
   22.7978   19.6402   20.6762 H   0  0  0  0  0  0  0  0  0  0  0  0
   22.6633   20.9211   21.8963 H   0  0  0  0  0  0  0  0  0  0  0  0
  1  2  1  0  0  0  0
  1  3  1  0  0  0  0
  1  4  1  0  0  0  0
  1  5  1  0  0  0  0
  5  6  1  0  0  0  0
  5  7  1  0  0  0  0
  5  8  1  0  0  0  0
  8  9  1  0  0  0  0
  8 10  1  0  0  0  0
  8 11  1  0  0  0  0
 11 12  1  0  0  0  0
 11 13  1  0  0  0  0
 11 14  1  0  0  0  0
 14 15  1  0  0  0  0
 14 16  1  0  0  0  0
 14 17  1  0  0  0  0
 17 18  1  0  0  0  0
 17 19  1  0  0  0  0
 17 20  1  0  0  0  0
 20 21  1  0  0  0  0
 20 22  1  0  0  0  0
 20 23  1  0  0  0  0
M  END
> <VConfSearch Rank>
160

> <Conf_Id>
5

> <Delta U+W>
6.087

> <U+W>
-2.295

> <U>
52.836

> <W>
-55.131

> <W(PB)>
-57.202

> <W(SA)>
2.071

> <Valence>
5.785

> <Coulomb>
46.744

> <VdW>
0.307

> <VdW6>
-7.672

> <VdW12>
7.980

> <Bond>
0.217

> <Angle>
1.470

> <Pdih>
4.098

> <Idih>
0.000

> <Tether>
0.000

$$$$
VeraChem MOL file


 23 22  0  0  0  0  0  0  0  0999 V2000     
   18.0682   21.2732   25.1973 N   0  3  0  0  0  0  0  0  0  0  0  0
   17.1236   21.2078   24.8043 H   0  0  0  0  0  0  0  0  0  0  0  0
   18.1594   22.2126   25.5988 H   0  0  0  0  0  0  0  0  0  0  0  0
   18.1168   20.6100   25.9775 H   0  0  0  0  0  0  0  0  0  0  0  0
   19.1342   21.0003   24.1557 C   0  0  0  0  0  0  0  0  0  0  0  0
   20.1107   21.1157   24.6339 H   0  0  0  0  0  0  0  0  0  0  0  0
   19.0432   21.7583   23.3730 H   0  0  0  0  0  0  0  0  0  0  0  0
   19.0249   19.5971   23.5331 C   0  0  0  0  0  0  0  0  0  0  0  0
   19.1006   18.8397   24.3247 H   0  0  0  0  0  0  0  0  0  0  0  0
   18.0368   19.4800   23.0683 H   0  0  0  0  0  0  0  0  0  0  0  0
   20.1278   19.3591   22.4780 C   0  0  0  0  0  0  0  0  0  0  0  0
   21.1146   19.4824   22.9456 H   0  0  0  0  0  0  0  0  0  0  0  0
   20.0519   20.1220   21.6906 H   0  0  0  0  0  0  0  0  0  0  0  0
   20.0274   17.9522   21.8459 C   0  0  0  0  0  0  0  0  0  0  0  0
   20.1034   17.1892   22.6331 H   0  0  0  0  0  0  0  0  0  0  0  0
   19.0407   17.8287   21.3783 H   0  0  0  0  0  0  0  0  0  0  0  0
   21.1305   17.7145   20.7907 C   0  0  0  0  0  0  0  0  0  0  0  0
   22.1198   17.8345   21.2543 H   0  0  0  0  0  0  0  0  0  0  0  0
   21.0572   18.4739   19.9996 H   0  0  0  0  0  0  0  0  0  0  0  0
   21.0271   16.3087   20.1618 C   0  0  0  0  0  0  0  0  0  0  0  0
   21.8181   16.1587   19.4156 H   0  0  0  0  0  0  0  0  0  0  0  0
   20.0603   16.1707   19.6603 H   0  0  0  0  0  0  0  0  0  0  0  0
   21.1312   15.5262   20.9248 H   0  0  0  0  0  0  0  0  0  0  0  0
  1  2  1  0  0  0  0
  1  3  1  0  0  0  0
  1  4  1  0  0  0  0
  1  5  1  0  0  0  0
  5  6  1  0  0  0  0
  5  7  1  0  0  0  0
  5  8  1  0  0  0  0
  8  9  1  0  0  0  0
  8 10  1  0  0  0  0
  8 11  1  0  0  0  0
 11 12  1  0  0  0  0
 11 13  1  0  0  0  0
 11 14  1  0  0  0  0
 14 15  1  0  0  0  0
 14 16  1  0  0  0  0
 14 17  1  0  0  0  0
 17 18  1  0  0  0  0
 17 19  1  0  0  0  0
 17 20  1  0  0  0  0
 20 21  1  0  0  0  0
 20 22  1  0  0  0  0
 20 23  1  0  0  0  0
M  END
> <VConfSearch Rank>
161

> <Conf_Id>
40

> <Delta U+W>
0.000

> <U+W>
-8.382

> <U>
46.604

> <W>
-54.986

> <W(PB)>
-57.162

> <W(SA)>
2.176

> <Valence>
1.727

> <Coulomb>
44.434

> <VdW>
0.443

> <VdW6>
-4.623

> <VdW12>
5.066

> <Bond>
0.112

> <Angle>
0.386

> <Pdih>
1.228

> <Idih>
0.000

> <Tether>
0.000

$$$$
VeraChem MOL file


 23 22  0  0  0  0  0  0  0  0999 V2000     
   16.9024   20.5282   24.1317 N   0  3  0  0  0  0  0  0  0  0  0  0
   16.0973   20.4831   23.4987 H   0  0  0  0  0  0  0  0  0  0  0  0
   17.2460   21.4938   24.1143 H   0  0  0  0  0  0  0  0  0  0  0  0
   16.5472   20.3552   25.0782 H   0  0  0  0  0  0  0  0  0  0  0  0
   17.9815   19.5371   23.7454 C   0  0  0  0  0  0  0  0  0  0  0  0
   17.5564   18.5320   23.8130 H   0  0  0  0  0  0  0  0  0  0  0  0
   18.7890   19.6193   24.4773 H   0  0  0  0  0  0  0  0  0  0  0  0
   18.5356   19.7709   22.3272 C   0  0  0  0  0  0  0  0  0  0  0  0
   17.7061   19.7326   21.6086 H   0  0  0  0  0  0  0  0  0  0  0  0
   18.9638   20.7798   22.2591 H   0  0  0  0  0  0  0  0  0  0  0  0
   19.6004   18.7254   21.9187 C   0  0  0  0  0  0  0  0  0  0  0  0
   19.8578   18.8915   20.8646 H   0  0  0  0  0  0  0  0  0  0  0  0
   19.1663   17.7178   21.9785 H   0  0  0  0  0  0  0  0  0  0  0  0
   20.8843   18.7946   22.7845 C   0  0  0  0  0  0  0  0  0  0  0  0
   21.3293   19.7963   22.7077 H   0  0  0  0  0  0  0  0  0  0  0  0
   20.6228   18.6530   23.8414 H   0  0  0  0  0  0  0  0  0  0  0  0
   21.9417   17.7299   22.4042 C   0  0  0  0  0  0  0  0  0  0  0  0
   21.5050   16.7250   22.4893 H   0  0  0  0  0  0  0  0  0  0  0  0
   22.7612   17.7713   23.1354 H   0  0  0  0  0  0  0  0  0  0  0  0
   22.5303   17.9233   20.9880 C   0  0  0  0  0  0  0  0  0  0  0  0
   21.7727   17.7660   20.2105 H   0  0  0  0  0  0  0  0  0  0  0  0
   23.3406   17.2050   20.8078 H   0  0  0  0  0  0  0  0  0  0  0  0
   22.9442   18.9328   20.8666 H   0  0  0  0  0  0  0  0  0  0  0  0
  1  2  1  0  0  0  0
  1  3  1  0  0  0  0
  1  4  1  0  0  0  0
  1  5  1  0  0  0  0
  5  6  1  0  0  0  0
  5  7  1  0  0  0  0
  5  8  1  0  0  0  0
  8  9  1  0  0  0  0
  8 10  1  0  0  0  0
  8 11  1  0  0  0  0
 11 12  1  0  0  0  0
 11 13  1  0  0  0  0
 11 14  1  0  0  0  0
 14 15  1  0  0  0  0
 14 16  1  0  0  0  0
 14 17  1  0  0  0  0
 17 18  1  0  0  0  0
 17 19  1  0  0  0  0
 17 20  1  0  0  0  0
 20 21  1  0  0  0  0
 20 22  1  0  0  0  0
 20 23  1  0  0  0  0
M  END
> <VConfSearch Rank>
162

> <Conf_Id>
65

> <Delta U+W>
1.004

> <U+W>
-7.378

> <U>
48.047

> <W>
-55.425

> <W(PB)>
-57.542

> <W(SA)>
2.116

> <Valence>
2.583

> <Coulomb>
44.791

> <VdW>
0.673

> <VdW6>
-5.788

> <VdW12>
6.462

> <Bond>
0.177

> <Angle>
0.787

> <Pdih>
1.619

> <Idih>
0.000

> <Tether>
0.000

$$$$
VeraChem MOL file


 23 22  0  0  0  0  0  0  0  0999 V2000     
   20.4938   16.0930   20.6940 N   0  3  0  0  0  0  0  0  0  0  0  0
   20.7615   16.3500   19.7385 H   0  0  0  0  0  0  0  0  0  0  0  0
   19.9193   15.2461   20.6247 H   0  0  0  0  0  0  0  0  0  0  0  0
   21.3530   15.8306   21.1876 H   0  0  0  0  0  0  0  0  0  0  0  0
   19.7585   17.2162   21.3966 C   0  0  0  0  0  0  0  0  0  0  0  0
   19.4788   16.8619   22.3920 H   0  0  0  0  0  0  0  0  0  0  0  0
   18.8435   17.4236   20.8352 H   0  0  0  0  0  0  0  0  0  0  0  0
   20.5960   18.5035   21.5162 C   0  0  0  0  0  0  0  0  0  0  0  0
   21.5147   18.2960   22.0810 H   0  0  0  0  0  0  0  0  0  0  0  0
   20.9093   18.8205   20.5125 H   0  0  0  0  0  0  0  0  0  0  0  0
   19.8227   19.6626   22.1886 C   0  0  0  0  0  0  0  0  0  0  0  0
   18.9093   19.8745   21.6158 H   0  0  0  0  0  0  0  0  0  0  0  0
   20.4425   20.5669   22.1321 H   0  0  0  0  0  0  0  0  0  0  0  0
   19.4584   19.3736   23.6672 C   0  0  0  0  0  0  0  0  0  0  0  0
   18.8593   18.4553   23.7252 H   0  0  0  0  0  0  0  0  0  0  0  0
   20.3739   19.1823   24.2438 H   0  0  0  0  0  0  0  0  0  0  0  0
   18.6554   20.5145   24.3380 C   0  0  0  0  0  0  0  0  0  0  0  0
   18.3392   20.1821   25.3367 H   0  0  0  0  0  0  0  0  0  0  0  0
   17.7330   20.7032   23.7712 H   0  0  0  0  0  0  0  0  0  0  0  0
   19.4552   21.8293   24.4830 C   0  0  0  0  0  0  0  0  0  0  0  0
   19.6874   22.2709   23.5061 H   0  0  0  0  0  0  0  0  0  0  0  0
   20.3988   21.6608   25.0180 H   0  0  0  0  0  0  0  0  0  0  0  0
   18.8763   22.5701   25.0495 H   0  0  0  0  0  0  0  0  0  0  0  0
  1  2  1  0  0  0  0
  1  3  1  0  0  0  0
  1  4  1  0  0  0  0
  1  5  1  0  0  0  0
  5  6  1  0  0  0  0
  5  7  1  0  0  0  0
  5  8  1  0  0  0  0
  8  9  1  0  0  0  0
  8 10  1  0  0  0  0
  8 11  1  0  0  0  0
 11 12  1  0  0  0  0
 11 13  1  0  0  0  0
 11 14  1  0  0  0  0
 14 15  1  0  0  0  0
 14 16  1  0  0  0  0
 14 17  1  0  0  0  0
 17 18  1  0  0  0  0
 17 19  1  0  0  0  0
 17 20  1  0  0  0  0
 20 21  1  0  0  0  0
 20 22  1  0  0  0  0
 20 23  1  0  0  0  0
M  END
> <VConfSearch Rank>
163

> <Conf_Id>
92

> <Delta U+W>
0.973

> <U+W>
-7.409

> <U>
48.047

> <W>
-55.456

> <W(PB)>
-57.595

> <W(SA)>
2.138

> <Valence>
2.583

> <Coulomb>
44.791

> <VdW>
0.674

> <VdW6>
-5.789

> <VdW12>
6.462

> <Bond>
0.177

> <Angle>
0.787

> <Pdih>
1.619

> <Idih>
0.000

> <Tether>
0.000

$$$$
VeraChem MOL file


 23 22  0  0  0  0  0  0  0  0999 V2000     
   18.6565   21.6460   20.5651 N   0  3  0  0  0  0  0  0  0  0  0  0
   19.2858   22.0876   19.8862 H   0  0  0  0  0  0  0  0  0  0  0  0
   18.1520   22.4021   21.0390 H   0  0  0  0  0  0  0  0  0  0  0  0
   17.9653   21.1129   20.0277 H   0  0  0  0  0  0  0  0  0  0  0  0
   19.4105   20.7690   21.5440 C   0  0  0  0  0  0  0  0  0  0  0  0
   20.1461   21.3928   22.0588 H   0  0  0  0  0  0  0  0  0  0  0  0
   19.9458   20.0087   20.9693 H   0  0  0  0  0  0  0  0  0  0  0  0
   18.4919   20.0908   22.5780 C   0  0  0  0  0  0  0  0  0  0  0  0
   17.9275   20.8631   23.1174 H   0  0  0  0  0  0  0  0  0  0  0  0
   17.7525   19.4649   22.0607 H   0  0  0  0  0  0  0  0  0  0  0  0
   19.2737   19.2338   23.6014 C   0  0  0  0  0  0  0  0  0  0  0  0
   18.5699   18.8596   24.3578 H   0  0  0  0  0  0  0  0  0  0  0  0
   19.9949   19.8682   24.1354 H   0  0  0  0  0  0  0  0  0  0  0  0
   20.0101   18.0359   22.9549 C   0  0  0  0  0  0  0  0  0  0  0  0
   19.2915   17.4221   22.3944 H   0  0  0  0  0  0  0  0  0  0  0  0
   20.7525   18.3976   22.2309 H   0  0  0  0  0  0  0  0  0  0  0  0
   20.7191   17.1601   24.0119 C   0  0  0  0  0  0  0  0  0  0  0  0
   19.9838   16.7853   24.7376 H   0  0  0  0  0  0  0  0  0  0  0  0
   21.4390   17.7695   24.5762 H   0  0  0  0  0  0  0  0  0  0  0  0
   21.4544   15.9665   23.3659 C   0  0  0  0  0  0  0  0  0  0  0  0
   20.7543   15.3193   22.8216 H   0  0  0  0  0  0  0  0  0  0  0  0
   21.9509   15.3566   24.1318 H   0  0  0  0  0  0  0  0  0  0  0  0
   22.2215   16.3105   22.6599 H   0  0  0  0  0  0  0  0  0  0  0  0
  1  2  1  0  0  0  0
  1  3  1  0  0  0  0
  1  4  1  0  0  0  0
  1  5  1  0  0  0  0
  5  6  1  0  0  0  0
  5  7  1  0  0  0  0
  5  8  1  0  0  0  0
  8  9  1  0  0  0  0
  8 10  1  0  0  0  0
  8 11  1  0  0  0  0
 11 12  1  0  0  0  0
 11 13  1  0  0  0  0
 11 14  1  0  0  0  0
 14 15  1  0  0  0  0
 14 16  1  0  0  0  0
 14 17  1  0  0  0  0
 17 18  1  0  0  0  0
 17 19  1  0  0  0  0
 17 20  1  0  0  0  0
 20 21  1  0  0  0  0
 20 22  1  0  0  0  0
 20 23  1  0  0  0  0
M  END
> <VConfSearch Rank>
164

> <Conf_Id>
42

> <Delta U+W>
0.365

> <U+W>
-8.017

> <U>
47.375

> <W>
-55.392

> <W(PB)>
-57.543

> <W(SA)>
2.152

> <Valence>
2.032

> <Coulomb>
44.843

> <VdW>
0.499

> <VdW6>
-5.218

> <VdW12>
5.717

> <Bond>
0.135

> <Angle>
0.514

> <Pdih>
1.383

> <Idih>
0.000

> <Tether>
0.000

$$$$
VeraChem MOL file


 23 22  0  0  0  0  0  0  0  0999 V2000     
   22.0438   16.8838   21.9650 N   0  3  0  0  0  0  0  0  0  0  0  0
   22.7506   17.6108   21.8145 H   0  0  0  0  0  0  0  0  0  0  0  0
   22.4117   16.0196   21.5531 H   0  0  0  0  0  0  0  0  0  0  0  0
   21.9788   16.7292   22.9756 H   0  0  0  0  0  0  0  0  0  0  0  0
   20.7045   17.2669   21.3658 C   0  0  0  0  0  0  0  0  0  0  0  0
   20.0062   16.4437   21.5391 H   0  0  0  0  0  0  0  0  0  0  0  0
   20.8443   17.3731   20.2865 H   0  0  0  0  0  0  0  0  0  0  0  0
   20.1178   18.5737   21.9343 C   0  0  0  0  0  0  0  0  0  0  0  0
   20.8326   19.3935   21.7838 H   0  0  0  0  0  0  0  0  0  0  0  0
   19.2212   18.8195   21.3522 H   0  0  0  0  0  0  0  0  0  0  0  0
   19.7435   18.4599   23.4322 C   0  0  0  0  0  0  0  0  0  0  0  0
   20.6157   18.1126   24.0013 H   0  0  0  0  0  0  0  0  0  0  0  0
   18.9708   17.6887   23.5565 H   0  0  0  0  0  0  0  0  0  0  0  0
   19.2548   19.7856   24.0717 C   0  0  0  0  0  0  0  0  0  0  0  0
   19.0647   19.5882   25.1358 H   0  0  0  0  0  0  0  0  0  0  0  0
   20.0587   20.5342   24.0498 H   0  0  0  0  0  0  0  0  0  0  0  0
   17.9597   20.3710   23.4516 C   0  0  0  0  0  0  0  0  0  0  0  0
   17.3651   20.8315   24.2530 H   0  0  0  0  0  0  0  0  0  0  0  0
   17.3360   19.5663   23.0380 H   0  0  0  0  0  0  0  0  0  0  0  0
   18.2274   21.4510   22.3773 C   0  0  0  0  0  0  0  0  0  0  0  0
   18.7858   22.2954   22.8018 H   0  0  0  0  0  0  0  0  0  0  0  0
   17.2810   21.8430   21.9828 H   0  0  0  0  0  0  0  0  0  0  0  0
   18.8024   21.0586   21.5313 H   0  0  0  0  0  0  0  0  0  0  0  0
  1  2  1  0  0  0  0
  1  3  1  0  0  0  0
  1  4  1  0  0  0  0
  1  5  1  0  0  0  0
  5  6  1  0  0  0  0
  5  7  1  0  0  0  0
  5  8  1  0  0  0  0
  8  9  1  0  0  0  0
  8 10  1  0  0  0  0
  8 11  1  0  0  0  0
 11 12  1  0  0  0  0
 11 13  1  0  0  0  0
 11 14  1  0  0  0  0
 14 15  1  0  0  0  0
 14 16  1  0  0  0  0
 14 17  1  0  0  0  0
 17 18  1  0  0  0  0
 17 19  1  0  0  0  0
 17 20  1  0  0  0  0
 20 21  1  0  0  0  0
 20 22  1  0  0  0  0
 20 23  1  0  0  0  0
M  END
> <VConfSearch Rank>
165

> <Conf_Id>
3

> <Delta U+W>
3.283

> <U+W>
-5.099

> <U>
50.701

> <W>
-55.800

> <W(PB)>
-57.867

> <W(SA)>
2.067

> <Valence>
4.880

> <Coulomb>
45.095

> <VdW>
0.726

> <VdW6>
-6.620

> <VdW12>
7.346

> <Bond>
0.222

> <Angle>
1.260

> <Pdih>
3.398

> <Idih>
0.000

> <Tether>
0.000

$$$$
VeraChem MOL file


 23 22  0  0  0  0  0  0  0  0999 V2000     
   22.1434   17.3463   22.5472 N   0  3  0  0  0  0  0  0  0  0  0  0
   22.3339   16.9321   21.6292 H   0  0  0  0  0  0  0  0  0  0  0  0
   22.8956   17.0423   23.1745 H   0  0  0  0  0  0  0  0  0  0  0  0
   22.2288   18.3621   22.4452 H   0  0  0  0  0  0  0  0  0  0  0  0
   20.7774   16.9495   23.0715 C   0  0  0  0  0  0  0  0  0  0  0  0
   20.6509   17.3965   24.0608 H   0  0  0  0  0  0  0  0  0  0  0  0
   20.7689   15.8624   23.1881 H   0  0  0  0  0  0  0  0  0  0  0  0
   19.6133   17.3739   22.1529 C   0  0  0  0  0  0  0  0  0  0  0  0
   19.7257   16.8770   21.1802 H   0  0  0  0  0  0  0  0  0  0  0  0
   18.6732   17.0000   22.5799 H   0  0  0  0  0  0  0  0  0  0  0  0
   19.5017   18.9042   21.9349 C   0  0  0  0  0  0  0  0  0  0  0  0
   18.6733   19.0887   21.2389 H   0  0  0  0  0  0  0  0  0  0  0  0
   20.4069   19.2783   21.4385 H   0  0  0  0  0  0  0  0  0  0  0  0
   19.2601   19.6914   23.2480 C   0  0  0  0  0  0  0  0  0  0  0  0
   18.3391   19.3348   23.7293 H   0  0  0  0  0  0  0  0  0  0  0  0
   20.0760   19.4885   23.9541 H   0  0  0  0  0  0  0  0  0  0  0  0
   19.1743   21.2232   23.0411 C   0  0  0  0  0  0  0  0  0  0  0  0
   20.0978   21.5874   22.5696 H   0  0  0  0  0  0  0  0  0  0  0  0
   19.1205   21.7085   24.0256 H   0  0  0  0  0  0  0  0  0  0  0  0
   17.9531   21.6651   22.2029 C   0  0  0  0  0  0  0  0  0  0  0  0
   17.0186   21.2849   22.6355 H   0  0  0  0  0  0  0  0  0  0  0  0
   18.0232   21.3090   21.1677 H   0  0  0  0  0  0  0  0  0  0  0  0
   17.8861   22.7602   22.1701 H   0  0  0  0  0  0  0  0  0  0  0  0
  1  2  1  0  0  0  0
  1  3  1  0  0  0  0
  1  4  1  0  0  0  0
  1  5  1  0  0  0  0
  5  6  1  0  0  0  0
  5  7  1  0  0  0  0
  5  8  1  0  0  0  0
  8  9  1  0  0  0  0
  8 10  1  0  0  0  0
  8 11  1  0  0  0  0
 11 12  1  0  0  0  0
 11 13  1  0  0  0  0
 11 14  1  0  0  0  0
 14 15  1  0  0  0  0
 14 16  1  0  0  0  0
 14 17  1  0  0  0  0
 17 18  1  0  0  0  0
 17 19  1  0  0  0  0
 17 20  1  0  0  0  0
 20 21  1  0  0  0  0
 20 22  1  0  0  0  0
 20 23  1  0  0  0  0
M  END
> <VConfSearch Rank>
166

> <Conf_Id>
83

> <Delta U+W>
1.229

> <U+W>
-7.154

> <U>
48.727

> <W>
-55.880

> <W(PB)>
-57.960

> <W(SA)>
2.080

> <Valence>
2.671

> <Coulomb>
45.371

> <VdW>
0.684

> <VdW6>
-6.511

> <VdW12>
7.195

> <Bond>
0.203

> <Angle>
0.915

> <Pdih>
1.554

> <Idih>
0.000

> <Tether>
0.000

$$$$
VeraChem MOL file


 23 22  0  0  0  0  0  0  0  0999 V2000     
   20.1863   18.6774   19.7309 N   0  3  0  0  0  0  0  0  0  0  0  0
   20.1579   17.6982   19.4293 H   0  0  0  0  0  0  0  0  0  0  0  0
   20.9655   18.7694   20.3896 H   0  0  0  0  0  0  0  0  0  0  0  0
   20.4221   19.2381   18.9051 H   0  0  0  0  0  0  0  0  0  0  0  0
   18.8740   19.1135   20.3521 C   0  0  0  0  0  0  0  0  0  0  0  0
   18.0976   19.0226   19.5876 H   0  0  0  0  0  0  0  0  0  0  0  0
   18.9606   20.1691   20.6218 H   0  0  0  0  0  0  0  0  0  0  0  0
   18.4700   18.2885   21.5912 C   0  0  0  0  0  0  0  0  0  0  0  0
   17.4880   18.6347   21.9401 H   0  0  0  0  0  0  0  0  0  0  0  0
   18.3362   17.2397   21.2945 H   0  0  0  0  0  0  0  0  0  0  0  0
   19.4828   18.3631   22.7617 C   0  0  0  0  0  0  0  0  0  0  0  0
   20.4496   17.9485   22.4468 H   0  0  0  0  0  0  0  0  0  0  0  0
   19.1194   17.7122   23.5675 H   0  0  0  0  0  0  0  0  0  0  0  0
   19.6808   19.8006   23.3065 C   0  0  0  0  0  0  0  0  0  0  0  0
   20.0210   20.4578   22.4955 H   0  0  0  0  0  0  0  0  0  0  0  0
   18.7169   20.2035   23.6469 H   0  0  0  0  0  0  0  0  0  0  0  0
   20.7115   19.8863   24.4584 C   0  0  0  0  0  0  0  0  0  0  0  0
   20.8771   20.9447   24.7038 H   0  0  0  0  0  0  0  0  0  0  0  0
   21.6809   19.4945   24.1202 H   0  0  0  0  0  0  0  0  0  0  0  0
   20.2683   19.1436   25.7395 C   0  0  0  0  0  0  0  0  0  0  0  0
   19.2852   19.4945   26.0794 H   0  0  0  0  0  0  0  0  0  0  0  0
   20.9857   19.3179   26.5518 H   0  0  0  0  0  0  0  0  0  0  0  0
   20.2106   18.0600   25.5789 H   0  0  0  0  0  0  0  0  0  0  0  0
  1  2  1  0  0  0  0
  1  3  1  0  0  0  0
  1  4  1  0  0  0  0
  1  5  1  0  0  0  0
  5  6  1  0  0  0  0
  5  7  1  0  0  0  0
  5  8  1  0  0  0  0
  8  9  1  0  0  0  0
  8 10  1  0  0  0  0
  8 11  1  0  0  0  0
 11 12  1  0  0  0  0
 11 13  1  0  0  0  0
 11 14  1  0  0  0  0
 14 15  1  0  0  0  0
 14 16  1  0  0  0  0
 14 17  1  0  0  0  0
 17 18  1  0  0  0  0
 17 19  1  0  0  0  0
 17 20  1  0  0  0  0
 20 21  1  0  0  0  0
 20 22  1  0  0  0  0
 20 23  1  0  0  0  0
M  END
> <VConfSearch Rank>
167

> <Conf_Id>
50

> <Delta U+W>
1.252

> <U+W>
-7.130

> <U>
48.727

> <W>
-55.857

> <W(PB)>
-57.937

> <W(SA)>
2.080

> <Valence>
2.671

> <Coulomb>
45.371

> <VdW>
0.684

> <VdW6>
-6.511

> <VdW12>
7.196

> <Bond>
0.203

> <Angle>
0.915

> <Pdih>
1.554

> <Idih>
0.000

> <Tether>
0.000

$$$$
VeraChem MOL file


 23 22  0  0  0  0  0  0  0  0999 V2000     
   17.3756   21.0591   23.1176 N   0  3  0  0  0  0  0  0  0  0  0  0
   18.1647   21.5536   23.5445 H   0  0  0  0  0  0  0  0  0  0  0  0
   16.5448   21.2821   23.6762 H   0  0  0  0  0  0  0  0  0  0  0  0
   17.2291   21.4667   22.1886 H   0  0  0  0  0  0  0  0  0  0  0  0
   17.6206   19.5645   23.0454 C   0  0  0  0  0  0  0  0  0  0  0  0
   16.7256   19.1023   22.6198 H   0  0  0  0  0  0  0  0  0  0  0  0
   17.7441   19.1911   24.0655 H   0  0  0  0  0  0  0  0  0  0  0  0
   18.8479   19.1751   22.1988 C   0  0  0  0  0  0  0  0  0  0  0  0
   18.8753   18.0827   22.1172 H   0  0  0  0  0  0  0  0  0  0  0  0
   18.7215   19.5566   21.1769 H   0  0  0  0  0  0  0  0  0  0  0  0
   20.1773   19.7021   22.7968 C   0  0  0  0  0  0  0  0  0  0  0  0
   20.2675   19.4042   23.8506 H   0  0  0  0  0  0  0  0  0  0  0  0
   20.1509   20.8000   22.7918 H   0  0  0  0  0  0  0  0  0  0  0  0
   21.4313   19.2453   22.0063 C   0  0  0  0  0  0  0  0  0  0  0  0
   21.1813   19.0957   20.9469 H   0  0  0  0  0  0  0  0  0  0  0  0
   22.1641   20.0639   22.0240 H   0  0  0  0  0  0  0  0  0  0  0  0
   22.1303   17.9828   22.5727 C   0  0  0  0  0  0  0  0  0  0  0  0
   22.4675   18.1783   23.6002 H   0  0  0  0  0  0  0  0  0  0  0  0
   23.0398   17.7948   21.9851 H   0  0  0  0  0  0  0  0  0  0  0  0
   21.2573   16.7090   22.5540 C   0  0  0  0  0  0  0  0  0  0  0  0
   20.8559   16.5183   21.5504 H   0  0  0  0  0  0  0  0  0  0  0  0
   20.4192   16.7897   23.2571 H   0  0  0  0  0  0  0  0  0  0  0  0
   21.8498   15.8338   22.8503 H   0  0  0  0  0  0  0  0  0  0  0  0
  1  2  1  0  0  0  0
  1  3  1  0  0  0  0
  1  4  1  0  0  0  0
  1  5  1  0  0  0  0
  5  6  1  0  0  0  0
  5  7  1  0  0  0  0
  5  8  1  0  0  0  0
  8  9  1  0  0  0  0
  8 10  1  0  0  0  0
  8 11  1  0  0  0  0
 11 12  1  0  0  0  0
 11 13  1  0  0  0  0
 11 14  1  0  0  0  0
 14 15  1  0  0  0  0
 14 16  1  0  0  0  0
 14 17  1  0  0  0  0
 17 18  1  0  0  0  0
 17 19  1  0  0  0  0
 17 20  1  0  0  0  0
 20 21  1  0  0  0  0
 20 22  1  0  0  0  0
 20 23  1  0  0  0  0
M  END
> <VConfSearch Rank>
168

> <Conf_Id>
55

> <Delta U+W>
3.232

> <U+W>
-5.150

> <U>
50.625

> <W>
-55.776

> <W(PB)>
-57.839

> <W(SA)>
2.064

> <Valence>
4.837

> <Coulomb>
45.097

> <VdW>
0.692

> <VdW6>
-6.655

> <VdW12>
7.347

> <Bond>
0.223

> <Angle>
1.167

> <Pdih>
3.447

> <Idih>
0.000

> <Tether>
0.000

$$$$
VeraChem MOL file


 23 22  0  0  0  0  0  0  0  0999 V2000     
   20.3836   20.8725   25.0766 N   0  3  0  0  0  0  0  0  0  0  0  0
   20.5266   21.8831   24.9818 H   0  0  0  0  0  0  0  0  0  0  0  0
   20.9863   20.5573   25.8444 H   0  0  0  0  0  0  0  0  0  0  0  0
   19.4149   20.7326   25.3814 H   0  0  0  0  0  0  0  0  0  0  0  0
   20.6828   20.1360   23.7868 C   0  0  0  0  0  0  0  0  0  0  0  0
   20.5451   19.0692   23.9725 H   0  0  0  0  0  0  0  0  0  0  0  0
   21.7341   20.3057   23.5392 H   0  0  0  0  0  0  0  0  0  0  0  0
   19.7962   20.5938   22.6120 C   0  0  0  0  0  0  0  0  0  0  0  0
   18.7344   20.4725   22.8646 H   0  0  0  0  0  0  0  0  0  0  0  0
   19.9583   21.6697   22.4626 H   0  0  0  0  0  0  0  0  0  0  0  0
   20.1161   19.8585   21.2860 C   0  0  0  0  0  0  0  0  0  0  0  0
   21.1987   19.6911   21.2001 H   0  0  0  0  0  0  0  0  0  0  0  0
   19.8519   20.5253   20.4535 H   0  0  0  0  0  0  0  0  0  0  0  0
   19.3522   18.5251   21.0764 C   0  0  0  0  0  0  0  0  0  0  0  0
   18.2712   18.7213   21.0599 H   0  0  0  0  0  0  0  0  0  0  0  0
   19.6064   18.1389   20.0796 H   0  0  0  0  0  0  0  0  0  0  0  0
   19.6591   17.4346   22.1287 C   0  0  0  0  0  0  0  0  0  0  0  0
   19.2682   17.7396   23.1081 H   0  0  0  0  0  0  0  0  0  0  0  0
   20.7461   17.3125   22.2345 H   0  0  0  0  0  0  0  0  0  0  0  0
   19.0266   16.0797   21.7454 C   0  0  0  0  0  0  0  0  0  0  0  0
   19.4202   15.7165   20.7871 H   0  0  0  0  0  0  0  0  0  0  0  0
   17.9357   16.1645   21.6570 H   0  0  0  0  0  0  0  0  0  0  0  0
   19.2449   15.3207   22.5078 H   0  0  0  0  0  0  0  0  0  0  0  0
  1  2  1  0  0  0  0
  1  3  1  0  0  0  0
  1  4  1  0  0  0  0
  1  5  1  0  0  0  0
  5  6  1  0  0  0  0
  5  7  1  0  0  0  0
  5  8  1  0  0  0  0
  8  9  1  0  0  0  0
  8 10  1  0  0  0  0
  8 11  1  0  0  0  0
 11 12  1  0  0  0  0
 11 13  1  0  0  0  0
 11 14  1  0  0  0  0
 14 15  1  0  0  0  0
 14 16  1  0  0  0  0
 14 17  1  0  0  0  0
 17 18  1  0  0  0  0
 17 19  1  0  0  0  0
 17 20  1  0  0  0  0
 20 21  1  0  0  0  0
 20 22  1  0  0  0  0
 20 23  1  0  0  0  0
M  END
> <VConfSearch Rank>
169

> <Conf_Id>
93

> <Delta U+W>
2.589

> <U+W>
-5.793

> <U>
50.122

> <W>
-55.915

> <W(PB)>
-58.031

> <W(SA)>
2.115

> <Valence>
4.132

> <Coulomb>
45.536

> <VdW>
0.454

> <VdW6>
-6.262

> <VdW12>
6.715

> <Bond>
0.182

> <Angle>
1.157

> <Pdih>
2.794

> <Idih>
0.000

> <Tether>
0.000

$$$$
VeraChem MOL file


 23 22  0  0  0  0  0  0  0  0999 V2000     
   22.7061   19.6516   21.9803 N   0  3  0  0  0  0  0  0  0  0  0  0
   22.7339   18.8842   21.3012 H   0  0  0  0  0  0  0  0  0  0  0  0
   23.4387   19.4636   22.6730 H   0  0  0  0  0  0  0  0  0  0  0  0
   22.9795   20.5047   21.4822 H   0  0  0  0  0  0  0  0  0  0  0  0
   21.3420   19.7867   22.6257 C   0  0  0  0  0  0  0  0  0  0  0  0
   21.3942   20.6001   23.3544 H   0  0  0  0  0  0  0  0  0  0  0  0
   21.1349   18.8603   23.1645 H   0  0  0  0  0  0  0  0  0  0  0  0
   20.2205   20.0769   21.6089 C   0  0  0  0  0  0  0  0  0  0  0  0
   20.4691   21.0096   21.0852 H   0  0  0  0  0  0  0  0  0  0  0  0
   20.1864   19.2909   20.8428 H   0  0  0  0  0  0  0  0  0  0  0  0
   18.8278   20.2387   22.2690 C   0  0  0  0  0  0  0  0  0  0  0  0
   18.2229   20.8991   21.6324 H   0  0  0  0  0  0  0  0  0  0  0  0
   18.9255   20.7615   23.2307 H   0  0  0  0  0  0  0  0  0  0  0  0
   18.0359   18.9186   22.4580 C   0  0  0  0  0  0  0  0  0  0  0  0
   17.0464   19.1692   22.8648 H   0  0  0  0  0  0  0  0  0  0  0  0
   17.8536   18.4577   21.4773 H   0  0  0  0  0  0  0  0  0  0  0  0
   18.7140   17.8884   23.3904 C   0  0  0  0  0  0  0  0  0  0  0  0
   19.0040   18.3719   24.3337 H   0  0  0  0  0  0  0  0  0  0  0  0
   19.6316   17.5083   22.9231 H   0  0  0  0  0  0  0  0  0  0  0  0
   17.7832   16.6946   23.6922 C   0  0  0  0  0  0  0  0  0  0  0  0
   18.2837   15.9684   24.3458 H   0  0  0  0  0  0  0  0  0  0  0  0
   17.4961   16.1749   22.7687 H   0  0  0  0  0  0  0  0  0  0  0  0
   16.8665   17.0257   24.1974 H   0  0  0  0  0  0  0  0  0  0  0  0
  1  2  1  0  0  0  0
  1  3  1  0  0  0  0
  1  4  1  0  0  0  0
  1  5  1  0  0  0  0
  5  6  1  0  0  0  0
  5  7  1  0  0  0  0
  5  8  1  0  0  0  0
  8  9  1  0  0  0  0
  8 10  1  0  0  0  0
  8 11  1  0  0  0  0
 11 12  1  0  0  0  0
 11 13  1  0  0  0  0
 11 14  1  0  0  0  0
 14 15  1  0  0  0  0
 14 16  1  0  0  0  0
 14 17  1  0  0  0  0
 17 18  1  0  0  0  0
 17 19  1  0  0  0  0
 17 20  1  0  0  0  0
 20 21  1  0  0  0  0
 20 22  1  0  0  0  0
 20 23  1  0  0  0  0
M  END
> <VConfSearch Rank>
170

> <Conf_Id>
70

> <Delta U+W>
2.599

> <U+W>
-5.783

> <U>
50.122

> <W>
-55.906

> <W(PB)>
-58.010

> <W(SA)>
2.105

> <Valence>
4.132

> <Coulomb>
45.536

> <VdW>
0.454

> <VdW6>
-6.262

> <VdW12>
6.715

> <Bond>
0.182

> <Angle>
1.157

> <Pdih>
2.794

> <Idih>
0.000

> <Tether>
0.000

$$$$
VeraChem MOL file


 23 22  0  0  0  0  0  0  0  0999 V2000     
   18.7373   21.0050   20.8994 N   0  3  0  0  0  0  0  0  0  0  0  0
   17.7564   21.3023   20.9012 H   0  0  0  0  0  0  0  0  0  0  0  0
   19.1716   21.4111   20.0638 H   0  0  0  0  0  0  0  0  0  0  0  0
   19.1862   21.4370   21.7126 H   0  0  0  0  0  0  0  0  0  0  0  0
   18.8675   19.4948   20.9251 C   0  0  0  0  0  0  0  0  0  0  0  0
   19.9310   19.2449   20.8876 H   0  0  0  0  0  0  0  0  0  0  0  0
   18.3948   19.1043   20.0198 H   0  0  0  0  0  0  0  0  0  0  0  0
   18.2225   18.8400   22.1632 C   0  0  0  0  0  0  0  0  0  0  0  0
   17.1486   19.0687   22.1717 H   0  0  0  0  0  0  0  0  0  0  0  0
   18.2947   17.7493   22.0650 H   0  0  0  0  0  0  0  0  0  0  0  0
   18.8493   19.2857   23.5105 C   0  0  0  0  0  0  0  0  0  0  0  0
   18.3565   18.7408   24.3275 H   0  0  0  0  0  0  0  0  0  0  0  0
   18.6217   20.3464   23.6823 H   0  0  0  0  0  0  0  0  0  0  0  0
   20.3825   19.0794   23.6175 C   0  0  0  0  0  0  0  0  0  0  0  0
   20.8987   19.6921   22.8665 H   0  0  0  0  0  0  0  0  0  0  0  0
   20.7150   19.4555   24.5949 H   0  0  0  0  0  0  0  0  0  0  0  0
   20.8187   17.6023   23.4734 C   0  0  0  0  0  0  0  0  0  0  0  0
   20.5589   17.2262   22.4749 H   0  0  0  0  0  0  0  0  0  0  0  0
   20.2744   16.9822   24.1993 H   0  0  0  0  0  0  0  0  0  0  0  0
   22.3372   17.4332   23.6926 C   0  0  0  0  0  0  0  0  0  0  0  0
   22.6297   16.3807   23.5844 H   0  0  0  0  0  0  0  0  0  0  0  0
   22.6304   17.7622   24.6981 H   0  0  0  0  0  0  0  0  0  0  0  0
   22.9090   18.0188   22.9609 H   0  0  0  0  0  0  0  0  0  0  0  0
  1  2  1  0  0  0  0
  1  3  1  0  0  0  0
  1  4  1  0  0  0  0
  1  5  1  0  0  0  0
  5  6  1  0  0  0  0
  5  7  1  0  0  0  0
  5  8  1  0  0  0  0
  8  9  1  0  0  0  0
  8 10  1  0  0  0  0
  8 11  1  0  0  0  0
 11 12  1  0  0  0  0
 11 13  1  0  0  0  0
 11 14  1  0  0  0  0
 14 15  1  0  0  0  0
 14 16  1  0  0  0  0
 14 17  1  0  0  0  0
 17 18  1  0  0  0  0
 17 19  1  0  0  0  0
 17 20  1  0  0  0  0
 20 21  1  0  0  0  0
 20 22  1  0  0  0  0
 20 23  1  0  0  0  0
M  END
> <VConfSearch Rank>
171

> <Conf_Id>
72

> <Delta U+W>
1.051

> <U+W>
-7.331

> <U>
48.590

> <W>
-55.922

> <W(PB)>
-58.012

> <W(SA)>
2.090

> <Valence>
2.601

> <Coulomb>
45.520

> <VdW>
0.469

> <VdW6>
-6.867

> <VdW12>
7.336

> <Bond>
0.205

> <Angle>
0.962

> <Pdih>
1.434

> <Idih>
0.000

> <Tether>
0.000

$$$$
VeraChem MOL file


 23 22  0  0  0  0  0  0  0  0999 V2000     
   16.6665   18.7190   23.1083 N   0  3  0  0  0  0  0  0  0  0  0  0
   16.0086   19.3923   23.5154 H   0  0  0  0  0  0  0  0  0  0  0  0
   16.3438   17.7852   23.3813 H   0  0  0  0  0  0  0  0  0  0  0  0
   16.5696   18.7859   22.0900 H   0  0  0  0  0  0  0  0  0  0  0  0
   18.0893   18.9793   23.5594 C   0  0  0  0  0  0  0  0  0  0  0  0
   18.1139   18.9209   24.6509 H   0  0  0  0  0  0  0  0  0  0  0  0
   18.3548   19.9974   23.2631 H   0  0  0  0  0  0  0  0  0  0  0  0
   19.1032   17.9842   22.9647 C   0  0  0  0  0  0  0  0  0  0  0  0
   18.8062   16.9628   23.2371 H   0  0  0  0  0  0  0  0  0  0  0  0
   19.0702   18.0326   21.8688 H   0  0  0  0  0  0  0  0  0  0  0  0
   20.5484   18.2342   23.4627 C   0  0  0  0  0  0  0  0  0  0  0  0
   21.2153   17.4813   23.0217 H   0  0  0  0  0  0  0  0  0  0  0  0
   20.5845   18.0621   24.5473 H   0  0  0  0  0  0  0  0  0  0  0  0
   21.1025   19.6544   23.1683 C   0  0  0  0  0  0  0  0  0  0  0  0
   20.5325   20.3952   23.7451 H   0  0  0  0  0  0  0  0  0  0  0  0
   22.1319   19.7145   23.5475 H   0  0  0  0  0  0  0  0  0  0  0  0
   21.0953   20.0685   21.6748 C   0  0  0  0  0  0  0  0  0  0  0  0
   21.4949   21.0890   21.5925 H   0  0  0  0  0  0  0  0  0  0  0  0
   20.0645   20.1185   21.2994 H   0  0  0  0  0  0  0  0  0  0  0  0
   21.9336   19.1323   20.7752 C   0  0  0  0  0  0  0  0  0  0  0  0
   22.9665   19.0567   21.1389 H   0  0  0  0  0  0  0  0  0  0  0  0
   21.9668   19.5151   19.7469 H   0  0  0  0  0  0  0  0  0  0  0  0
   21.5074   18.1221   20.7382 H   0  0  0  0  0  0  0  0  0  0  0  0
  1  2  1  0  0  0  0
  1  3  1  0  0  0  0
  1  4  1  0  0  0  0
  1  5  1  0  0  0  0
  5  6  1  0  0  0  0
  5  7  1  0  0  0  0
  5  8  1  0  0  0  0
  8  9  1  0  0  0  0
  8 10  1  0  0  0  0
  8 11  1  0  0  0  0
 11 12  1  0  0  0  0
 11 13  1  0  0  0  0
 11 14  1  0  0  0  0
 14 15  1  0  0  0  0
 14 16  1  0  0  0  0
 14 17  1  0  0  0  0
 17 18  1  0  0  0  0
 17 19  1  0  0  0  0
 17 20  1  0  0  0  0
 20 21  1  0  0  0  0
 20 22  1  0  0  0  0
 20 23  1  0  0  0  0
M  END
> <VConfSearch Rank>
172

> <Conf_Id>
26

> <Delta U+W>
1.076

> <U+W>
-7.306

> <U>
48.641

> <W>
-55.947

> <W(PB)>
-58.031

> <W(SA)>
2.084

> <Valence>
2.922

> <Coulomb>
45.269

> <VdW>
0.449

> <VdW6>
-7.045

> <VdW12>
7.494

> <Bond>
0.220

> <Angle>
1.205

> <Pdih>
1.497

> <Idih>
0.000

> <Tether>
0.000

$$$$
VeraChem MOL file


 23 22  0  0  0  0  0  0  0  0999 V2000     
   18.0094   16.4813   22.1112 N   0  3  0  0  0  0  0  0  0  0  0  0
   17.0511   16.6886   21.8122 H   0  0  0  0  0  0  0  0  0  0  0  0
   17.9800   15.5813   22.6022 H   0  0  0  0  0  0  0  0  0  0  0  0
   18.5663   16.3398   21.2624 H   0  0  0  0  0  0  0  0  0  0  0  0
   18.5788   17.5806   22.9847 C   0  0  0  0  0  0  0  0  0  0  0  0
   19.5848   17.2804   23.2894 H   0  0  0  0  0  0  0  0  0  0  0  0
   17.9564   17.6573   23.8803 H   0  0  0  0  0  0  0  0  0  0  0  0
   18.6369   18.9465   22.2758 C   0  0  0  0  0  0  0  0  0  0  0  0
   19.2508   18.8675   21.3696 H   0  0  0  0  0  0  0  0  0  0  0  0
   17.6276   19.2208   21.9412 H   0  0  0  0  0  0  0  0  0  0  0  0
   19.1835   20.0714   23.1896 C   0  0  0  0  0  0  0  0  0  0  0  0
   18.4886   20.2161   24.0282 H   0  0  0  0  0  0  0  0  0  0  0  0
   19.1784   21.0190   22.6346 H   0  0  0  0  0  0  0  0  0  0  0  0
   20.6033   19.8131   23.7624 C   0  0  0  0  0  0  0  0  0  0  0  0
   20.8951   20.6753   24.3778 H   0  0  0  0  0  0  0  0  0  0  0  0
   20.5690   18.9581   24.4509 H   0  0  0  0  0  0  0  0  0  0  0  0
   21.7058   19.5596   22.7030 C   0  0  0  0  0  0  0  0  0  0  0  0
   21.4900   18.6399   22.1428 H   0  0  0  0  0  0  0  0  0  0  0  0
   22.6565   19.3784   23.2235 H   0  0  0  0  0  0  0  0  0  0  0  0
   21.8937   20.7374   21.7201 C   0  0  0  0  0  0  0  0  0  0  0  0
   21.0032   20.8876   21.0972 H   0  0  0  0  0  0  0  0  0  0  0  0
   22.7394   20.5456   21.0471 H   0  0  0  0  0  0  0  0  0  0  0  0
   22.0982   21.6717   22.2588 H   0  0  0  0  0  0  0  0  0  0  0  0
  1  2  1  0  0  0  0
  1  3  1  0  0  0  0
  1  4  1  0  0  0  0
  1  5  1  0  0  0  0
  5  6  1  0  0  0  0
  5  7  1  0  0  0  0
  5  8  1  0  0  0  0
  8  9  1  0  0  0  0
  8 10  1  0  0  0  0
  8 11  1  0  0  0  0
 11 12  1  0  0  0  0
 11 13  1  0  0  0  0
 11 14  1  0  0  0  0
 14 15  1  0  0  0  0
 14 16  1  0  0  0  0
 14 17  1  0  0  0  0
 17 18  1  0  0  0  0
 17 19  1  0  0  0  0
 17 20  1  0  0  0  0
 20 21  1  0  0  0  0
 20 22  1  0  0  0  0
 20 23  1  0  0  0  0
M  END
> <VConfSearch Rank>
173

> <Conf_Id>
90

> <Delta U+W>
1.131

> <U+W>
-7.251

> <U>
48.641

> <W>
-55.892

> <W(PB)>
-57.962

> <W(SA)>
2.070

> <Valence>
2.922

> <Coulomb>
45.269

> <VdW>
0.450

> <VdW6>
-7.045

> <VdW12>
7.495

> <Bond>
0.220

> <Angle>
1.205

> <Pdih>
1.497

> <Idih>
0.000

> <Tether>
0.000

$$$$
VeraChem MOL file


 23 22  0  0  0  0  0  0  0  0999 V2000     
   19.6947   21.3893   21.5875 N   0  3  0  0  0  0  0  0  0  0  0  0
   19.9395   22.3337   21.9037 H   0  0  0  0  0  0  0  0  0  0  0  0
   19.0686   20.9884   22.2925 H   0  0  0  0  0  0  0  0  0  0  0  0
   19.1525   21.4941   20.7240 H   0  0  0  0  0  0  0  0  0  0  0  0
   20.9251   20.5286   21.3786 C   0  0  0  0  0  0  0  0  0  0  0  0
   21.4716   20.4833   22.3242 H   0  0  0  0  0  0  0  0  0  0  0  0
   21.5610   21.0294   20.6435 H   0  0  0  0  0  0  0  0  0  0  0  0
   20.6068   19.1003   20.8912 C   0  0  0  0  0  0  0  0  0  0  0  0
   20.1003   19.1566   19.9186 H   0  0  0  0  0  0  0  0  0  0  0  0
   21.5519   18.5702   20.7134 H   0  0  0  0  0  0  0  0  0  0  0  0
   19.7371   18.2783   21.8753 C   0  0  0  0  0  0  0  0  0  0  0  0
   19.5526   17.2882   21.4362 H   0  0  0  0  0  0  0  0  0  0  0  0
   18.7539   18.7542   21.9802 H   0  0  0  0  0  0  0  0  0  0  0  0
   20.3968   18.1021   23.2664 C   0  0  0  0  0  0  0  0  0  0  0  0
   21.4122   17.7039   23.1335 H   0  0  0  0  0  0  0  0  0  0  0  0
   20.5086   19.0771   23.7592 H   0  0  0  0  0  0  0  0  0  0  0  0
   19.6133   17.1487   24.2006 C   0  0  0  0  0  0  0  0  0  0  0  0
   20.1981   16.9947   25.1183 H   0  0  0  0  0  0  0  0  0  0  0  0
   19.5172   16.1609   23.7285 H   0  0  0  0  0  0  0  0  0  0  0  0
   18.2136   17.6799   24.5851 C   0  0  0  0  0  0  0  0  0  0  0  0
   18.2801   18.6787   25.0355 H   0  0  0  0  0  0  0  0  0  0  0  0
   17.7378   17.0135   25.3161 H   0  0  0  0  0  0  0  0  0  0  0  0
   17.5508   17.7385   23.7129 H   0  0  0  0  0  0  0  0  0  0  0  0
  1  2  1  0  0  0  0
  1  3  1  0  0  0  0
  1  4  1  0  0  0  0
  1  5  1  0  0  0  0
  5  6  1  0  0  0  0
  5  7  1  0  0  0  0
  5  8  1  0  0  0  0
  8  9  1  0  0  0  0
  8 10  1  0  0  0  0
  8 11  1  0  0  0  0
 11 12  1  0  0  0  0
 11 13  1  0  0  0  0
 11 14  1  0  0  0  0
 14 15  1  0  0  0  0
 14 16  1  0  0  0  0
 14 17  1  0  0  0  0
 17 18  1  0  0  0  0
 17 19  1  0  0  0  0
 17 20  1  0  0  0  0
 20 21  1  0  0  0  0
 20 22  1  0  0  0  0
 20 23  1  0  0  0  0
M  END
> <VConfSearch Rank>
174

> <Conf_Id>
85

> <Delta U+W>
1.193

> <U+W>
-7.189

> <U>
48.775

> <W>
-55.965

> <W(PB)>
-58.038

> <W(SA)>
2.073

> <Valence>
2.602

> <Coulomb>
45.581

> <VdW>
0.592

> <VdW6>
-6.616

> <VdW12>
7.208

> <Bond>
0.196

> <Angle>
0.832

> <Pdih>
1.574

> <Idih>
0.000

> <Tether>
0.000

$$$$
VeraChem MOL file


 23 22  0  0  0  0  0  0  0  0999 V2000     
   18.5239   18.6449   20.8918 N   0  3  0  0  0  0  0  0  0  0  0  0
   19.2348   18.0953   21.3851 H   0  0  0  0  0  0  0  0  0  0  0  0
   18.7332   18.5889   19.8891 H   0  0  0  0  0  0  0  0  0  0  0  0
   17.6224   18.1782   21.0352 H   0  0  0  0  0  0  0  0  0  0  0  0
   18.4971   20.0796   21.3821 C   0  0  0  0  0  0  0  0  0  0  0  0
   17.7189   20.5967   20.8140 H   0  0  0  0  0  0  0  0  0  0  0  0
   19.4564   20.5482   21.1471 H   0  0  0  0  0  0  0  0  0  0  0  0
   18.1991   20.2222   22.8886 C   0  0  0  0  0  0  0  0  0  0  0  0
   17.8131   21.2361   23.0579 H   0  0  0  0  0  0  0  0  0  0  0  0
   17.3849   19.5419   23.1718 H   0  0  0  0  0  0  0  0  0  0  0  0
   19.4184   20.0167   23.8273 C   0  0  0  0  0  0  0  0  0  0  0  0
   19.0762   20.2011   24.8551 H   0  0  0  0  0  0  0  0  0  0  0  0
   20.1782   20.7852   23.6288 H   0  0  0  0  0  0  0  0  0  0  0  0
   20.0605   18.6064   23.7813 C   0  0  0  0  0  0  0  0  0  0  0  0
   20.3941   18.3417   24.7944 H   0  0  0  0  0  0  0  0  0  0  0  0
   19.3061   17.8548   23.5133 H   0  0  0  0  0  0  0  0  0  0  0  0
   21.2879   18.5259   22.8410 C   0  0  0  0  0  0  0  0  0  0  0  0
   22.0886   19.1675   23.2351 H   0  0  0  0  0  0  0  0  0  0  0  0
   21.0495   18.9182   21.8452 H   0  0  0  0  0  0  0  0  0  0  0  0
   21.8139   17.0808   22.7117 C   0  0  0  0  0  0  0  0  0  0  0  0
   22.1110   16.6810   23.6901 H   0  0  0  0  0  0  0  0  0  0  0  0
   22.6922   17.0455   22.0539 H   0  0  0  0  0  0  0  0  0  0  0  0
   21.0503   16.4149   22.2894 H   0  0  0  0  0  0  0  0  0  0  0  0
  1  2  1  0  0  0  0
  1  3  1  0  0  0  0
  1  4  1  0  0  0  0
  1  5  1  0  0  0  0
  5  6  1  0  0  0  0
  5  7  1  0  0  0  0
  5  8  1  0  0  0  0
  8  9  1  0  0  0  0
  8 10  1  0  0  0  0
  8 11  1  0  0  0  0
 11 12  1  0  0  0  0
 11 13  1  0  0  0  0
 11 14  1  0  0  0  0
 14 15  1  0  0  0  0
 14 16  1  0  0  0  0
 14 17  1  0  0  0  0
 17 18  1  0  0  0  0
 17 19  1  0  0  0  0
 17 20  1  0  0  0  0
 20 21  1  0  0  0  0
 20 22  1  0  0  0  0
 20 23  1  0  0  0  0
M  END
> <VConfSearch Rank>
175

> <Conf_Id>
82

> <Delta U+W>
5.994

> <U+W>
-2.388

> <U>
52.836

> <W>
-55.224

> <W(PB)>
-57.261

> <W(SA)>
2.037

> <Valence>
5.785

> <Coulomb>
46.744

> <VdW>
0.307

> <VdW6>
-7.672

> <VdW12>
7.979

> <Bond>
0.217

> <Angle>
1.470

> <Pdih>
4.098

> <Idih>
0.000

> <Tether>
0.000

$$$$
VeraChem MOL file


 23 22  0  0  0  0  0  0  0  0999 V2000     
   20.7939   18.7307   24.3913 N   0  3  0  0  0  0  0  0  0  0  0  0
   20.1942   18.5924   25.2112 H   0  0  0  0  0  0  0  0  0  0  0  0
   21.7326   18.4079   24.6499 H   0  0  0  0  0  0  0  0  0  0  0  0
   20.4487   18.1107   23.6516 H   0  0  0  0  0  0  0  0  0  0  0  0
   20.8009   20.1783   23.9394 C   0  0  0  0  0  0  0  0  0  0  0  0
   21.5026   20.2822   23.1076 H   0  0  0  0  0  0  0  0  0  0  0  0
   21.1771   20.7723   24.7768 H   0  0  0  0  0  0  0  0  0  0  0  0
   19.4147   20.7130   23.5257 C   0  0  0  0  0  0  0  0  0  0  0  0
   18.6576   20.3788   24.2475 H   0  0  0  0  0  0  0  0  0  0  0  0
   19.4415   21.8077   23.6069 H   0  0  0  0  0  0  0  0  0  0  0  0
   18.9710   20.3558   22.0815 C   0  0  0  0  0  0  0  0  0  0  0  0
   19.6615   20.8060   21.3549 H   0  0  0  0  0  0  0  0  0  0  0  0
   18.0018   20.8430   21.9059 H   0  0  0  0  0  0  0  0  0  0  0  0
   18.8059   18.8414   21.7939 C   0  0  0  0  0  0  0  0  0  0  0  0
   18.5321   18.3084   22.7140 H   0  0  0  0  0  0  0  0  0  0  0  0
   17.9558   18.7068   21.1105 H   0  0  0  0  0  0  0  0  0  0  0  0
   20.0531   18.2074   21.1310 C   0  0  0  0  0  0  0  0  0  0  0  0
   20.9625   18.4366   21.6991 H   0  0  0  0  0  0  0  0  0  0  0  0
   20.1987   18.6504   20.1356 H   0  0  0  0  0  0  0  0  0  0  0  0
   19.9080   16.6775   20.9884 C   0  0  0  0  0  0  0  0  0  0  0  0
   19.7932   16.1951   21.9676 H   0  0  0  0  0  0  0  0  0  0  0  0
   20.7941   16.2478   20.5033 H   0  0  0  0  0  0  0  0  0  0  0  0
   19.0329   16.4204   20.3774 H   0  0  0  0  0  0  0  0  0  0  0  0
  1  2  1  0  0  0  0
  1  3  1  0  0  0  0
  1  4  1  0  0  0  0
  1  5  1  0  0  0  0
  5  6  1  0  0  0  0
  5  7  1  0  0  0  0
  5  8  1  0  0  0  0
  8  9  1  0  0  0  0
  8 10  1  0  0  0  0
  8 11  1  0  0  0  0
 11 12  1  0  0  0  0
 11 13  1  0  0  0  0
 11 14  1  0  0  0  0
 14 15  1  0  0  0  0
 14 16  1  0  0  0  0
 14 17  1  0  0  0  0
 17 18  1  0  0  0  0
 17 19  1  0  0  0  0
 17 20  1  0  0  0  0
 20 21  1  0  0  0  0
 20 22  1  0  0  0  0
 20 23  1  0  0  0  0
M  END
> <VConfSearch Rank>
176

> <Conf_Id>
5

> <Delta U+W>
6.087

> <U+W>
-2.295

> <U>
52.836

> <W>
-55.131

> <W(PB)>
-57.202

> <W(SA)>
2.071

> <Valence>
5.785

> <Coulomb>
46.744

> <VdW>
0.307

> <VdW6>
-7.672

> <VdW12>
7.980

> <Bond>
0.217

> <Angle>
1.470

> <Pdih>
4.098

> <Idih>
0.000

> <Tether>
0.000

$$$$
VeraChem MOL file


 23 22  0  0  0  0  0  0  0  0999 V2000     
   17.4839   22.0956   22.5303 N   0  3  0  0  0  0  0  0  0  0  0  0
   16.7608   21.6884   21.9285 H   0  0  0  0  0  0  0  0  0  0  0  0
   17.5244   23.0969   22.3116 H   0  0  0  0  0  0  0  0  0  0  0  0
   17.1523   22.0151   23.4969 H   0  0  0  0  0  0  0  0  0  0  0  0
   18.8272   21.4222   22.3352 C   0  0  0  0  0  0  0  0  0  0  0  0
   19.5529   21.9230   22.9817 H   0  0  0  0  0  0  0  0  0  0  0  0
   19.1320   21.5719   21.2959 H   0  0  0  0  0  0  0  0  0  0  0  0
   18.8002   19.9171   22.6553 C   0  0  0  0  0  0  0  0  0  0  0  0
   18.4780   19.7708   23.6950 H   0  0  0  0  0  0  0  0  0  0  0  0
   18.0585   19.4210   22.0151 H   0  0  0  0  0  0  0  0  0  0  0  0
   20.1864   19.2690   22.4441 C   0  0  0  0  0  0  0  0  0  0  0  0
   20.9266   19.7716   23.0824 H   0  0  0  0  0  0  0  0  0  0  0  0
   20.5076   19.4221   21.4043 H   0  0  0  0  0  0  0  0  0  0  0  0
   20.1709   17.7567   22.7630 C   0  0  0  0  0  0  0  0  0  0  0  0
   19.8499   17.6035   23.8027 H   0  0  0  0  0  0  0  0  0  0  0  0
   19.4308   17.2541   22.1249 H   0  0  0  0  0  0  0  0  0  0  0  0
   21.5574   17.1089   22.5515 C   0  0  0  0  0  0  0  0  0  0  0  0
   22.3009   17.6068   23.1897 H   0  0  0  0  0  0  0  0  0  0  0  0
   21.8818   17.2574   21.5120 H   0  0  0  0  0  0  0  0  0  0  0  0
   21.5379   15.5989   22.8709 C   0  0  0  0  0  0  0  0  0  0  0  0
   22.5306   15.1569   22.7150 H   0  0  0  0  0  0  0  0  0  0  0  0
   20.8274   15.0677   22.2242 H   0  0  0  0  0  0  0  0  0  0  0  0
   21.2497   15.4199   23.9150 H   0  0  0  0  0  0  0  0  0  0  0  0
  1  2  1  0  0  0  0
  1  3  1  0  0  0  0
  1  4  1  0  0  0  0
  1  5  1  0  0  0  0
  5  6  1  0  0  0  0
  5  7  1  0  0  0  0
  5  8  1  0  0  0  0
  8  9  1  0  0  0  0
  8 10  1  0  0  0  0
  8 11  1  0  0  0  0
 11 12  1  0  0  0  0
 11 13  1  0  0  0  0
 11 14  1  0  0  0  0
 14 15  1  0  0  0  0
 14 16  1  0  0  0  0
 14 17  1  0  0  0  0
 17 18  1  0  0  0  0
 17 19  1  0  0  0  0
 17 20  1  0  0  0  0
 20 21  1  0  0  0  0
 20 22  1  0  0  0  0
 20 23  1  0  0  0  0
M  END
> <VConfSearch Rank>
177

> <Conf_Id>
40

> <Delta U+W>
0.000

> <U+W>
-8.382

> <U>
46.604

> <W>
-54.986

> <W(PB)>
-57.162

> <W(SA)>
2.176

> <Valence>
1.727

> <Coulomb>
44.434

> <VdW>
0.443

> <VdW6>
-4.623

> <VdW12>
5.066

> <Bond>
0.112

> <Angle>
0.386

> <Pdih>
1.228

> <Idih>
0.000

> <Tether>
0.000

$$$$
VeraChem MOL file


 23 22  0  0  0  0  0  0  0  0999 V2000     
   19.5827   21.0254   25.5645 N   0  3  0  0  0  0  0  0  0  0  0  0
   19.2212   20.4729   26.3486 H   0  0  0  0  0  0  0  0  0  0  0  0
   18.8231   21.6390   25.2525 H   0  0  0  0  0  0  0  0  0  0  0  0
   20.3193   21.6313   25.9418 H   0  0  0  0  0  0  0  0  0  0  0  0
   20.0965   20.1461   24.4426 C   0  0  0  0  0  0  0  0  0  0  0  0
   20.9190   19.5428   24.8364 H   0  0  0  0  0  0  0  0  0  0  0  0
   20.4921   20.7987   23.6603 H   0  0  0  0  0  0  0  0  0  0  0  0
   19.0123   19.2231   23.8547 C   0  0  0  0  0  0  0  0  0  0  0  0
   18.5913   18.6077   24.6609 H   0  0  0  0  0  0  0  0  0  0  0  0
   18.1865   19.8286   23.4580 H   0  0  0  0  0  0  0  0  0  0  0  0
   19.5541   18.2916   22.7446 C   0  0  0  0  0  0  0  0  0  0  0  0
   18.7552   17.5940   22.4617 H   0  0  0  0  0  0  0  0  0  0  0  0
   20.3737   17.6803   23.1471 H   0  0  0  0  0  0  0  0  0  0  0  0
   20.0415   19.0602   21.4899 C   0  0  0  0  0  0  0  0  0  0  0  0
   19.2158   19.6551   21.0758 H   0  0  0  0  0  0  0  0  0  0  0  0
   20.8233   19.7753   21.7778 H   0  0  0  0  0  0  0  0  0  0  0  0
   20.6161   18.1379   20.3873 C   0  0  0  0  0  0  0  0  0  0  0  0
   21.4497   17.5478   20.7932 H   0  0  0  0  0  0  0  0  0  0  0  0
   21.0428   18.7646   19.5916 H   0  0  0  0  0  0  0  0  0  0  0  0
   19.5642   17.1924   19.7637 C   0  0  0  0  0  0  0  0  0  0  0  0
   19.1975   16.4591   20.4925 H   0  0  0  0  0  0  0  0  0  0  0  0
   19.9998   16.6334   18.9254 H   0  0  0  0  0  0  0  0  0  0  0  0
   18.7043   17.7565   19.3797 H   0  0  0  0  0  0  0  0  0  0  0  0
  1  2  1  0  0  0  0
  1  3  1  0  0  0  0
  1  4  1  0  0  0  0
  1  5  1  0  0  0  0
  5  6  1  0  0  0  0
  5  7  1  0  0  0  0
  5  8  1  0  0  0  0
  8  9  1  0  0  0  0
  8 10  1  0  0  0  0
  8 11  1  0  0  0  0
 11 12  1  0  0  0  0
 11 13  1  0  0  0  0
 11 14  1  0  0  0  0
 14 15  1  0  0  0  0
 14 16  1  0  0  0  0
 14 17  1  0  0  0  0
 17 18  1  0  0  0  0
 17 19  1  0  0  0  0
 17 20  1  0  0  0  0
 20 21  1  0  0  0  0
 20 22  1  0  0  0  0
 20 23  1  0  0  0  0
M  END
> <VConfSearch Rank>
178

> <Conf_Id>
65

> <Delta U+W>
1.004

> <U+W>
-7.378

> <U>
48.047

> <W>
-55.425

> <W(PB)>
-57.542

> <W(SA)>
2.116

> <Valence>
2.583

> <Coulomb>
44.791

> <VdW>
0.673

> <VdW6>
-5.788

> <VdW12>
6.462

> <Bond>
0.177

> <Angle>
0.787

> <Pdih>
1.619

> <Idih>
0.000

> <Tether>
0.000

$$$$
VeraChem MOL file


 23 22  0  0  0  0  0  0  0  0999 V2000     
   22.1725   21.0620   20.9298 N   0  3  0  0  0  0  0  0  0  0  0  0
   21.7588   21.4834   20.0919 H   0  0  0  0  0  0  0  0  0  0  0  0
   23.1355   20.8041   20.6890 H   0  0  0  0  0  0  0  0  0  0  0  0
   22.2301   21.7984   21.6406 H   0  0  0  0  0  0  0  0  0  0  0  0
   21.3746   19.8688   21.4152 C   0  0  0  0  0  0  0  0  0  0  0  0
   21.8884   19.4547   22.2865 H   0  0  0  0  0  0  0  0  0  0  0  0
   21.3785   19.1154   20.6229 H   0  0  0  0  0  0  0  0  0  0  0  0
   19.9220   20.2243   21.7849 C   0  0  0  0  0  0  0  0  0  0  0  0
   19.9176   20.9802   22.5815 H   0  0  0  0  0  0  0  0  0  0  0  0
   19.4337   20.6825   20.9145 H   0  0  0  0  0  0  0  0  0  0  0  0
   19.0976   18.9936   22.2312 C   0  0  0  0  0  0  0  0  0  0  0  0
   19.0957   18.2433   21.4284 H   0  0  0  0  0  0  0  0  0  0  0  0
   18.0548   19.3092   22.3649 H   0  0  0  0  0  0  0  0  0  0  0  0
   19.6199   18.3551   23.5435 C   0  0  0  0  0  0  0  0  0  0  0  0
   20.6705   18.0621   23.4168 H   0  0  0  0  0  0  0  0  0  0  0  0
   19.6020   19.1001   24.3508 H   0  0  0  0  0  0  0  0  0  0  0  0
   18.8210   17.1028   23.9796 C   0  0  0  0  0  0  0  0  0  0  0  0
   19.3245   16.6480   24.8442 H   0  0  0  0  0  0  0  0  0  0  0  0
   18.8443   16.3496   23.1797 H   0  0  0  0  0  0  0  0  0  0  0  0
   17.3553   17.4089   24.3636 C   0  0  0  0  0  0  0  0  0  0  0  0
   16.7733   17.7486   23.4981 H   0  0  0  0  0  0  0  0  0  0  0  0
   17.3037   18.1840   25.1393 H   0  0  0  0  0  0  0  0  0  0  0  0
   16.8655   16.5085   24.7564 H   0  0  0  0  0  0  0  0  0  0  0  0
  1  2  1  0  0  0  0
  1  3  1  0  0  0  0
  1  4  1  0  0  0  0
  1  5  1  0  0  0  0
  5  6  1  0  0  0  0
  5  7  1  0  0  0  0
  5  8  1  0  0  0  0
  8  9  1  0  0  0  0
  8 10  1  0  0  0  0
  8 11  1  0  0  0  0
 11 12  1  0  0  0  0
 11 13  1  0  0  0  0
 11 14  1  0  0  0  0
 14 15  1  0  0  0  0
 14 16  1  0  0  0  0
 14 17  1  0  0  0  0
 17 18  1  0  0  0  0
 17 19  1  0  0  0  0
 17 20  1  0  0  0  0
 20 21  1  0  0  0  0
 20 22  1  0  0  0  0
 20 23  1  0  0  0  0
M  END
> <VConfSearch Rank>
179

> <Conf_Id>
92

> <Delta U+W>
0.973

> <U+W>
-7.409

> <U>
48.047

> <W>
-55.456

> <W(PB)>
-57.595

> <W(SA)>
2.138

> <Valence>
2.583

> <Coulomb>
44.791

> <VdW>
0.674

> <VdW6>
-5.789

> <VdW12>
6.462

> <Bond>
0.177

> <Angle>
0.787

> <Pdih>
1.619

> <Idih>
0.000

> <Tether>
0.000

$$$$
VeraChem MOL file


 23 22  0  0  0  0  0  0  0  0999 V2000     
   22.1520   18.9825   20.0130 N   0  3  0  0  0  0  0  0  0  0  0  0
   23.1484   19.1191   20.2142 H   0  0  0  0  0  0  0  0  0  0  0  0
   21.9332   19.5548   19.1911 H   0  0  0  0  0  0  0  0  0  0  0  0
   22.0353   18.0021   19.7374 H   0  0  0  0  0  0  0  0  0  0  0  0
   21.2831   19.3433   21.2007 C   0  0  0  0  0  0  0  0  0  0  0  0
   21.4785   20.3882   21.4569 H   0  0  0  0  0  0  0  0  0  0  0  0
   21.5912   18.7189   22.0432 H   0  0  0  0  0  0  0  0  0  0  0  0
   19.7793   19.1489   20.9295 C   0  0  0  0  0  0  0  0  0  0  0  0
   19.4926   19.7467   20.0541 H   0  0  0  0  0  0  0  0  0  0  0  0
   19.5833   18.0997   20.6714 H   0  0  0  0  0  0  0  0  0  0  0  0
   18.8966   19.5625   22.1306 C   0  0  0  0  0  0  0  0  0  0  0  0
   17.8411   19.4862   21.8347 H   0  0  0  0  0  0  0  0  0  0  0  0
   19.0761   20.6199   22.3703 H   0  0  0  0  0  0  0  0  0  0  0  0
   19.1361   18.6938   23.3890 C   0  0  0  0  0  0  0  0  0  0  0  0
   18.9881   17.6345   23.1376 H   0  0  0  0  0  0  0  0  0  0  0  0
   20.1763   18.7987   23.7254 H   0  0  0  0  0  0  0  0  0  0  0  0
   18.1885   19.0847   24.5449 C   0  0  0  0  0  0  0  0  0  0  0  0
   17.1437   18.9754   24.2219 H   0  0  0  0  0  0  0  0  0  0  0  0
   18.3320   20.1441   24.8001 H   0  0  0  0  0  0  0  0  0  0  0  0
   18.4292   18.2187   25.7997 C   0  0  0  0  0  0  0  0  0  0  0  0
   18.2603   17.1556   25.5840 H   0  0  0  0  0  0  0  0  0  0  0  0
   17.7472   18.5107   26.6088 H   0  0  0  0  0  0  0  0  0  0  0  0
   19.4571   18.3338   26.1677 H   0  0  0  0  0  0  0  0  0  0  0  0
  1  2  1  0  0  0  0
  1  3  1  0  0  0  0
  1  4  1  0  0  0  0
  1  5  1  0  0  0  0
  5  6  1  0  0  0  0
  5  7  1  0  0  0  0
  5  8  1  0  0  0  0
  8  9  1  0  0  0  0
  8 10  1  0  0  0  0
  8 11  1  0  0  0  0
 11 12  1  0  0  0  0
 11 13  1  0  0  0  0
 11 14  1  0  0  0  0
 14 15  1  0  0  0  0
 14 16  1  0  0  0  0
 14 17  1  0  0  0  0
 17 18  1  0  0  0  0
 17 19  1  0  0  0  0
 17 20  1  0  0  0  0
 20 21  1  0  0  0  0
 20 22  1  0  0  0  0
 20 23  1  0  0  0  0
M  END
> <VConfSearch Rank>
180

> <Conf_Id>
42

> <Delta U+W>
0.365

> <U+W>
-8.017

> <U>
47.375

> <W>
-55.392

> <W(PB)>
-57.543

> <W(SA)>
2.152

> <Valence>
2.032

> <Coulomb>
44.843

> <VdW>
0.499

> <VdW6>
-5.218

> <VdW12>
5.717

> <Bond>
0.135

> <Angle>
0.514

> <Pdih>
1.383

> <Idih>
0.000

> <Tether>
0.000

$$$$
VeraChem MOL file


 23 22  0  0  0  0  0  0  0  0999 V2000     
   18.5394   21.3406   24.3716 N   0  3  0  0  0  0  0  0  0  0  0  0
   17.5928   20.9482   24.3485 H   0  0  0  0  0  0  0  0  0  0  0  0
   18.4503   22.3185   24.6680 H   0  0  0  0  0  0  0  0  0  0  0  0
   19.0527   20.8501   25.1100 H   0  0  0  0  0  0  0  0  0  0  0  0
   19.2323   21.2210   23.0281 C   0  0  0  0  0  0  0  0  0  0  0  0
   20.2223   21.6770   23.1139 H   0  0  0  0  0  0  0  0  0  0  0  0
   18.6522   21.8007   22.3049 H   0  0  0  0  0  0  0  0  0  0  0  0
   19.3707   19.7709   22.5246 C   0  0  0  0  0  0  0  0  0  0  0  0
   18.3777   19.3061   22.4655 H   0  0  0  0  0  0  0  0  0  0  0  0
   19.7686   19.8075   21.5031 H   0  0  0  0  0  0  0  0  0  0  0  0
   20.3084   18.9162   23.4118 C   0  0  0  0  0  0  0  0  0  0  0  0
   19.9689   18.9646   24.4547 H   0  0  0  0  0  0  0  0  0  0  0  0
   21.3175   19.3508   23.3986 H   0  0  0  0  0  0  0  0  0  0  0  0
   20.3865   17.4217   23.0052 C   0  0  0  0  0  0  0  0  0  0  0  0
   21.0409   16.9166   23.7291 H   0  0  0  0  0  0  0  0  0  0  0  0
   19.4015   16.9479   23.1176 H   0  0  0  0  0  0  0  0  0  0  0  0
   20.9484   17.1603   21.5838 C   0  0  0  0  0  0  0  0  0  0  0  0
   21.5474   16.2391   21.6082 H   0  0  0  0  0  0  0  0  0  0  0  0
   21.6408   17.9624   21.2927 H   0  0  0  0  0  0  0  0  0  0  0  0
   19.8477   16.9837   20.5117 C   0  0  0  0  0  0  0  0  0  0  0  0
   19.1957   16.1351   20.7562 H   0  0  0  0  0  0  0  0  0  0  0  0
   20.2965   16.7858   19.5297 H   0  0  0  0  0  0  0  0  0  0  0  0
   19.2181   17.8750   20.4152 H   0  0  0  0  0  0  0  0  0  0  0  0
  1  2  1  0  0  0  0
  1  3  1  0  0  0  0
  1  4  1  0  0  0  0
  1  5  1  0  0  0  0
  5  6  1  0  0  0  0
  5  7  1  0  0  0  0
  5  8  1  0  0  0  0
  8  9  1  0  0  0  0
  8 10  1  0  0  0  0
  8 11  1  0  0  0  0
 11 12  1  0  0  0  0
 11 13  1  0  0  0  0
 11 14  1  0  0  0  0
 14 15  1  0  0  0  0
 14 16  1  0  0  0  0
 14 17  1  0  0  0  0
 17 18  1  0  0  0  0
 17 19  1  0  0  0  0
 17 20  1  0  0  0  0
 20 21  1  0  0  0  0
 20 22  1  0  0  0  0
 20 23  1  0  0  0  0
M  END
> <VConfSearch Rank>
181

> <Conf_Id>
3

> <Delta U+W>
3.283

> <U+W>
-5.099

> <U>
50.701

> <W>
-55.800

> <W(PB)>
-57.867

> <W(SA)>
2.067

> <Valence>
4.880

> <Coulomb>
45.095

> <VdW>
0.726

> <VdW6>
-6.620

> <VdW12>
7.346

> <Bond>
0.222

> <Angle>
1.260

> <Pdih>
3.398

> <Idih>
0.000

> <Tether>
0.000

$$$$
VeraChem MOL file


 23 22  0  0  0  0  0  0  0  0999 V2000     
   22.1301   17.3280   22.5915 N   0  3  0  0  0  0  0  0  0  0  0  0
   23.0163   17.8327   22.4893 H   0  0  0  0  0  0  0  0  0  0  0  0
   22.3625   16.3361   22.7104 H   0  0  0  0  0  0  0  0  0  0  0  0
   21.7007   17.6433   23.4666 H   0  0  0  0  0  0  0  0  0  0  0  0
   21.2135   17.5537   21.4053 C   0  0  0  0  0  0  0  0  0  0  0  0
   20.3050   16.9667   21.5622 H   0  0  0  0  0  0  0  0  0  0  0  0
   21.7179   17.1649   20.5165 H   0  0  0  0  0  0  0  0  0  0  0  0
   20.8468   19.0346   21.1779 C   0  0  0  0  0  0  0  0  0  0  0  0
   21.7637   19.6023   20.9707 H   0  0  0  0  0  0  0  0  0  0  0  0
   20.2300   19.1098   20.2725 H   0  0  0  0  0  0  0  0  0  0  0  0
   20.0957   19.6921   22.3632 C   0  0  0  0  0  0  0  0  0  0  0  0
   19.9229   20.7468   22.1128 H   0  0  0  0  0  0  0  0  0  0  0  0
   20.7334   19.6909   23.2571 H   0  0  0  0  0  0  0  0  0  0  0  0
   18.7425   19.0073   22.6832 C   0  0  0  0  0  0  0  0  0  0  0  0
   18.0951   19.0340   21.7959 H   0  0  0  0  0  0  0  0  0  0  0  0
   18.9117   17.9465   22.9102 H   0  0  0  0  0  0  0  0  0  0  0  0
   17.9993   19.6424   23.8835 C   0  0  0  0  0  0  0  0  0  0  0  0
   18.6382   19.6086   24.7770 H   0  0  0  0  0  0  0  0  0  0  0  0
   17.1164   19.0300   24.1143 H   0  0  0  0  0  0  0  0  0  0  0  0
   17.5410   21.0961   23.6262 C   0  0  0  0  0  0  0  0  0  0  0  0
   16.9274   21.1620   22.7184 H   0  0  0  0  0  0  0  0  0  0  0  0
   18.3950   21.7753   23.5147 H   0  0  0  0  0  0  0  0  0  0  0  0
   16.9369   21.4624   24.4664 H   0  0  0  0  0  0  0  0  0  0  0  0
  1  2  1  0  0  0  0
  1  3  1  0  0  0  0
  1  4  1  0  0  0  0
  1  5  1  0  0  0  0
  5  6  1  0  0  0  0
  5  7  1  0  0  0  0
  5  8  1  0  0  0  0
  8  9  1  0  0  0  0
  8 10  1  0  0  0  0
  8 11  1  0  0  0  0
 11 12  1  0  0  0  0
 11 13  1  0  0  0  0
 11 14  1  0  0  0  0
 14 15  1  0  0  0  0
 14 16  1  0  0  0  0
 14 17  1  0  0  0  0
 17 18  1  0  0  0  0
 17 19  1  0  0  0  0
 17 20  1  0  0  0  0
 20 21  1  0  0  0  0
 20 22  1  0  0  0  0
 20 23  1  0  0  0  0
M  END
> <VConfSearch Rank>
182

> <Conf_Id>
83

> <Delta U+W>
1.229

> <U+W>
-7.154

> <U>
48.727

> <W>
-55.880

> <W(PB)>
-57.960

> <W(SA)>
2.080

> <Valence>
2.671

> <Coulomb>
45.371

> <VdW>
0.684

> <VdW6>
-6.511

> <VdW12>
7.195

> <Bond>
0.203

> <Angle>
0.915

> <Pdih>
1.554

> <Idih>
0.000

> <Tether>
0.000

$$$$
VeraChem MOL file


 23 22  0  0  0  0  0  0  0  0999 V2000     
   22.5463   18.4316   22.2946 N   0  3  0  0  0  0  0  0  0  0  0  0
   23.1438   19.2643   22.3083 H   0  0  0  0  0  0  0  0  0  0  0  0
   21.9363   18.5094   21.4752 H   0  0  0  0  0  0  0  0  0  0  0  0
   23.1602   17.6252   22.1377 H   0  0  0  0  0  0  0  0  0  0  0  0
   21.7474   18.2909   23.5754 C   0  0  0  0  0  0  0  0  0  0  0  0
   22.4572   18.1783   24.3994 H   0  0  0  0  0  0  0  0  0  0  0  0
   21.1587   17.3725   23.5087 H   0  0  0  0  0  0  0  0  0  0  0  0
   20.8182   19.4883   23.8614 C   0  0  0  0  0  0  0  0  0  0  0  0
   20.3237   19.3274   24.8286 H   0  0  0  0  0  0  0  0  0  0  0  0
   21.4276   20.3944   23.9772 H   0  0  0  0  0  0  0  0  0  0  0  0
   19.7426   19.7318   22.7726 C   0  0  0  0  0  0  0  0  0  0  0  0
   20.2260   19.9691   21.8157 H   0  0  0  0  0  0  0  0  0  0  0  0
   19.1695   20.6244   23.0549 H   0  0  0  0  0  0  0  0  0  0  0  0
   18.7774   18.5329   22.5898 C   0  0  0  0  0  0  0  0  0  0  0  0
   19.3521   17.6339   22.3312 H   0  0  0  0  0  0  0  0  0  0  0  0
   18.2738   18.3145   23.5415 H   0  0  0  0  0  0  0  0  0  0  0  0
   17.7168   18.7589   21.4849 C   0  0  0  0  0  0  0  0  0  0  0  0
   17.1544   17.8256   21.3413 H   0  0  0  0  0  0  0  0  0  0  0  0
   18.2151   18.9672   20.5278 H   0  0  0  0  0  0  0  0  0  0  0  0
   16.7193   19.8940   21.8101 C   0  0  0  0  0  0  0  0  0  0  0  0
   16.2317   19.7258   22.7791 H   0  0  0  0  0  0  0  0  0  0  0  0
   15.9344   19.9461   21.0445 H   0  0  0  0  0  0  0  0  0  0  0  0
   17.2153   20.8719   21.8393 H   0  0  0  0  0  0  0  0  0  0  0  0
  1  2  1  0  0  0  0
  1  3  1  0  0  0  0
  1  4  1  0  0  0  0
  1  5  1  0  0  0  0
  5  6  1  0  0  0  0
  5  7  1  0  0  0  0
  5  8  1  0  0  0  0
  8  9  1  0  0  0  0
  8 10  1  0  0  0  0
  8 11  1  0  0  0  0
 11 12  1  0  0  0  0
 11 13  1  0  0  0  0
 11 14  1  0  0  0  0
 14 15  1  0  0  0  0
 14 16  1  0  0  0  0
 14 17  1  0  0  0  0
 17 18  1  0  0  0  0
 17 19  1  0  0  0  0
 17 20  1  0  0  0  0
 20 21  1  0  0  0  0
 20 22  1  0  0  0  0
 20 23  1  0  0  0  0
M  END
> <VConfSearch Rank>
183

> <Conf_Id>
50

> <Delta U+W>
1.252

> <U+W>
-7.130

> <U>
48.727

> <W>
-55.857

> <W(PB)>
-57.937

> <W(SA)>
2.080

> <Valence>
2.671

> <Coulomb>
45.371

> <VdW>
0.684

> <VdW6>
-6.511

> <VdW12>
7.196

> <Bond>
0.203

> <Angle>
0.915

> <Pdih>
1.554

> <Idih>
0.000

> <Tether>
0.000

$$$$
VeraChem MOL file


 23 22  0  0  0  0  0  0  0  0999 V2000     
   17.1717   18.5397   20.9045 N   0  3  0  0  0  0  0  0  0  0  0  0
   17.0173   19.4846   21.2690 H   0  0  0  0  0  0  0  0  0  0  0  0
   16.2538   18.0850   20.8527 H   0  0  0  0  0  0  0  0  0  0  0  0
   17.5113   18.6376   19.9424 H   0  0  0  0  0  0  0  0  0  0  0  0
   18.1406   17.7550   21.7675 C   0  0  0  0  0  0  0  0  0  0  0  0
   18.2234   16.7507   21.3432 H   0  0  0  0  0  0  0  0  0  0  0  0
   17.7093   17.6672   22.7683 H   0  0  0  0  0  0  0  0  0  0  0  0
   19.5430   18.3868   21.8611 C   0  0  0  0  0  0  0  0  0  0  0  0
   20.1940   17.6963   22.4089 H   0  0  0  0  0  0  0  0  0  0  0  0
   19.9697   18.4776   20.8534 H   0  0  0  0  0  0  0  0  0  0  0  0
   19.5281   19.7736   22.5534 C   0  0  0  0  0  0  0  0  0  0  0  0
   19.0169   19.7112   23.5241 H   0  0  0  0  0  0  0  0  0  0  0  0
   18.9334   20.4634   21.9398 H   0  0  0  0  0  0  0  0  0  0  0  0
   20.9419   20.3854   22.7358 C   0  0  0  0  0  0  0  0  0  0  0  0
   21.6144   20.0364   21.9402 H   0  0  0  0  0  0  0  0  0  0  0  0
   20.8641   21.4732   22.6009 H   0  0  0  0  0  0  0  0  0  0  0  0
   21.5829   20.1334   24.1246 C   0  0  0  0  0  0  0  0  0  0  0  0
   20.9516   20.5765   24.9075 H   0  0  0  0  0  0  0  0  0  0  0  0
   22.5416   20.6691   24.1683 H   0  0  0  0  0  0  0  0  0  0  0  0
   21.8328   18.6446   24.4501 C   0  0  0  0  0  0  0  0  0  0  0  0
   22.4130   18.1572   23.6559 H   0  0  0  0  0  0  0  0  0  0  0  0
   20.8890   18.1007   24.5787 H   0  0  0  0  0  0  0  0  0  0  0  0
   22.3973   18.5464   25.3864 H   0  0  0  0  0  0  0  0  0  0  0  0
  1  2  1  0  0  0  0
  1  3  1  0  0  0  0
  1  4  1  0  0  0  0
  1  5  1  0  0  0  0
  5  6  1  0  0  0  0
  5  7  1  0  0  0  0
  5  8  1  0  0  0  0
  8  9  1  0  0  0  0
  8 10  1  0  0  0  0
  8 11  1  0  0  0  0
 11 12  1  0  0  0  0
 11 13  1  0  0  0  0
 11 14  1  0  0  0  0
 14 15  1  0  0  0  0
 14 16  1  0  0  0  0
 14 17  1  0  0  0  0
 17 18  1  0  0  0  0
 17 19  1  0  0  0  0
 17 20  1  0  0  0  0
 20 21  1  0  0  0  0
 20 22  1  0  0  0  0
 20 23  1  0  0  0  0
M  END
> <VConfSearch Rank>
184

> <Conf_Id>
55

> <Delta U+W>
3.232

> <U+W>
-5.150

> <U>
50.625

> <W>
-55.776

> <W(PB)>
-57.839

> <W(SA)>
2.064

> <Valence>
4.837

> <Coulomb>
45.097

> <VdW>
0.692

> <VdW6>
-6.655

> <VdW12>
7.347

> <Bond>
0.223

> <Angle>
1.167

> <Pdih>
3.447

> <Idih>
0.000

> <Tether>
0.000

$$$$
VeraChem MOL file


 23 22  0  0  0  0  0  0  0  0999 V2000     
   20.7520   16.5348   24.2827 N   0  3  0  0  0  0  0  0  0  0  0  0
   21.0105   16.6092   25.2719 H   0  0  0  0  0  0  0  0  0  0  0  0
   21.3573   15.8169   23.8701 H   0  0  0  0  0  0  0  0  0  0  0  0
   19.7936   16.1726   24.2482 H   0  0  0  0  0  0  0  0  0  0  0  0
   20.8814   17.8621   23.5636 C   0  0  0  0  0  0  0  0  0  0  0  0
   20.6270   17.6991   22.5147 H   0  0  0  0  0  0  0  0  0  0  0  0
   21.9287   18.1718   23.6158 H   0  0  0  0  0  0  0  0  0  0  0  0
   19.9876   18.9636   24.1665 C   0  0  0  0  0  0  0  0  0  0  0  0
   18.9362   18.6471   24.1634 H   0  0  0  0  0  0  0  0  0  0  0  0
   20.2696   19.0918   25.2201 H   0  0  0  0  0  0  0  0  0  0  0  0
   20.1355   20.3284   23.4474 C   0  0  0  0  0  0  0  0  0  0  0  0
   21.1828   20.4885   23.1555 H   0  0  0  0  0  0  0  0  0  0  0  0
   19.9044   21.1224   24.1710 H   0  0  0  0  0  0  0  0  0  0  0  0
   19.2044   20.5272   22.2230 C   0  0  0  0  0  0  0  0  0  0  0  0
   18.1562   20.4685   22.5471 H   0  0  0  0  0  0  0  0  0  0  0  0
   19.3495   21.5491   21.8461 H   0  0  0  0  0  0  0  0  0  0  0  0
   19.4399   19.5290   21.0660 C   0  0  0  0  0  0  0  0  0  0  0  0
   19.1486   18.5181   21.3792 H   0  0  0  0  0  0  0  0  0  0  0  0
   20.5084   19.4968   20.8114 H   0  0  0  0  0  0  0  0  0  0  0  0
   18.6260   19.9101   19.8110 C   0  0  0  0  0  0  0  0  0  0  0  0
   18.9141   20.9020   19.4389 H   0  0  0  0  0  0  0  0  0  0  0  0
   17.5500   19.9258   20.0283 H   0  0  0  0  0  0  0  0  0  0  0  0
   18.7962   19.1858   19.0039 H   0  0  0  0  0  0  0  0  0  0  0  0
  1  2  1  0  0  0  0
  1  3  1  0  0  0  0
  1  4  1  0  0  0  0
  1  5  1  0  0  0  0
  5  6  1  0  0  0  0
  5  7  1  0  0  0  0
  5  8  1  0  0  0  0
  8  9  1  0  0  0  0
  8 10  1  0  0  0  0
  8 11  1  0  0  0  0
 11 12  1  0  0  0  0
 11 13  1  0  0  0  0
 11 14  1  0  0  0  0
 14 15  1  0  0  0  0
 14 16  1  0  0  0  0
 14 17  1  0  0  0  0
 17 18  1  0  0  0  0
 17 19  1  0  0  0  0
 17 20  1  0  0  0  0
 20 21  1  0  0  0  0
 20 22  1  0  0  0  0
 20 23  1  0  0  0  0
M  END
> <VConfSearch Rank>
185

> <Conf_Id>
93

> <Delta U+W>
2.589

> <U+W>
-5.793

> <U>
50.122

> <W>
-55.915

> <W(PB)>
-58.031

> <W(SA)>
2.115

> <Valence>
4.132

> <Coulomb>
45.536

> <VdW>
0.454

> <VdW6>
-6.262

> <VdW12>
6.715

> <Bond>
0.182

> <Angle>
1.157

> <Pdih>
2.794

> <Idih>
0.000

> <Tether>
0.000

$$$$
VeraChem MOL file


 23 22  0  0  0  0  0  0  0  0999 V2000     
   17.4340   17.6449   20.8878 N   0  3  0  0  0  0  0  0  0  0  0  0
   17.3251   18.5223   20.3691 H   0  0  0  0  0  0  0  0  0  0  0  0
   16.5225   17.4307   21.3065 H   0  0  0  0  0  0  0  0  0  0  0  0
   17.6252   16.9097   20.1994 H   0  0  0  0  0  0  0  0  0  0  0  0
   18.5264   17.7377   21.9336 C   0  0  0  0  0  0  0  0  0  0  0  0
   18.5663   16.7822   22.4634 H   0  0  0  0  0  0  0  0  0  0  0  0
   18.2389   18.5110   22.6482 H   0  0  0  0  0  0  0  0  0  0  0  0
   19.9106   18.0518   21.3326 C   0  0  0  0  0  0  0  0  0  0  0  0
   20.1590   17.2569   20.6166 H   0  0  0  0  0  0  0  0  0  0  0  0
   19.8744   18.9866   20.7575 H   0  0  0  0  0  0  0  0  0  0  0  0
   21.0339   18.1243   22.3976 C   0  0  0  0  0  0  0  0  0  0  0  0
   21.9818   17.8515   21.9132 H   0  0  0  0  0  0  0  0  0  0  0  0
   20.8672   17.3635   23.1729 H   0  0  0  0  0  0  0  0  0  0  0  0
   21.2274   19.5176   23.0508 C   0  0  0  0  0  0  0  0  0  0  0  0
   22.0902   19.4600   23.7288 H   0  0  0  0  0  0  0  0  0  0  0  0
   21.4968   20.2501   22.2774 H   0  0  0  0  0  0  0  0  0  0  0  0
   20.0033   20.0339   23.8416 C   0  0  0  0  0  0  0  0  0  0  0  0
   19.6556   19.2598   24.5399 H   0  0  0  0  0  0  0  0  0  0  0  0
   19.1758   20.2470   23.1526 H   0  0  0  0  0  0  0  0  0  0  0  0
   20.3346   21.3205   24.6274 C   0  0  0  0  0  0  0  0  0  0  0  0
   19.4526   21.6791   25.1737 H   0  0  0  0  0  0  0  0  0  0  0  0
   20.6615   22.1220   23.9521 H   0  0  0  0  0  0  0  0  0  0  0  0
   21.1337   21.1425   25.3589 H   0  0  0  0  0  0  0  0  0  0  0  0
  1  2  1  0  0  0  0
  1  3  1  0  0  0  0
  1  4  1  0  0  0  0
  1  5  1  0  0  0  0
  5  6  1  0  0  0  0
  5  7  1  0  0  0  0
  5  8  1  0  0  0  0
  8  9  1  0  0  0  0
  8 10  1  0  0  0  0
  8 11  1  0  0  0  0
 11 12  1  0  0  0  0
 11 13  1  0  0  0  0
 11 14  1  0  0  0  0
 14 15  1  0  0  0  0
 14 16  1  0  0  0  0
 14 17  1  0  0  0  0
 17 18  1  0  0  0  0
 17 19  1  0  0  0  0
 17 20  1  0  0  0  0
 20 21  1  0  0  0  0
 20 22  1  0  0  0  0
 20 23  1  0  0  0  0
M  END
> <VConfSearch Rank>
186

> <Conf_Id>
70

> <Delta U+W>
2.599

> <U+W>
-5.783

> <U>
50.122

> <W>
-55.906

> <W(PB)>
-58.010

> <W(SA)>
2.105

> <Valence>
4.132

> <Coulomb>
45.536

> <VdW>
0.454

> <VdW6>
-6.262

> <VdW12>
6.715

> <Bond>
0.182

> <Angle>
1.157

> <Pdih>
2.794

> <Idih>
0.000

> <Tether>
0.000

$$$$
VeraChem MOL file


 23 22  0  0  0  0  0  0  0  0999 V2000     
   17.7765   17.0280   22.2627 N   0  3  0  0  0  0  0  0  0  0  0  0
   16.7714   17.2193   22.3243 H   0  0  0  0  0  0  0  0  0  0  0  0
   17.8885   16.0087   22.2750 H   0  0  0  0  0  0  0  0  0  0  0  0
   18.0911   17.3547   21.3441 H   0  0  0  0  0  0  0  0  0  0  0  0
   18.5459   17.6935   23.3867 C   0  0  0  0  0  0  0  0  0  0  0  0
   19.6001   17.4239   23.2828 H   0  0  0  0  0  0  0  0  0  0  0  0
   18.1810   17.2798   24.3307 H   0  0  0  0  0  0  0  0  0  0  0  0
   18.4014   19.2286   23.4101 C   0  0  0  0  0  0  0  0  0  0  0  0
   17.3434   19.4874   23.5495 H   0  0  0  0  0  0  0  0  0  0  0  0
   18.9233   19.6200   24.2926 H   0  0  0  0  0  0  0  0  0  0  0  0
   18.9341   19.9314   22.1337 C   0  0  0  0  0  0  0  0  0  0  0  0
   18.8273   21.0179   22.2573 H   0  0  0  0  0  0  0  0  0  0  0  0
   18.2951   19.6660   21.2808 H   0  0  0  0  0  0  0  0  0  0  0  0
   20.4074   19.6057   21.7756 C   0  0  0  0  0  0  0  0  0  0  0  0
   20.5141   18.5350   21.5558 H   0  0  0  0  0  0  0  0  0  0  0  0
   20.6619   20.1320   20.8452 H   0  0  0  0  0  0  0  0  0  0  0  0
   21.4156   20.0144   22.8752 C   0  0  0  0  0  0  0  0  0  0  0  0
   21.2235   19.4465   23.7953 H   0  0  0  0  0  0  0  0  0  0  0  0
   21.2838   21.0769   23.1230 H   0  0  0  0  0  0  0  0  0  0  0  0
   22.8732   19.7692   22.4307 C   0  0  0  0  0  0  0  0  0  0  0  0
   23.5745   20.0619   23.2228 H   0  0  0  0  0  0  0  0  0  0  0  0
   23.1162   20.3532   21.5334 H   0  0  0  0  0  0  0  0  0  0  0  0
   23.0437   18.7085   22.2048 H   0  0  0  0  0  0  0  0  0  0  0  0
  1  2  1  0  0  0  0
  1  3  1  0  0  0  0
  1  4  1  0  0  0  0
  1  5  1  0  0  0  0
  5  6  1  0  0  0  0
  5  7  1  0  0  0  0
  5  8  1  0  0  0  0
  8  9  1  0  0  0  0
  8 10  1  0  0  0  0
  8 11  1  0  0  0  0
 11 12  1  0  0  0  0
 11 13  1  0  0  0  0
 11 14  1  0  0  0  0
 14 15  1  0  0  0  0
 14 16  1  0  0  0  0
 14 17  1  0  0  0  0
 17 18  1  0  0  0  0
 17 19  1  0  0  0  0
 17 20  1  0  0  0  0
 20 21  1  0  0  0  0
 20 22  1  0  0  0  0
 20 23  1  0  0  0  0
M  END
> <VConfSearch Rank>
187

> <Conf_Id>
72

> <Delta U+W>
1.051

> <U+W>
-7.331

> <U>
48.590

> <W>
-55.922

> <W(PB)>
-58.012

> <W(SA)>
2.090

> <Valence>
2.601

> <Coulomb>
45.520

> <VdW>
0.469

> <VdW6>
-6.867

> <VdW12>
7.336

> <Bond>
0.205

> <Angle>
0.962

> <Pdih>
1.434

> <Idih>
0.000

> <Tether>
0.000

$$$$
VeraChem MOL file


 23 22  0  0  0  0  0  0  0  0999 V2000     
   19.5571   16.8713   24.9360 N   0  3  0  0  0  0  0  0  0  0  0  0
   20.2984   16.4438   25.5014 H   0  0  0  0  0  0  0  0  0  0  0  0
   18.8236   16.1642   24.8232 H   0  0  0  0  0  0  0  0  0  0  0  0
   19.1584   17.6331   25.4940 H   0  0  0  0  0  0  0  0  0  0  0  0
   20.0795   17.3613   23.6009 C   0  0  0  0  0  0  0  0  0  0  0  0
   20.5138   16.5076   23.0738 H   0  0  0  0  0  0  0  0  0  0  0  0
   20.8744   18.0858   23.7965 H   0  0  0  0  0  0  0  0  0  0  0  0
   18.9897   18.0096   22.7269 C   0  0  0  0  0  0  0  0  0  0  0  0
   18.1792   17.2861   22.5678 H   0  0  0  0  0  0  0  0  0  0  0  0
   18.5439   18.8589   23.2603 H   0  0  0  0  0  0  0  0  0  0  0  0
   19.5250   18.4716   21.3488 C   0  0  0  0  0  0  0  0  0  0  0  0
   18.6982   18.9023   20.7685 H   0  0  0  0  0  0  0  0  0  0  0  0
   19.8554   17.5896   20.7829 H   0  0  0  0  0  0  0  0  0  0  0  0
   20.6983   19.4865   21.4126 C   0  0  0  0  0  0  0  0  0  0  0  0
   21.5808   18.9974   21.8464 H   0  0  0  0  0  0  0  0  0  0  0  0
   20.9851   19.7555   20.3866 H   0  0  0  0  0  0  0  0  0  0  0  0
   20.4044   20.7852   22.2058 C   0  0  0  0  0  0  0  0  0  0  0  0
   21.3049   21.4150   22.1925 H   0  0  0  0  0  0  0  0  0  0  0  0
   20.2175   20.5509   23.2624 H   0  0  0  0  0  0  0  0  0  0  0  0
   19.2207   21.5980   21.6342 C   0  0  0  0  0  0  0  0  0  0  0  0
   19.3795   21.8335   20.5739 H   0  0  0  0  0  0  0  0  0  0  0  0
   19.1080   22.5461   22.1756 H   0  0  0  0  0  0  0  0  0  0  0  0
   18.2746   21.0502   21.7266 H   0  0  0  0  0  0  0  0  0  0  0  0
  1  2  1  0  0  0  0
  1  3  1  0  0  0  0
  1  4  1  0  0  0  0
  1  5  1  0  0  0  0
  5  6  1  0  0  0  0
  5  7  1  0  0  0  0
  5  8  1  0  0  0  0
  8  9  1  0  0  0  0
  8 10  1  0  0  0  0
  8 11  1  0  0  0  0
 11 12  1  0  0  0  0
 11 13  1  0  0  0  0
 11 14  1  0  0  0  0
 14 15  1  0  0  0  0
 14 16  1  0  0  0  0
 14 17  1  0  0  0  0
 17 18  1  0  0  0  0
 17 19  1  0  0  0  0
 17 20  1  0  0  0  0
 20 21  1  0  0  0  0
 20 22  1  0  0  0  0
 20 23  1  0  0  0  0
M  END
> <VConfSearch Rank>
188

> <Conf_Id>
26

> <Delta U+W>
1.076

> <U+W>
-7.306

> <U>
48.641

> <W>
-55.947

> <W(PB)>
-58.031

> <W(SA)>
2.084

> <Valence>
2.922

> <Coulomb>
45.269

> <VdW>
0.449

> <VdW6>
-7.045

> <VdW12>
7.494

> <Bond>
0.220

> <Angle>
1.205

> <Pdih>
1.497

> <Idih>
0.000

> <Tether>
0.000

$$$$
VeraChem MOL file


 23 22  0  0  0  0  0  0  0  0999 V2000     
   17.8168   17.1366   24.1596 N   0  3  0  0  0  0  0  0  0  0  0  0
   16.8617   17.1222   23.7876 H   0  0  0  0  0  0  0  0  0  0  0  0
   17.7490   16.9307   25.1621 H   0  0  0  0  0  0  0  0  0  0  0  0
   18.3204   16.3549   23.7281 H   0  0  0  0  0  0  0  0  0  0  0  0
   18.5033   18.4626   23.9025 C   0  0  0  0  0  0  0  0  0  0  0  0
   19.4997   18.4173   24.3498 H   0  0  0  0  0  0  0  0  0  0  0  0
   17.9322   19.2433   24.4122 H   0  0  0  0  0  0  0  0  0  0  0  0
   18.6213   18.8014   22.4049 C   0  0  0  0  0  0  0  0  0  0  0  0
   19.1832   18.0118   21.8898 H   0  0  0  0  0  0  0  0  0  0  0  0
   17.6184   18.8075   21.9578 H   0  0  0  0  0  0  0  0  0  0  0  0
   19.2888   20.1764   22.1540 C   0  0  0  0  0  0  0  0  0  0  0  0
   18.6475   20.9638   22.5735 H   0  0  0  0  0  0  0  0  0  0  0  0
   19.3225   20.3673   21.0731 H   0  0  0  0  0  0  0  0  0  0  0  0
   20.7136   20.3278   22.7522 C   0  0  0  0  0  0  0  0  0  0  0  0
   21.0943   21.3276   22.5020 H   0  0  0  0  0  0  0  0  0  0  0  0
   20.6537   20.3013   23.8486 H   0  0  0  0  0  0  0  0  0  0  0  0
   21.7426   19.2690   22.2808 C   0  0  0  0  0  0  0  0  0  0  0  0
   21.4364   18.2677   22.6121 H   0  0  0  0  0  0  0  0  0  0  0  0
   22.7028   19.4689   22.7765 H   0  0  0  0  0  0  0  0  0  0  0  0
   21.9636   19.2677   20.7512 C   0  0  0  0  0  0  0  0  0  0  0  0
   21.0563   18.9650   20.2139 H   0  0  0  0  0  0  0  0  0  0  0  0
   22.7600   18.5633   20.4782 H   0  0  0  0  0  0  0  0  0  0  0  0
   22.2587   20.2630   20.3945 H   0  0  0  0  0  0  0  0  0  0  0  0
  1  2  1  0  0  0  0
  1  3  1  0  0  0  0
  1  4  1  0  0  0  0
  1  5  1  0  0  0  0
  5  6  1  0  0  0  0
  5  7  1  0  0  0  0
  5  8  1  0  0  0  0
  8  9  1  0  0  0  0
  8 10  1  0  0  0  0
  8 11  1  0  0  0  0
 11 12  1  0  0  0  0
 11 13  1  0  0  0  0
 11 14  1  0  0  0  0
 14 15  1  0  0  0  0
 14 16  1  0  0  0  0
 14 17  1  0  0  0  0
 17 18  1  0  0  0  0
 17 19  1  0  0  0  0
 17 20  1  0  0  0  0
 20 21  1  0  0  0  0
 20 22  1  0  0  0  0
 20 23  1  0  0  0  0
M  END
> <VConfSearch Rank>
189

> <Conf_Id>
90

> <Delta U+W>
1.131

> <U+W>
-7.251

> <U>
48.641

> <W>
-55.892

> <W(PB)>
-57.962

> <W(SA)>
2.070

> <Valence>
2.922

> <Coulomb>
45.269

> <VdW>
0.450

> <VdW6>
-7.045

> <VdW12>
7.495

> <Bond>
0.220

> <Angle>
1.205

> <Pdih>
1.497

> <Idih>
0.000

> <Tether>
0.000

$$$$
VeraChem MOL file


 23 22  0  0  0  0  0  0  0  0999 V2000     
   18.5529   17.8399   20.5364 N   0  3  0  0  0  0  0  0  0  0  0  0
   17.6145   17.4705   20.3498 H   0  0  0  0  0  0  0  0  0  0  0  0
   18.9071   17.3568   21.3675 H   0  0  0  0  0  0  0  0  0  0  0  0
   19.1459   17.5625   19.7478 H   0  0  0  0  0  0  0  0  0  0  0  0
   18.5383   19.3438   20.7279 C   0  0  0  0  0  0  0  0  0  0  0  0
   17.8671   19.5731   21.5596 H   0  0  0  0  0  0  0  0  0  0  0  0
   18.1202   19.7908   19.8219 H   0  0  0  0  0  0  0  0  0  0  0  0
   19.9313   19.9473   21.0004 C   0  0  0  0  0  0  0  0  0  0  0  0
   20.5829   19.7518   20.1384 H   0  0  0  0  0  0  0  0  0  0  0  0
   19.8347   21.0390   21.0691 H   0  0  0  0  0  0  0  0  0  0  0  0
   20.6089   19.4122   22.2869 C   0  0  0  0  0  0  0  0  0  0  0  0
   21.5952   19.8859   22.3859 H   0  0  0  0  0  0  0  0  0  0  0  0
   20.7957   18.3360   22.1817 H   0  0  0  0  0  0  0  0  0  0  0  0
   19.7819   19.6884   23.5680 C   0  0  0  0  0  0  0  0  0  0  0  0
   19.5330   20.7578   23.6101 H   0  0  0  0  0  0  0  0  0  0  0  0
   18.8259   19.1496   23.5256 H   0  0  0  0  0  0  0  0  0  0  0  0
   20.5230   19.3045   24.8713 C   0  0  0  0  0  0  0  0  0  0  0  0
   19.9180   19.6284   25.7297 H   0  0  0  0  0  0  0  0  0  0  0  0
   21.4704   19.8575   24.9374 H   0  0  0  0  0  0  0  0  0  0  0  0
   20.7958   17.7884   24.9980 C   0  0  0  0  0  0  0  0  0  0  0  0
   19.8666   17.2109   24.9086 H   0  0  0  0  0  0  0  0  0  0  0  0
   21.2404   17.5587   25.9750 H   0  0  0  0  0  0  0  0  0  0  0  0
   21.4945   17.4385   24.2280 H   0  0  0  0  0  0  0  0  0  0  0  0
  1  2  1  0  0  0  0
  1  3  1  0  0  0  0
  1  4  1  0  0  0  0
  1  5  1  0  0  0  0
  5  6  1  0  0  0  0
  5  7  1  0  0  0  0
  5  8  1  0  0  0  0
  8  9  1  0  0  0  0
  8 10  1  0  0  0  0
  8 11  1  0  0  0  0
 11 12  1  0  0  0  0
 11 13  1  0  0  0  0
 11 14  1  0  0  0  0
 14 15  1  0  0  0  0
 14 16  1  0  0  0  0
 14 17  1  0  0  0  0
 17 18  1  0  0  0  0
 17 19  1  0  0  0  0
 17 20  1  0  0  0  0
 20 21  1  0  0  0  0
 20 22  1  0  0  0  0
 20 23  1  0  0  0  0
M  END
> <VConfSearch Rank>
190

> <Conf_Id>
85

> <Delta U+W>
1.193

> <U+W>
-7.189

> <U>
48.775

> <W>
-55.965

> <W(PB)>
-58.038

> <W(SA)>
2.073

> <Valence>
2.602

> <Coulomb>
45.581

> <VdW>
0.592

> <VdW6>
-6.616

> <VdW12>
7.208

> <Bond>
0.196

> <Angle>
0.832

> <Pdih>
1.574

> <Idih>
0.000

> <Tether>
0.000

$$$$
VeraChem MOL file


 23 22  0  0  0  0  0  0  0  0999 V2000     
   18.4834   19.7580   23.9872 N   0  3  0  0  0  0  0  0  0  0  0  0
   19.1382   20.1202   23.2867 H   0  0  0  0  0  0  0  0  0  0  0  0
   18.6750   20.2465   24.8687 H   0  0  0  0  0  0  0  0  0  0  0  0
   17.5396   20.0307   23.6938 H   0  0  0  0  0  0  0  0  0  0  0  0
   18.6116   18.2545   24.1373 C   0  0  0  0  0  0  0  0  0  0  0  0
   17.8857   17.9462   24.8947 H   0  0  0  0  0  0  0  0  0  0  0  0
   19.6121   18.0239   24.5128 H   0  0  0  0  0  0  0  0  0  0  0  0
   18.3460   17.4694   22.8366 C   0  0  0  0  0  0  0  0  0  0  0  0
   18.0698   16.4440   23.1163 H   0  0  0  0  0  0  0  0  0  0  0  0
   17.4683   17.8857   22.3245 H   0  0  0  0  0  0  0  0  0  0  0  0
   19.5471   17.3857   21.8565 C   0  0  0  0  0  0  0  0  0  0  0  0
   19.2369   16.7575   21.0100 H   0  0  0  0  0  0  0  0  0  0  0  0
   20.3808   16.8490   22.3300 H   0  0  0  0  0  0  0  0  0  0  0  0
   20.0379   18.7434   21.2917 C   0  0  0  0  0  0  0  0  0  0  0  0
   20.3528   18.5944   20.2494 H   0  0  0  0  0  0  0  0  0  0  0  0
   19.2064   19.4594   21.2493 H   0  0  0  0  0  0  0  0  0  0  0  0
   21.2402   19.3292   22.0718 C   0  0  0  0  0  0  0  0  0  0  0  0
   22.1076   18.6648   21.9524 H   0  0  0  0  0  0  0  0  0  0  0  0
   21.0336   19.3651   23.1481 H   0  0  0  0  0  0  0  0  0  0  0  0
   21.6111   20.7415   21.5722 C   0  0  0  0  0  0  0  0  0  0  0  0
   21.8752   20.7254   20.5067 H   0  0  0  0  0  0  0  0  0  0  0  0
   22.4739   21.1342   22.1260 H   0  0  0  0  0  0  0  0  0  0  0  0
   20.7777   21.4433   21.7060 H   0  0  0  0  0  0  0  0  0  0  0  0
  1  2  1  0  0  0  0
  1  3  1  0  0  0  0
  1  4  1  0  0  0  0
  1  5  1  0  0  0  0
  5  6  1  0  0  0  0
  5  7  1  0  0  0  0
  5  8  1  0  0  0  0
  8  9  1  0  0  0  0
  8 10  1  0  0  0  0
  8 11  1  0  0  0  0
 11 12  1  0  0  0  0
 11 13  1  0  0  0  0
 11 14  1  0  0  0  0
 14 15  1  0  0  0  0
 14 16  1  0  0  0  0
 14 17  1  0  0  0  0
 17 18  1  0  0  0  0
 17 19  1  0  0  0  0
 17 20  1  0  0  0  0
 20 21  1  0  0  0  0
 20 22  1  0  0  0  0
 20 23  1  0  0  0  0
M  END
> <VConfSearch Rank>
191

> <Conf_Id>
82

> <Delta U+W>
5.994

> <U+W>
-2.388

> <U>
52.836

> <W>
-55.224

> <W(PB)>
-57.261

> <W(SA)>
2.037

> <Valence>
5.785

> <Coulomb>
46.744

> <VdW>
0.307

> <VdW6>
-7.672

> <VdW12>
7.979

> <Bond>
0.217

> <Angle>
1.470

> <Pdih>
4.098

> <Idih>
0.000

> <Tether>
0.000

$$$$
VeraChem MOL file


 23 22  0  0  0  0  0  0  0  0999 V2000     
   18.2213   19.0020   21.2969 N   0  3  0  0  0  0  0  0  0  0  0  0
   18.1899   18.2966   20.5537 H   0  0  0  0  0  0  0  0  0  0  0  0
   17.2666   19.3600   21.4095 H   0  0  0  0  0  0  0  0  0  0  0  0
   18.4732   18.5201   22.1658 H   0  0  0  0  0  0  0  0  0  0  0  0
   19.2043   20.1113   20.9762 C   0  0  0  0  0  0  0  0  0  0  0  0
   19.1508   20.8658   21.7655 H   0  0  0  0  0  0  0  0  0  0  0  0
   18.8714   20.5729   20.0426 H   0  0  0  0  0  0  0  0  0  0  0  0
   20.6601   19.6302   20.8088 C   0  0  0  0  0  0  0  0  0  0  0  0
   20.6796   18.7064   20.2154 H   0  0  0  0  0  0  0  0  0  0  0  0
   21.1927   20.3808   20.2098 H   0  0  0  0  0  0  0  0  0  0  0  0
   21.4488   19.4330   22.1313 C   0  0  0  0  0  0  0  0  0  0  0  0
   21.5409   20.3921   22.6596 H   0  0  0  0  0  0  0  0  0  0  0  0
   22.4750   19.1468   21.8620 H   0  0  0  0  0  0  0  0  0  0  0  0
   20.8834   18.3498   23.0854 C   0  0  0  0  0  0  0  0  0  0  0  0
   20.3636   17.5720   22.5105 H   0  0  0  0  0  0  0  0  0  0  0  0
   21.7261   17.8418   23.5749 H   0  0  0  0  0  0  0  0  0  0  0  0
   19.9703   18.9298   24.1931 C   0  0  0  0  0  0  0  0  0  0  0  0
   19.1901   19.5714   23.7667 H   0  0  0  0  0  0  0  0  0  0  0  0
   20.5668   19.5763   24.8523 H   0  0  0  0  0  0  0  0  0  0  0  0
   19.3154   17.8143   25.0349 C   0  0  0  0  0  0  0  0  0  0  0  0
   18.6835   17.1658   24.4146 H   0  0  0  0  0  0  0  0  0  0  0  0
   18.6844   18.2441   25.8238 H   0  0  0  0  0  0  0  0  0  0  0  0
   20.0763   17.1874   25.5179 H   0  0  0  0  0  0  0  0  0  0  0  0
  1  2  1  0  0  0  0
  1  3  1  0  0  0  0
  1  4  1  0  0  0  0
  1  5  1  0  0  0  0
  5  6  1  0  0  0  0
  5  7  1  0  0  0  0
  5  8  1  0  0  0  0
  8  9  1  0  0  0  0
  8 10  1  0  0  0  0
  8 11  1  0  0  0  0
 11 12  1  0  0  0  0
 11 13  1  0  0  0  0
 11 14  1  0  0  0  0
 14 15  1  0  0  0  0
 14 16  1  0  0  0  0
 14 17  1  0  0  0  0
 17 18  1  0  0  0  0
 17 19  1  0  0  0  0
 17 20  1  0  0  0  0
 20 21  1  0  0  0  0
 20 22  1  0  0  0  0
 20 23  1  0  0  0  0
M  END
> <VConfSearch Rank>
192

> <Conf_Id>
5

> <Delta U+W>
6.087

> <U+W>
-2.295

> <U>
52.836

> <W>
-55.131

> <W(PB)>
-57.202

> <W(SA)>
2.071

> <Valence>
5.785

> <Coulomb>
46.744

> <VdW>
0.307

> <VdW6>
-7.672

> <VdW12>
7.980

> <Bond>
0.217

> <Angle>
1.470

> <Pdih>
4.098

> <Idih>
0.000

> <Tether>
0.000

$$$$
VeraChem MOL file


 23 22  0  0  0  0  0  0  0  0999 V2000     
   19.9828   22.8452   22.6265 N   0  3  0  0  0  0  0  0  0  0  0  0
   19.6073   22.9748   23.5716 H   0  0  0  0  0  0  0  0  0  0  0  0
   19.6763   23.6513   22.0712 H   0  0  0  0  0  0  0  0  0  0  0  0
   21.0038   22.9033   22.6971 H   0  0  0  0  0  0  0  0  0  0  0  0
   19.5317   21.5351   22.0133 C   0  0  0  0  0  0  0  0  0  0  0  0
   19.9419   21.4772   21.0014 H   0  0  0  0  0  0  0  0  0  0  0  0
   18.4408   21.5541   21.9413 H   0  0  0  0  0  0  0  0  0  0  0  0
   19.9761   20.3045   22.8237 C   0  0  0  0  0  0  0  0  0  0  0  0
   21.0711   20.2985   22.9072 H   0  0  0  0  0  0  0  0  0  0  0  0
   19.5754   20.3752   23.8438 H   0  0  0  0  0  0  0  0  0  0  0  0
   19.4971   18.9914   22.1663 C   0  0  0  0  0  0  0  0  0  0  0  0
   19.8956   18.9270   21.1441 H   0  0  0  0  0  0  0  0  0  0  0  0
   18.4015   19.0036   22.0798 H   0  0  0  0  0  0  0  0  0  0  0  0
   19.9381   17.7484   22.9722 C   0  0  0  0  0  0  0  0  0  0  0  0
   21.0335   17.7359   23.0587 H   0  0  0  0  0  0  0  0  0  0  0  0
   19.5396   17.8126   23.9943 H   0  0  0  0  0  0  0  0  0  0  0  0
   19.4587   16.4353   22.3145 C   0  0  0  0  0  0  0  0  0  0  0  0
   19.8568   16.3652   21.2924 H   0  0  0  0  0  0  0  0  0  0  0  0
   18.3631   16.4418   22.2280 H   0  0  0  0  0  0  0  0  0  0  0  0
   19.9010   15.1964   23.1220 C   0  0  0  0  0  0  0  0  0  0  0  0
   19.5516   14.2743   22.6397 H   0  0  0  0  0  0  0  0  0  0  0  0
   19.4896   15.2209   24.1396 H   0  0  0  0  0  0  0  0  0  0  0  0
   20.9950   15.1437   23.1967 H   0  0  0  0  0  0  0  0  0  0  0  0
  1  2  1  0  0  0  0
  1  3  1  0  0  0  0
  1  4  1  0  0  0  0
  1  5  1  0  0  0  0
  5  6  1  0  0  0  0
  5  7  1  0  0  0  0
  5  8  1  0  0  0  0
  8  9  1  0  0  0  0
  8 10  1  0  0  0  0
  8 11  1  0  0  0  0
 11 12  1  0  0  0  0
 11 13  1  0  0  0  0
 11 14  1  0  0  0  0
 14 15  1  0  0  0  0
 14 16  1  0  0  0  0
 14 17  1  0  0  0  0
 17 18  1  0  0  0  0
 17 19  1  0  0  0  0
 17 20  1  0  0  0  0
 20 21  1  0  0  0  0
 20 22  1  0  0  0  0
 20 23  1  0  0  0  0
M  END
> <VConfSearch Rank>
193

> <Conf_Id>
40

> <Delta U+W>
0.000

> <U+W>
-8.382

> <U>
46.604

> <W>
-54.986

> <W(PB)>
-57.162

> <W(SA)>
2.176

> <Valence>
1.727

> <Coulomb>
44.434

> <VdW>
0.443

> <VdW6>
-4.623

> <VdW12>
5.066

> <Bond>
0.112

> <Angle>
0.386

> <Pdih>
1.228

> <Idih>
0.000

> <Tether>
0.000

$$$$
VeraChem MOL file


 23 22  0  0  0  0  0  0  0  0999 V2000     
   22.7827   20.5165   21.4156 N   0  3  0  0  0  0  0  0  0  0  0  0
   23.3904   19.8060   20.9950 H   0  0  0  0  0  0  0  0  0  0  0  0
   23.1790   20.7478   22.3322 H   0  0  0  0  0  0  0  0  0  0  0  0
   22.8628   21.3583   20.8351 H   0  0  0  0  0  0  0  0  0  0  0  0
   21.3480   20.0414   21.5234 C   0  0  0  0  0  0  0  0  0  0  0  0
   20.9819   19.8413   20.5128 H   0  0  0  0  0  0  0  0  0  0  0  0
   20.7567   20.8562   21.9488 H   0  0  0  0  0  0  0  0  0  0  0  0
   21.1947   18.7768   22.3897 C   0  0  0  0  0  0  0  0  0  0  0  0
   21.8309   17.9821   21.9776 H   0  0  0  0  0  0  0  0  0  0  0  0
   21.5612   18.9775   23.4052 H   0  0  0  0  0  0  0  0  0  0  0  0
   19.7356   18.2667   22.4547 C   0  0  0  0  0  0  0  0  0  0  0  0
   19.7305   17.3085   22.9901 H   0  0  0  0  0  0  0  0  0  0  0  0
   19.3750   18.0576   21.4380 H   0  0  0  0  0  0  0  0  0  0  0  0
   18.7749   19.2598   23.1571 C   0  0  0  0  0  0  0  0  0  0  0  0
   19.1245   19.4524   24.1807 H   0  0  0  0  0  0  0  0  0  0  0  0
   18.7992   20.2257   22.6355 H   0  0  0  0  0  0  0  0  0  0  0  0
   17.3062   18.7721   23.1970 C   0  0  0  0  0  0  0  0  0  0  0  0
   16.9475   18.5878   22.1746 H   0  0  0  0  0  0  0  0  0  0  0  0
   16.6786   19.5786   23.6016 H   0  0  0  0  0  0  0  0  0  0  0  0
   17.1002   17.5044   24.0571 C   0  0  0  0  0  0  0  0  0  0  0  0
   17.6075   16.6343   23.6224 H   0  0  0  0  0  0  0  0  0  0  0  0
   16.0327   17.2598   24.1307 H   0  0  0  0  0  0  0  0  0  0  0  0
   17.4813   17.6520   25.0760 H   0  0  0  0  0  0  0  0  0  0  0  0
  1  2  1  0  0  0  0
  1  3  1  0  0  0  0
  1  4  1  0  0  0  0
  1  5  1  0  0  0  0
  5  6  1  0  0  0  0
  5  7  1  0  0  0  0
  5  8  1  0  0  0  0
  8  9  1  0  0  0  0
  8 10  1  0  0  0  0
  8 11  1  0  0  0  0
 11 12  1  0  0  0  0
 11 13  1  0  0  0  0
 11 14  1  0  0  0  0
 14 15  1  0  0  0  0
 14 16  1  0  0  0  0
 14 17  1  0  0  0  0
 17 18  1  0  0  0  0
 17 19  1  0  0  0  0
 17 20  1  0  0  0  0
 20 21  1  0  0  0  0
 20 22  1  0  0  0  0
 20 23  1  0  0  0  0
M  END
> <VConfSearch Rank>
194

> <Conf_Id>
65

> <Delta U+W>
1.004

> <U+W>
-7.378

> <U>
48.047

> <W>
-55.425

> <W(PB)>
-57.542

> <W(SA)>
2.116

> <Valence>
2.583

> <Coulomb>
44.791

> <VdW>
0.673

> <VdW6>
-5.788

> <VdW12>
6.462

> <Bond>
0.177

> <Angle>
0.787

> <Pdih>
1.619

> <Idih>
0.000

> <Tether>
0.000

$$$$
VeraChem MOL file


 23 22  0  0  0  0  0  0  0  0999 V2000     
   23.1958   19.8817   22.0817 N   0  3  0  0  0  0  0  0  0  0  0  0
   23.7347   19.0512   21.8158 H   0  0  0  0  0  0  0  0  0  0  0  0
   23.7926   20.4373   22.7039 H   0  0  0  0  0  0  0  0  0  0  0  0
   23.0557   20.4354   21.2305 H   0  0  0  0  0  0  0  0  0  0  0  0
   21.8816   19.5157   22.7410 C   0  0  0  0  0  0  0  0  0  0  0  0
   21.3790   20.4442   23.0236 H   0  0  0  0  0  0  0  0  0  0  0  0
   22.1058   18.9544   23.6521 H   0  0  0  0  0  0  0  0  0  0  0  0
   20.9621   18.6797   21.8306 C   0  0  0  0  0  0  0  0  0  0  0  0
   20.7356   19.2436   20.9158 H   0  0  0  0  0  0  0  0  0  0  0  0
   21.4978   17.7740   21.5166 H   0  0  0  0  0  0  0  0  0  0  0  0
   19.6437   18.2658   22.5263 C   0  0  0  0  0  0  0  0  0  0  0  0
   19.8734   17.6935   23.4357 H   0  0  0  0  0  0  0  0  0  0  0  0
   19.1022   17.5839   21.8578 H   0  0  0  0  0  0  0  0  0  0  0  0
   18.7386   19.4729   22.8818 C   0  0  0  0  0  0  0  0  0  0  0  0
   19.2894   20.1666   23.5305 H   0  0  0  0  0  0  0  0  0  0  0  0
   18.4922   20.0328   21.9690 H   0  0  0  0  0  0  0  0  0  0  0  0
   17.4322   19.0702   23.6082 C   0  0  0  0  0  0  0  0  0  0  0  0
   16.9105   19.9839   23.9259 H   0  0  0  0  0  0  0  0  0  0  0  0
   17.6728   18.5187   24.5278 H   0  0  0  0  0  0  0  0  0  0  0  0
   16.4735   18.2304   22.7334 C   0  0  0  0  0  0  0  0  0  0  0  0
   16.9009   17.2492   22.4930 H   0  0  0  0  0  0  0  0  0  0  0  0
   16.2436   18.7462   21.7921 H   0  0  0  0  0  0  0  0  0  0  0  0
   15.5264   18.0564   23.2603 H   0  0  0  0  0  0  0  0  0  0  0  0
  1  2  1  0  0  0  0
  1  3  1  0  0  0  0
  1  4  1  0  0  0  0
  1  5  1  0  0  0  0
  5  6  1  0  0  0  0
  5  7  1  0  0  0  0
  5  8  1  0  0  0  0
  8  9  1  0  0  0  0
  8 10  1  0  0  0  0
  8 11  1  0  0  0  0
 11 12  1  0  0  0  0
 11 13  1  0  0  0  0
 11 14  1  0  0  0  0
 14 15  1  0  0  0  0
 14 16  1  0  0  0  0
 14 17  1  0  0  0  0
 17 18  1  0  0  0  0
 17 19  1  0  0  0  0
 17 20  1  0  0  0  0
 20 21  1  0  0  0  0
 20 22  1  0  0  0  0
 20 23  1  0  0  0  0
M  END
> <VConfSearch Rank>
195

> <Conf_Id>
92

> <Delta U+W>
0.973

> <U+W>
-7.409

> <U>
48.047

> <W>
-55.456

> <W(PB)>
-57.595

> <W(SA)>
2.138

> <Valence>
2.583

> <Coulomb>
44.791

> <VdW>
0.674

> <VdW6>
-5.789

> <VdW12>
6.462

> <Bond>
0.177

> <Angle>
0.787

> <Pdih>
1.619

> <Idih>
0.000

> <Tether>
0.000

$$$$
VeraChem MOL file


 23 22  0  0  0  0  0  0  0  0999 V2000     
   20.8618   16.0256   20.9978 N   0  3  0  0  0  0  0  0  0  0  0  0
   21.8298   15.9320   20.6717 H   0  0  0  0  0  0  0  0  0  0  0  0
   20.2603   15.6566   20.2542 H   0  0  0  0  0  0  0  0  0  0  0  0
   20.7581   15.4035   21.8059 H   0  0  0  0  0  0  0  0  0  0  0  0
   20.5197   17.4611   21.3416 C   0  0  0  0  0  0  0  0  0  0  0  0
   20.6791   18.0696   20.4474 H   0  0  0  0  0  0  0  0  0  0  0  0
   21.2165   17.7957   22.1144 H   0  0  0  0  0  0  0  0  0  0  0  0
   19.0708   17.6346   21.8349 C   0  0  0  0  0  0  0  0  0  0  0  0
   18.3829   17.2539   21.0682 H   0  0  0  0  0  0  0  0  0  0  0  0
   18.9106   17.0227   22.7326 H   0  0  0  0  0  0  0  0  0  0  0  0
   18.7155   19.1089   22.1403 C   0  0  0  0  0  0  0  0  0  0  0  0
   17.6483   19.1684   22.3951 H   0  0  0  0  0  0  0  0  0  0  0  0
   18.8522   19.7141   21.2333 H   0  0  0  0  0  0  0  0  0  0  0  0
   19.5491   19.7079   23.2986 C   0  0  0  0  0  0  0  0  0  0  0  0
   19.4362   19.0817   24.1945 H   0  0  0  0  0  0  0  0  0  0  0  0
   20.6157   19.6999   23.0371 H   0  0  0  0  0  0  0  0  0  0  0  0
   19.1193   21.1552   23.6261 C   0  0  0  0  0  0  0  0  0  0  0  0
   18.0545   21.1741   23.8977 H   0  0  0  0  0  0  0  0  0  0  0  0
   19.2296   21.7861   22.7329 H   0  0  0  0  0  0  0  0  0  0  0  0
   19.9522   21.7521   24.7804 C   0  0  0  0  0  0  0  0  0  0  0  0
   19.8355   21.1610   25.6982 H   0  0  0  0  0  0  0  0  0  0  0  0
   19.6322   22.7793   24.9985 H   0  0  0  0  0  0  0  0  0  0  0  0
   21.0195   21.7790   24.5245 H   0  0  0  0  0  0  0  0  0  0  0  0
  1  2  1  0  0  0  0
  1  3  1  0  0  0  0
  1  4  1  0  0  0  0
  1  5  1  0  0  0  0
  5  6  1  0  0  0  0
  5  7  1  0  0  0  0
  5  8  1  0  0  0  0
  8  9  1  0  0  0  0
  8 10  1  0  0  0  0
  8 11  1  0  0  0  0
 11 12  1  0  0  0  0
 11 13  1  0  0  0  0
 11 14  1  0  0  0  0
 14 15  1  0  0  0  0
 14 16  1  0  0  0  0
 14 17  1  0  0  0  0
 17 18  1  0  0  0  0
 17 19  1  0  0  0  0
 17 20  1  0  0  0  0
 20 21  1  0  0  0  0
 20 22  1  0  0  0  0
 20 23  1  0  0  0  0
M  END
> <VConfSearch Rank>
196

> <Conf_Id>
42

> <Delta U+W>
0.365

> <U+W>
-8.017

> <U>
47.375

> <W>
-55.392

> <W(PB)>
-57.543

> <W(SA)>
2.152

> <Valence>
2.032

> <Coulomb>
44.843

> <VdW>
0.499

> <VdW6>
-5.218

> <VdW12>
5.717

> <Bond>
0.135

> <Angle>
0.514

> <Pdih>
1.383

> <Idih>
0.000

> <Tether>
0.000

$$$$
VeraChem MOL file


 23 22  0  0  0  0  0  0  0  0999 V2000     
   18.4961   21.6993   21.5496 N   0  3  0  0  0  0  0  0  0  0  0  0
   18.0016   21.8852   22.4279 H   0  0  0  0  0  0  0  0  0  0  0  0
   18.0719   22.3002   20.8349 H   0  0  0  0  0  0  0  0  0  0  0  0
   19.4621   22.0175   21.6726 H   0  0  0  0  0  0  0  0  0  0  0  0
   18.4297   20.2341   21.1643 C   0  0  0  0  0  0  0  0  0  0  0  0
   18.9524   20.1086   20.2123 H   0  0  0  0  0  0  0  0  0  0  0  0
   17.3772   19.9808   21.0106 H   0  0  0  0  0  0  0  0  0  0  0  0
   19.0335   19.2844   22.2172 C   0  0  0  0  0  0  0  0  0  0  0  0
   18.5255   19.4319   23.1794 H   0  0  0  0  0  0  0  0  0  0  0  0
   18.8249   18.2556   21.8992 H   0  0  0  0  0  0  0  0  0  0  0  0
   20.5611   19.4711   22.3857 C   0  0  0  0  0  0  0  0  0  0  0  0
   20.7787   20.5252   22.6019 H   0  0  0  0  0  0  0  0  0  0  0  0
   21.0624   19.2446   21.4345 H   0  0  0  0  0  0  0  0  0  0  0  0
   21.1893   18.6138   23.5151 C   0  0  0  0  0  0  0  0  0  0  0  0
   22.2578   18.8654   23.5647 H   0  0  0  0  0  0  0  0  0  0  0  0
   20.7720   18.9070   24.4883 H   0  0  0  0  0  0  0  0  0  0  0  0
   21.0641   17.0809   23.3177 C   0  0  0  0  0  0  0  0  0  0  0  0
   21.9778   16.6031   23.6985 H   0  0  0  0  0  0  0  0  0  0  0  0
   21.0193   16.8355   22.2475 H   0  0  0  0  0  0  0  0  0  0  0  0
   19.8580   16.4626   24.0628 C   0  0  0  0  0  0  0  0  0  0  0  0
   19.9339   16.6382   25.1438 H   0  0  0  0  0  0  0  0  0  0  0  0
   19.8241   15.3770   23.9040 H   0  0  0  0  0  0  0  0  0  0  0  0
   18.9038   16.8780   23.7206 H   0  0  0  0  0  0  0  0  0  0  0  0
  1  2  1  0  0  0  0
  1  3  1  0  0  0  0
  1  4  1  0  0  0  0
  1  5  1  0  0  0  0
  5  6  1  0  0  0  0
  5  7  1  0  0  0  0
  5  8  1  0  0  0  0
  8  9  1  0  0  0  0
  8 10  1  0  0  0  0
  8 11  1  0  0  0  0
 11 12  1  0  0  0  0
 11 13  1  0  0  0  0
 11 14  1  0  0  0  0
 14 15  1  0  0  0  0
 14 16  1  0  0  0  0
 14 17  1  0  0  0  0
 17 18  1  0  0  0  0
 17 19  1  0  0  0  0
 17 20  1  0  0  0  0
 20 21  1  0  0  0  0
 20 22  1  0  0  0  0
 20 23  1  0  0  0  0
M  END
> <VConfSearch Rank>
197

> <Conf_Id>
3

> <Delta U+W>
3.283

> <U+W>
-5.099

> <U>
50.701

> <W>
-55.800

> <W(PB)>
-57.867

> <W(SA)>
2.067

> <Valence>
4.880

> <Coulomb>
45.095

> <VdW>
0.726

> <VdW6>
-6.620

> <VdW12>
7.346

> <Bond>
0.222

> <Angle>
1.260

> <Pdih>
3.398

> <Idih>
0.000

> <Tether>
0.000

$$$$
VeraChem MOL file


 23 22  0  0  0  0  0  0  0  0999 V2000     
   18.5249   17.3963   20.5684 N   0  3  0  0  0  0  0  0  0  0  0  0
   18.6149   16.3920   20.7521 H   0  0  0  0  0  0  0  0  0  0  0  0
   17.9565   17.4957   19.7205 H   0  0  0  0  0  0  0  0  0  0  0  0
   17.9858   17.7989   21.3410 H   0  0  0  0  0  0  0  0  0  0  0  0
   19.8774   18.0654   20.4217 C   0  0  0  0  0  0  0  0  0  0  0  0
   19.7106   19.1220   20.1978 H   0  0  0  0  0  0  0  0  0  0  0  0
   20.3807   17.6132   19.5628 H   0  0  0  0  0  0  0  0  0  0  0  0
   20.7747   17.9301   21.6690 C   0  0  0  0  0  0  0  0  0  0  0  0
   20.9759   16.8661   21.8512 H   0  0  0  0  0  0  0  0  0  0  0  0
   21.7474   18.3925   21.4550 H   0  0  0  0  0  0  0  0  0  0  0  0
   20.1792   18.5644   22.9515 C   0  0  0  0  0  0  0  0  0  0  0  0
   20.8753   18.3751   23.7788 H   0  0  0  0  0  0  0  0  0  0  0  0
   19.2421   18.0582   23.2188 H   0  0  0  0  0  0  0  0  0  0  0  0
   19.9329   20.0890   22.8203 C   0  0  0  0  0  0  0  0  0  0  0  0
   20.8770   20.5972   22.5801 H   0  0  0  0  0  0  0  0  0  0  0  0
   19.2558   20.2812   21.9777 H   0  0  0  0  0  0  0  0  0  0  0  0
   19.3133   20.7244   24.0887 C   0  0  0  0  0  0  0  0  0  0  0  0
   18.3628   20.2271   24.3277 H   0  0  0  0  0  0  0  0  0  0  0  0
   19.0648   21.7727   23.8713 H   0  0  0  0  0  0  0  0  0  0  0  0
   20.2471   20.6809   25.3197 C   0  0  0  0  0  0  0  0  0  0  0  0
   21.2175   21.1428   25.0959 H   0  0  0  0  0  0  0  0  0  0  0  0
   20.4248   19.6521   25.6561 H   0  0  0  0  0  0  0  0  0  0  0  0
   19.8007   21.2290   26.1595 H   0  0  0  0  0  0  0  0  0  0  0  0
  1  2  1  0  0  0  0
  1  3  1  0  0  0  0
  1  4  1  0  0  0  0
  1  5  1  0  0  0  0
  5  6  1  0  0  0  0
  5  7  1  0  0  0  0
  5  8  1  0  0  0  0
  8  9  1  0  0  0  0
  8 10  1  0  0  0  0
  8 11  1  0  0  0  0
 11 12  1  0  0  0  0
 11 13  1  0  0  0  0
 11 14  1  0  0  0  0
 14 15  1  0  0  0  0
 14 16  1  0  0  0  0
 14 17  1  0  0  0  0
 17 18  1  0  0  0  0
 17 19  1  0  0  0  0
 17 20  1  0  0  0  0
 20 21  1  0  0  0  0
 20 22  1  0  0  0  0
 20 23  1  0  0  0  0
M  END
> <VConfSearch Rank>
198

> <Conf_Id>
83

> <Delta U+W>
1.229

> <U+W>
-7.154

> <U>
48.727

> <W>
-55.880

> <W(PB)>
-57.960

> <W(SA)>
2.080

> <Valence>
2.671

> <Coulomb>
45.371

> <VdW>
0.684

> <VdW6>
-6.511

> <VdW12>
7.195

> <Bond>
0.203

> <Angle>
0.915

> <Pdih>
1.554

> <Idih>
0.000

> <Tether>
0.000

$$$$
VeraChem MOL file


 23 22  0  0  0  0  0  0  0  0999 V2000     
   19.9857   21.6838   21.4228 N   0  3  0  0  0  0  0  0  0  0  0  0
   19.7424   21.7238   20.4279 H   0  0  0  0  0  0  0  0  0  0  0  0
   20.7934   21.0600   21.5126 H   0  0  0  0  0  0  0  0  0  0  0  0
   20.2986   22.6225   21.6924 H   0  0  0  0  0  0  0  0  0  0  0  0
   18.8191   21.2139   22.2693 C   0  0  0  0  0  0  0  0  0  0  0  0
   18.0100   21.9402   22.1529 H   0  0  0  0  0  0  0  0  0  0  0  0
   19.1338   21.2235   23.3158 H   0  0  0  0  0  0  0  0  0  0  0  0
   18.3039   19.8102   21.8907 C   0  0  0  0  0  0  0  0  0  0  0  0
   17.4302   19.5758   22.5134 H   0  0  0  0  0  0  0  0  0  0  0  0
   17.9434   19.8291   20.8536 H   0  0  0  0  0  0  0  0  0  0  0  0
   19.3573   18.6841   22.0449 C   0  0  0  0  0  0  0  0  0  0  0  0
   20.2034   18.8683   21.3695 H   0  0  0  0  0  0  0  0  0  0  0  0
   18.9002   17.7433   21.7121 H   0  0  0  0  0  0  0  0  0  0  0  0
   19.8714   18.5245   23.4984 C   0  0  0  0  0  0  0  0  0  0  0  0
   20.3071   19.4723   23.8407 H   0  0  0  0  0  0  0  0  0  0  0  0
   19.0269   18.3126   24.1686 H   0  0  0  0  0  0  0  0  0  0  0  0
   20.9439   17.4191   23.6546 C   0  0  0  0  0  0  0  0  0  0  0  0
   21.3355   17.4516   24.6809 H   0  0  0  0  0  0  0  0  0  0  0  0
   21.7962   17.6315   22.9942 H   0  0  0  0  0  0  0  0  0  0  0  0
   20.4092   15.9964   23.3727 C   0  0  0  0  0  0  0  0  0  0  0  0
   19.5351   15.7719   23.9977 H   0  0  0  0  0  0  0  0  0  0  0  0
   21.1799   15.2463   23.5923 H   0  0  0  0  0  0  0  0  0  0  0  0
   20.1214   15.8738   22.3213 H   0  0  0  0  0  0  0  0  0  0  0  0
  1  2  1  0  0  0  0
  1  3  1  0  0  0  0
  1  4  1  0  0  0  0
  1  5  1  0  0  0  0
  5  6  1  0  0  0  0
  5  7  1  0  0  0  0
  5  8  1  0  0  0  0
  8  9  1  0  0  0  0
  8 10  1  0  0  0  0
  8 11  1  0  0  0  0
 11 12  1  0  0  0  0
 11 13  1  0  0  0  0
 11 14  1  0  0  0  0
 14 15  1  0  0  0  0
 14 16  1  0  0  0  0
 14 17  1  0  0  0  0
 17 18  1  0  0  0  0
 17 19  1  0  0  0  0
 17 20  1  0  0  0  0
 20 21  1  0  0  0  0
 20 22  1  0  0  0  0
 20 23  1  0  0  0  0
M  END
> <VConfSearch Rank>
199

> <Conf_Id>
50

> <Delta U+W>
1.252

> <U+W>
-7.130

> <U>
48.727

> <W>
-55.857

> <W(PB)>
-57.937

> <W(SA)>
2.080

> <Valence>
2.671

> <Coulomb>
45.371

> <VdW>
0.684

> <VdW6>
-6.511

> <VdW12>
7.196

> <Bond>
0.203

> <Angle>
0.915

> <Pdih>
1.554

> <Idih>
0.000

> <Tether>
0.000

$$$$
VeraChem MOL file


 23 22  0  0  0  0  0  0  0  0999 V2000     
   17.4215   20.4490   21.0399 N   0  3  0  0  0  0  0  0  0  0  0  0
   17.0356   20.3653   21.9852 H   0  0  0  0  0  0  0  0  0  0  0  0
   16.6404   20.3303   20.3859 H   0  0  0  0  0  0  0  0  0  0  0  0
   17.7566   21.4118   20.9333 H   0  0  0  0  0  0  0  0  0  0  0  0
   18.5233   19.4376   20.7901 C   0  0  0  0  0  0  0  0  0  0  0  0
   18.8556   19.5586   19.7554 H   0  0  0  0  0  0  0  0  0  0  0  0
   18.0956   18.4369   20.8954 H   0  0  0  0  0  0  0  0  0  0  0  0
   19.7313   19.5871   21.7351 C   0  0  0  0  0  0  0  0  0  0  0  0
   20.5115   18.8913   21.4065 H   0  0  0  0  0  0  0  0  0  0  0  0
   20.1540   20.5950   21.6294 H   0  0  0  0  0  0  0  0  0  0  0  0
   19.3659   19.3222   23.2180 C   0  0  0  0  0  0  0  0  0  0  0  0
   18.8555   18.3544   23.3192 H   0  0  0  0  0  0  0  0  0  0  0  0
   18.6425   20.0832   23.5401 H   0  0  0  0  0  0  0  0  0  0  0  0
   20.5870   19.3814   24.1726 C   0  0  0  0  0  0  0  0  0  0  0  0
   21.3468   20.0703   23.7783 H   0  0  0  0  0  0  0  0  0  0  0  0
   20.2564   19.8198   25.1245 H   0  0  0  0  0  0  0  0  0  0  0  0
   21.2279   18.0063   24.4913 C   0  0  0  0  0  0  0  0  0  0  0  0
   20.4862   17.3584   24.9789 H   0  0  0  0  0  0  0  0  0  0  0  0
   22.0296   18.1578   25.2276 H   0  0  0  0  0  0  0  0  0  0  0  0
   21.8155   17.2775   23.2631 C   0  0  0  0  0  0  0  0  0  0  0  0
   22.5185   17.9214   22.7190 H   0  0  0  0  0  0  0  0  0  0  0  0
   21.0250   16.9595   22.5723 H   0  0  0  0  0  0  0  0  0  0  0  0
   22.3589   16.3765   23.5757 H   0  0  0  0  0  0  0  0  0  0  0  0
  1  2  1  0  0  0  0
  1  3  1  0  0  0  0
  1  4  1  0  0  0  0
  1  5  1  0  0  0  0
  5  6  1  0  0  0  0
  5  7  1  0  0  0  0
  5  8  1  0  0  0  0
  8  9  1  0  0  0  0
  8 10  1  0  0  0  0
  8 11  1  0  0  0  0
 11 12  1  0  0  0  0
 11 13  1  0  0  0  0
 11 14  1  0  0  0  0
 14 15  1  0  0  0  0
 14 16  1  0  0  0  0
 14 17  1  0  0  0  0
 17 18  1  0  0  0  0
 17 19  1  0  0  0  0
 17 20  1  0  0  0  0
 20 21  1  0  0  0  0
 20 22  1  0  0  0  0
 20 23  1  0  0  0  0
M  END
> <VConfSearch Rank>
200

> <Conf_Id>
55

> <Delta U+W>
3.232

> <U+W>
-5.150

> <U>
50.625

> <W>
-55.776

> <W(PB)>
-57.839

> <W(SA)>
2.064

> <Valence>
4.837

> <Coulomb>
45.097

> <VdW>
0.692

> <VdW6>
-6.655

> <VdW12>
7.347

> <Bond>
0.223

> <Angle>
1.167

> <Pdih>
3.447

> <Idih>
0.000

> <Tether>
0.000

$$$$
VeraChem MOL file


 23 22  0  0  0  0  0  0  0  0999 V2000     
   18.8471   18.6581   25.5522 N   0  3  0  0  0  0  0  0  0  0  0  0
   18.6490   19.4564   26.1640 H   0  0  0  0  0  0  0  0  0  0  0  0
   19.2312   17.9157   26.1467 H   0  0  0  0  0  0  0  0  0  0  0  0
   17.9469   18.3199   25.1971 H   0  0  0  0  0  0  0  0  0  0  0  0
   19.7952   19.0280   24.4298 C   0  0  0  0  0  0  0  0  0  0  0  0
   19.9877   18.1265   23.8453 H   0  0  0  0  0  0  0  0  0  0  0  0
   20.7384   19.3504   24.8792 H   0  0  0  0  0  0  0  0  0  0  0  0
   19.2474   20.1474   23.5228 C   0  0  0  0  0  0  0  0  0  0  0  0
   18.2765   19.8562   23.1004 H   0  0  0  0  0  0  0  0  0  0  0  0
   19.0611   21.0310   24.1476 H   0  0  0  0  0  0  0  0  0  0  0  0
   20.2251   20.5438   22.3877 C   0  0  0  0  0  0  0  0  0  0  0  0
   21.2605   20.5119   22.7546 H   0  0  0  0  0  0  0  0  0  0  0  0
   20.0356   21.5938   22.1250 H   0  0  0  0  0  0  0  0  0  0  0  0
   20.0938   19.7065   21.0888 C   0  0  0  0  0  0  0  0  0  0  0  0
   19.0838   19.8302   20.6743 H   0  0  0  0  0  0  0  0  0  0  0  0
   20.7825   20.1250   20.3417 H   0  0  0  0  0  0  0  0  0  0  0  0
   20.3968   18.2001   21.2600 C   0  0  0  0  0  0  0  0  0  0  0  0
   19.6229   17.7314   21.8815 H   0  0  0  0  0  0  0  0  0  0  0  0
   21.3565   18.0682   21.7789 H   0  0  0  0  0  0  0  0  0  0  0  0
   20.4457   17.4712   19.9003 C   0  0  0  0  0  0  0  0  0  0  0  0
   21.2355   17.8834   19.2587 H   0  0  0  0  0  0  0  0  0  0  0  0
   19.4898   17.5639   19.3683 H   0  0  0  0  0  0  0  0  0  0  0  0
   20.6507   16.4019   20.0409 H   0  0  0  0  0  0  0  0  0  0  0  0
  1  2  1  0  0  0  0
  1  3  1  0  0  0  0
  1  4  1  0  0  0  0
  1  5  1  0  0  0  0
  5  6  1  0  0  0  0
  5  7  1  0  0  0  0
  5  8  1  0  0  0  0
  8  9  1  0  0  0  0
  8 10  1  0  0  0  0
  8 11  1  0  0  0  0
 11 12  1  0  0  0  0
 11 13  1  0  0  0  0
 11 14  1  0  0  0  0
 14 15  1  0  0  0  0
 14 16  1  0  0  0  0
 14 17  1  0  0  0  0
 17 18  1  0  0  0  0
 17 19  1  0  0  0  0
 17 20  1  0  0  0  0
 20 21  1  0  0  0  0
 20 22  1  0  0  0  0
 20 23  1  0  0  0  0
M  END
> <VConfSearch Rank>
201

> <Conf_Id>
93

> <Delta U+W>
2.589

> <U+W>
-5.793

> <U>
50.122

> <W>
-55.915

> <W(PB)>
-58.031

> <W(SA)>
2.115

> <Valence>
4.132

> <Coulomb>
45.536

> <VdW>
0.454

> <VdW6>
-6.262

> <VdW12>
6.715

> <Bond>
0.182

> <Angle>
1.157

> <Pdih>
2.794

> <Idih>
0.000

> <Tether>
0.000

$$$$
VeraChem MOL file


 23 22  0  0  0  0  0  0  0  0999 V2000     
   20.1095   20.2815   19.7776 N   0  3  0  0  0  0  0  0  0  0  0  0
   20.6867   19.4827   19.4956 H   0  0  0  0  0  0  0  0  0  0  0  0
   20.6888   21.1210   19.6697 H   0  0  0  0  0  0  0  0  0  0  0  0
   19.3466   20.3571   19.0970 H   0  0  0  0  0  0  0  0  0  0  0  0
   19.5909   20.1330   21.1934 C   0  0  0  0  0  0  0  0  0  0  0  0
   19.0117   21.0284   21.4347 H   0  0  0  0  0  0  0  0  0  0  0  0
   20.4529   20.0953   21.8619 H   0  0  0  0  0  0  0  0  0  0  0  0
   18.7101   18.8826   21.3843 C   0  0  0  0  0  0  0  0  0  0  0  0
   17.8610   18.9555   20.6918 H   0  0  0  0  0  0  0  0  0  0  0  0
   19.2642   17.9778   21.1011 H   0  0  0  0  0  0  0  0  0  0  0  0
   18.1594   18.7408   22.8259 C   0  0  0  0  0  0  0  0  0  0  0  0
   17.2113   18.1875   22.7763 H   0  0  0  0  0  0  0  0  0  0  0  0
   17.9047   19.7303   23.2305 H   0  0  0  0  0  0  0  0  0  0  0  0
   19.0897   17.9856   23.8105 C   0  0  0  0  0  0  0  0  0  0  0  0
   18.5637   17.8878   24.7703 H   0  0  0  0  0  0  0  0  0  0  0  0
   19.2527   16.9614   23.4474 H   0  0  0  0  0  0  0  0  0  0  0  0
   20.4562   18.6659   24.0558 C   0  0  0  0  0  0  0  0  0  0  0  0
   20.3067   19.7248   24.3089 H   0  0  0  0  0  0  0  0  0  0  0  0
   21.0607   18.6316   23.1402 H   0  0  0  0  0  0  0  0  0  0  0  0
   21.2408   17.9742   25.1910 C   0  0  0  0  0  0  0  0  0  0  0  0
   22.2120   18.4625   25.3443 H   0  0  0  0  0  0  0  0  0  0  0  0
   21.4280   16.9186   24.9549 H   0  0  0  0  0  0  0  0  0  0  0  0
   20.6883   18.0199   26.1386 H   0  0  0  0  0  0  0  0  0  0  0  0
  1  2  1  0  0  0  0
  1  3  1  0  0  0  0
  1  4  1  0  0  0  0
  1  5  1  0  0  0  0
  5  6  1  0  0  0  0
  5  7  1  0  0  0  0
  5  8  1  0  0  0  0
  8  9  1  0  0  0  0
  8 10  1  0  0  0  0
  8 11  1  0  0  0  0
 11 12  1  0  0  0  0
 11 13  1  0  0  0  0
 11 14  1  0  0  0  0
 14 15  1  0  0  0  0
 14 16  1  0  0  0  0
 14 17  1  0  0  0  0
 17 18  1  0  0  0  0
 17 19  1  0  0  0  0
 17 20  1  0  0  0  0
 20 21  1  0  0  0  0
 20 22  1  0  0  0  0
 20 23  1  0  0  0  0
M  END
> <VConfSearch Rank>
202

> <Conf_Id>
70

> <Delta U+W>
2.599

> <U+W>
-5.783

> <U>
50.122

> <W>
-55.906

> <W(PB)>
-58.010

> <W(SA)>
2.105

> <Valence>
4.132

> <Coulomb>
45.536

> <VdW>
0.454

> <VdW6>
-6.262

> <VdW12>
6.715

> <Bond>
0.182

> <Angle>
1.157

> <Pdih>
2.794

> <Idih>
0.000

> <Tether>
0.000

$$$$
VeraChem MOL file


 23 22  0  0  0  0  0  0  0  0999 V2000     
   20.6600   20.6571   20.4489 N   0  3  0  0  0  0  0  0  0  0  0  0
   21.3503   21.4095   20.5380 H   0  0  0  0  0  0  0  0  0  0  0  0
   20.2096   20.7708   19.5346 H   0  0  0  0  0  0  0  0  0  0  0  0
   21.1772   19.7732   20.4223 H   0  0  0  0  0  0  0  0  0  0  0  0
   19.6519   20.6814   21.5809 C   0  0  0  0  0  0  0  0  0  0  0  0
   18.9288   19.8798   21.4091 H   0  0  0  0  0  0  0  0  0  0  0  0
   19.1196   21.6352   21.5325 H   0  0  0  0  0  0  0  0  0  0  0  0
   20.2864   20.5191   22.9770 C   0  0  0  0  0  0  0  0  0  0  0  0
   20.9847   21.3482   23.1524 H   0  0  0  0  0  0  0  0  0  0  0  0
   19.5017   20.6237   23.7370 H   0  0  0  0  0  0  0  0  0  0  0  0
   21.0322   19.1736   23.1779 C   0  0  0  0  0  0  0  0  0  0  0  0
   21.4137   19.1307   24.2074 H   0  0  0  0  0  0  0  0  0  0  0  0
   21.9200   19.1518   22.5318 H   0  0  0  0  0  0  0  0  0  0  0  0
   20.1808   17.9074   22.9010 C   0  0  0  0  0  0  0  0  0  0  0  0
   19.8685   17.8858   21.8484 H   0  0  0  0  0  0  0  0  0  0  0  0
   20.8175   17.0237   23.0456 H   0  0  0  0  0  0  0  0  0  0  0  0
   18.9387   17.7859   23.8150 C   0  0  0  0  0  0  0  0  0  0  0  0
   18.2525   18.6243   23.6351 H   0  0  0  0  0  0  0  0  0  0  0  0
   19.2460   17.8457   24.8684 H   0  0  0  0  0  0  0  0  0  0  0  0
   18.1837   16.4610   23.5762 C   0  0  0  0  0  0  0  0  0  0  0  0
   17.3048   16.3924   24.2303 H   0  0  0  0  0  0  0  0  0  0  0  0
   18.8270   15.5964   23.7852 H   0  0  0  0  0  0  0  0  0  0  0  0
   17.8371   16.3861   22.5372 H   0  0  0  0  0  0  0  0  0  0  0  0
  1  2  1  0  0  0  0
  1  3  1  0  0  0  0
  1  4  1  0  0  0  0
  1  5  1  0  0  0  0
  5  6  1  0  0  0  0
  5  7  1  0  0  0  0
  5  8  1  0  0  0  0
  8  9  1  0  0  0  0
  8 10  1  0  0  0  0
  8 11  1  0  0  0  0
 11 12  1  0  0  0  0
 11 13  1  0  0  0  0
 11 14  1  0  0  0  0
 14 15  1  0  0  0  0
 14 16  1  0  0  0  0
 14 17  1  0  0  0  0
 17 18  1  0  0  0  0
 17 19  1  0  0  0  0
 17 20  1  0  0  0  0
 20 21  1  0  0  0  0
 20 22  1  0  0  0  0
 20 23  1  0  0  0  0
M  END
> <VConfSearch Rank>
203

> <Conf_Id>
72

> <Delta U+W>
1.051

> <U+W>
-7.331

> <U>
48.590

> <W>
-55.922

> <W(PB)>
-58.012

> <W(SA)>
2.090

> <Valence>
2.601

> <Coulomb>
45.520

> <VdW>
0.469

> <VdW6>
-6.867

> <VdW12>
7.336

> <Bond>
0.205

> <Angle>
0.962

> <Pdih>
1.434

> <Idih>
0.000

> <Tether>
0.000

$$$$
VeraChem MOL file


 23 22  0  0  0  0  0  0  0  0999 V2000     
   16.8041   20.0103   22.8222 N   0  3  0  0  0  0  0  0  0  0  0  0
   16.3411   20.5303   23.5753 H   0  0  0  0  0  0  0  0  0  0  0  0
   16.0957   19.3987   22.4039 H   0  0  0  0  0  0  0  0  0  0  0  0
   17.0714   20.6949   22.1077 H   0  0  0  0  0  0  0  0  0  0  0  0
   17.9976   19.2273   23.3301 C   0  0  0  0  0  0  0  0  0  0  0  0
   17.6465   18.5405   24.1050 H   0  0  0  0  0  0  0  0  0  0  0  0
   18.6939   19.9352   23.7873 H   0  0  0  0  0  0  0  0  0  0  0  0
   18.7158   18.4344   22.2222 C   0  0  0  0  0  0  0  0  0  0  0  0
   17.9985   17.7537   21.7450 H   0  0  0  0  0  0  0  0  0  0  0  0
   19.0574   19.1214   21.4374 H   0  0  0  0  0  0  0  0  0  0  0  0
   19.9102   17.6066   22.7582 C   0  0  0  0  0  0  0  0  0  0  0  0
   20.3630   17.0500   21.9268 H   0  0  0  0  0  0  0  0  0  0  0  0
   19.5302   16.8441   23.4522 H   0  0  0  0  0  0  0  0  0  0  0  0
   21.0038   18.4355   23.4844 C   0  0  0  0  0  0  0  0  0  0  0  0
   20.5877   18.8580   24.4089 H   0  0  0  0  0  0  0  0  0  0  0  0
   21.8040   17.7546   23.8058 H   0  0  0  0  0  0  0  0  0  0  0  0
   21.6285   19.5803   22.6468 C   0  0  0  0  0  0  0  0  0  0  0  0
   22.3739   20.0999   23.2650 H   0  0  0  0  0  0  0  0  0  0  0  0
   20.8656   20.3314   22.4016 H   0  0  0  0  0  0  0  0  0  0  0  0
   22.3125   19.0888   21.3511 C   0  0  0  0  0  0  0  0  0  0  0  0
   23.0716   18.3269   21.5705 H   0  0  0  0  0  0  0  0  0  0  0  0
   22.8112   19.9221   20.8395 H   0  0  0  0  0  0  0  0  0  0  0  0
   21.5859   18.6585   20.6509 H   0  0  0  0  0  0  0  0  0  0  0  0
  1  2  1  0  0  0  0
  1  3  1  0  0  0  0
  1  4  1  0  0  0  0
  1  5  1  0  0  0  0
  5  6  1  0  0  0  0
  5  7  1  0  0  0  0
  5  8  1  0  0  0  0
  8  9  1  0  0  0  0
  8 10  1  0  0  0  0
  8 11  1  0  0  0  0
 11 12  1  0  0  0  0
 11 13  1  0  0  0  0
 11 14  1  0  0  0  0
 14 15  1  0  0  0  0
 14 16  1  0  0  0  0
 14 17  1  0  0  0  0
 17 18  1  0  0  0  0
 17 19  1  0  0  0  0
 17 20  1  0  0  0  0
 20 21  1  0  0  0  0
 20 22  1  0  0  0  0
 20 23  1  0  0  0  0
M  END
> <VConfSearch Rank>
204

> <Conf_Id>
26

> <Delta U+W>
1.076

> <U+W>
-7.306

> <U>
48.641

> <W>
-55.947

> <W(PB)>
-58.031

> <W(SA)>
2.084

> <Valence>
2.922

> <Coulomb>
45.269

> <VdW>
0.449

> <VdW6>
-7.045

> <VdW12>
7.494

> <Bond>
0.220

> <Angle>
1.205

> <Pdih>
1.497

> <Idih>
0.000

> <Tether>
0.000

$$$$
VeraChem MOL file


 23 22  0  0  0  0  0  0  0  0999 V2000     
   21.4326   21.2786   24.0209 N   0  3  0  0  0  0  0  0  0  0  0  0
   22.2735   21.5857   23.5216 H   0  0  0  0  0  0  0  0  0  0  0  0
   21.5987   21.4515   25.0182 H   0  0  0  0  0  0  0  0  0  0  0  0
   20.6683   21.8985   23.7341 H   0  0  0  0  0  0  0  0  0  0  0  0
   21.1134   19.8229   23.7476 C   0  0  0  0  0  0  0  0  0  0  0  0
   20.2286   19.5575   24.3322 H   0  0  0  0  0  0  0  0  0  0  0  0
   21.9538   19.2202   24.1021 H   0  0  0  0  0  0  0  0  0  0  0  0
   20.8582   19.5299   22.2573 C   0  0  0  0  0  0  0  0  0  0  0  0
   20.0231   20.1441   21.8970 H   0  0  0  0  0  0  0  0  0  0  0  0
   21.7381   19.8346   21.6755 H   0  0  0  0  0  0  0  0  0  0  0  0
   20.5716   18.0327   21.9832 C   0  0  0  0  0  0  0  0  0  0  0  0
   21.4661   17.4479   22.2383 H   0  0  0  0  0  0  0  0  0  0  0  0
   20.4212   17.8875   20.9051 H   0  0  0  0  0  0  0  0  0  0  0  0
   19.3604   17.4484   22.7594 C   0  0  0  0  0  0  0  0  0  0  0  0
   19.2403   16.3930   22.4785 H   0  0  0  0  0  0  0  0  0  0  0  0
   19.5842   17.4434   23.8346 H   0  0  0  0  0  0  0  0  0  0  0  0
   18.0146   18.1825   22.5310 C   0  0  0  0  0  0  0  0  0  0  0  0
   18.0767   19.2141   22.9024 H   0  0  0  0  0  0  0  0  0  0  0  0
   17.2406   17.6911   23.1368 H   0  0  0  0  0  0  0  0  0  0  0  0
   17.5616   18.1861   21.0534 C   0  0  0  0  0  0  0  0  0  0  0  0
   18.2502   18.7622   20.4229 H   0  0  0  0  0  0  0  0  0  0  0  0
   16.5669   18.6402   20.9571 H   0  0  0  0  0  0  0  0  0  0  0  0
   17.5043   17.1645   20.6559 H   0  0  0  0  0  0  0  0  0  0  0  0
  1  2  1  0  0  0  0
  1  3  1  0  0  0  0
  1  4  1  0  0  0  0
  1  5  1  0  0  0  0
  5  6  1  0  0  0  0
  5  7  1  0  0  0  0
  5  8  1  0  0  0  0
  8  9  1  0  0  0  0
  8 10  1  0  0  0  0
  8 11  1  0  0  0  0
 11 12  1  0  0  0  0
 11 13  1  0  0  0  0
 11 14  1  0  0  0  0
 14 15  1  0  0  0  0
 14 16  1  0  0  0  0
 14 17  1  0  0  0  0
 17 18  1  0  0  0  0
 17 19  1  0  0  0  0
 17 20  1  0  0  0  0
 20 21  1  0  0  0  0
 20 22  1  0  0  0  0
 20 23  1  0  0  0  0
M  END
> <VConfSearch Rank>
205

> <Conf_Id>
90

> <Delta U+W>
1.131

> <U+W>
-7.251

> <U>
48.641

> <W>
-55.892

> <W(PB)>
-57.962

> <W(SA)>
2.070

> <Valence>
2.922

> <Coulomb>
45.269

> <VdW>
0.450

> <VdW6>
-7.045

> <VdW12>
7.495

> <Bond>
0.220

> <Angle>
1.205

> <Pdih>
1.497

> <Idih>
0.000

> <Tether>
0.000

$$$$
VeraChem MOL file


 23 22  0  0  0  0  0  0  0  0999 V2000     
   20.7440   20.0770   20.3898 N   0  3  0  0  0  0  0  0  0  0  0  0
   21.6492   20.1348   19.9111 H   0  0  0  0  0  0  0  0  0  0  0  0
   20.8913   20.3959   21.3523 H   0  0  0  0  0  0  0  0  0  0  0  0
   20.1224   20.7547   19.9371 H   0  0  0  0  0  0  0  0  0  0  0  0
   20.1728   18.6733   20.3473 C   0  0  0  0  0  0  0  0  0  0  0  0
   20.8945   17.9995   20.8161 H   0  0  0  0  0  0  0  0  0  0  0  0
   20.0735   18.3859   19.2970 H   0  0  0  0  0  0  0  0  0  0  0  0
   18.8043   18.5397   21.0460 C   0  0  0  0  0  0  0  0  0  0  0  0
   18.0761   19.1852   20.5372 H   0  0  0  0  0  0  0  0  0  0  0  0
   18.4426   17.5108   20.9178 H   0  0  0  0  0  0  0  0  0  0  0  0
   18.8312   18.8878   22.5555 C   0  0  0  0  0  0  0  0  0  0  0  0
   17.8148   18.7783   22.9580 H   0  0  0  0  0  0  0  0  0  0  0  0
   19.0984   19.9444   22.6827 H   0  0  0  0  0  0  0  0  0  0  0  0
   19.7986   17.9902   23.3679 C   0  0  0  0  0  0  0  0  0  0  0  0
   19.5689   16.9360   23.1602 H   0  0  0  0  0  0  0  0  0  0  0  0
   20.8334   18.1524   23.0380 H   0  0  0  0  0  0  0  0  0  0  0  0
   19.7117   18.2204   24.8960 C   0  0  0  0  0  0  0  0  0  0  0  0
   20.3444   17.4773   25.4012 H   0  0  0  0  0  0  0  0  0  0  0  0
   18.6851   18.0360   25.2423 H   0  0  0  0  0  0  0  0  0  0  0  0
   20.1608   19.6344   25.3297 C   0  0  0  0  0  0  0  0  0  0  0  0
   21.1753   19.8536   24.9725 H   0  0  0  0  0  0  0  0  0  0  0  0
   20.1658   19.7165   26.4243 H   0  0  0  0  0  0  0  0  0  0  0  0
   19.4851   20.4081   24.9448 H   0  0  0  0  0  0  0  0  0  0  0  0
  1  2  1  0  0  0  0
  1  3  1  0  0  0  0
  1  4  1  0  0  0  0
  1  5  1  0  0  0  0
  5  6  1  0  0  0  0
  5  7  1  0  0  0  0
  5  8  1  0  0  0  0
  8  9  1  0  0  0  0
  8 10  1  0  0  0  0
  8 11  1  0  0  0  0
 11 12  1  0  0  0  0
 11 13  1  0  0  0  0
 11 14  1  0  0  0  0
 14 15  1  0  0  0  0
 14 16  1  0  0  0  0
 14 17  1  0  0  0  0
 17 18  1  0  0  0  0
 17 19  1  0  0  0  0
 17 20  1  0  0  0  0
 20 21  1  0  0  0  0
 20 22  1  0  0  0  0
 20 23  1  0  0  0  0
M  END
> <VConfSearch Rank>
206

> <Conf_Id>
85

> <Delta U+W>
1.193

> <U+W>
-7.189

> <U>
48.775

> <W>
-55.965

> <W(PB)>
-58.038

> <W(SA)>
2.073

> <Valence>
2.602

> <Coulomb>
45.581

> <VdW>
0.592

> <VdW6>
-6.616

> <VdW12>
7.208

> <Bond>
0.196

> <Angle>
0.832

> <Pdih>
1.574

> <Idih>
0.000

> <Tether>
0.000

$$$$
VeraChem MOL file


 23 22  0  0  0  0  0  0  0  0999 V2000     
   19.8874   18.1426   20.6446 N   0  3  0  0  0  0  0  0  0  0  0  0
   19.6066   19.0434   21.0452 H   0  0  0  0  0  0  0  0  0  0  0  0
   19.1856   17.8865   19.9416 H   0  0  0  0  0  0  0  0  0  0  0  0
   20.7700   18.2918   20.1448 H   0  0  0  0  0  0  0  0  0  0  0  0
   20.0232   17.0797   21.7176 C   0  0  0  0  0  0  0  0  0  0  0  0
   20.3244   16.1561   21.2159 H   0  0  0  0  0  0  0  0  0  0  0  0
   19.0432   16.9143   22.1729 H   0  0  0  0  0  0  0  0  0  0  0  0
   21.0579   17.4196   22.8097 C   0  0  0  0  0  0  0  0  0  0  0  0
   21.3690   16.4771   23.2796 H   0  0  0  0  0  0  0  0  0  0  0  0
   21.9629   17.8351   22.3470 H   0  0  0  0  0  0  0  0  0  0  0  0
   20.5499   18.3635   23.9327 C   0  0  0  0  0  0  0  0  0  0  0  0
   21.3638   18.4729   24.6628 H   0  0  0  0  0  0  0  0  0  0  0  0
   19.7265   17.8851   24.4809 H   0  0  0  0  0  0  0  0  0  0  0  0
   20.1291   19.7812   23.4674 C   0  0  0  0  0  0  0  0  0  0  0  0
   20.4122   20.5025   24.2468 H   0  0  0  0  0  0  0  0  0  0  0  0
   20.6990   20.0721   22.5750 H   0  0  0  0  0  0  0  0  0  0  0  0
   18.6058   19.9163   23.2261 C   0  0  0  0  0  0  0  0  0  0  0  0
   18.0750   19.7832   24.1794 H   0  0  0  0  0  0  0  0  0  0  0  0
   18.2386   19.1239   22.5632 H   0  0  0  0  0  0  0  0  0  0  0  0
   18.2421   21.2934   22.6316 C   0  0  0  0  0  0  0  0  0  0  0  0
   18.5514   22.1057   23.3022 H   0  0  0  0  0  0  0  0  0  0  0  0
   17.1578   21.3764   22.4815 H   0  0  0  0  0  0  0  0  0  0  0  0
   18.7292   21.4494   21.6604 H   0  0  0  0  0  0  0  0  0  0  0  0
  1  2  1  0  0  0  0
  1  3  1  0  0  0  0
  1  4  1  0  0  0  0
  1  5  1  0  0  0  0
  5  6  1  0  0  0  0
  5  7  1  0  0  0  0
  5  8  1  0  0  0  0
  8  9  1  0  0  0  0
  8 10  1  0  0  0  0
  8 11  1  0  0  0  0
 11 12  1  0  0  0  0
 11 13  1  0  0  0  0
 11 14  1  0  0  0  0
 14 15  1  0  0  0  0
 14 16  1  0  0  0  0
 14 17  1  0  0  0  0
 17 18  1  0  0  0  0
 17 19  1  0  0  0  0
 17 20  1  0  0  0  0
 20 21  1  0  0  0  0
 20 22  1  0  0  0  0
 20 23  1  0  0  0  0
M  END
> <VConfSearch Rank>
207

> <Conf_Id>
82

> <Delta U+W>
5.994

> <U+W>
-2.388

> <U>
52.836

> <W>
-55.224

> <W(PB)>
-57.261

> <W(SA)>
2.037

> <Valence>
5.785

> <Coulomb>
46.744

> <VdW>
0.307

> <VdW6>
-7.672

> <VdW12>
7.979

> <Bond>
0.217

> <Angle>
1.470

> <Pdih>
4.098

> <Idih>
0.000

> <Tether>
0.000

$$$$
VeraChem MOL file


 23 22  0  0  0  0  0  0  0  0999 V2000     
   20.0642   20.0984   20.8250 N   0  3  0  0  0  0  0  0  0  0  0  0
   19.6912   21.0534   20.8302 H   0  0  0  0  0  0  0  0  0  0  0  0
   20.7187   20.0376   20.0375 H   0  0  0  0  0  0  0  0  0  0  0  0
   20.6072   19.9774   21.6859 H   0  0  0  0  0  0  0  0  0  0  0  0
   18.9591   19.0653   20.7198 C   0  0  0  0  0  0  0  0  0  0  0  0
   19.4127   18.0728   20.6527 H   0  0  0  0  0  0  0  0  0  0  0  0
   18.4284   19.2596   19.7838 H   0  0  0  0  0  0  0  0  0  0  0  0
   17.9516   19.1034   21.8869 C   0  0  0  0  0  0  0  0  0  0  0  0
   17.6934   20.1449   22.1203 H   0  0  0  0  0  0  0  0  0  0  0  0
   17.0207   18.6359   21.5395 H   0  0  0  0  0  0  0  0  0  0  0  0
   18.4017   18.3626   23.1749 C   0  0  0  0  0  0  0  0  0  0  0  0
   18.5315   17.2917   22.9657 H   0  0  0  0  0  0  0  0  0  0  0  0
   17.5734   18.4225   23.8945 H   0  0  0  0  0  0  0  0  0  0  0  0
   19.6721   18.9314   23.8574 C   0  0  0  0  0  0  0  0  0  0  0  0
   19.7622   20.0068   23.6548 H   0  0  0  0  0  0  0  0  0  0  0  0
   19.5515   18.8450   24.9463 H   0  0  0  0  0  0  0  0  0  0  0  0
   20.9656   18.1781   23.4617 C   0  0  0  0  0  0  0  0  0  0  0  0
   21.0634   18.1057   22.3720 H   0  0  0  0  0  0  0  0  0  0  0  0
   20.9093   17.1439   23.8297 H   0  0  0  0  0  0  0  0  0  0  0  0
   22.2225   18.8563   24.0466 C   0  0  0  0  0  0  0  0  0  0  0  0
   22.3309   19.8833   23.6748 H   0  0  0  0  0  0  0  0  0  0  0  0
   23.1275   18.3005   23.7686 H   0  0  0  0  0  0  0  0  0  0  0  0
   22.1753   18.8941   25.1428 H   0  0  0  0  0  0  0  0  0  0  0  0
  1  2  1  0  0  0  0
  1  3  1  0  0  0  0
  1  4  1  0  0  0  0
  1  5  1  0  0  0  0
  5  6  1  0  0  0  0
  5  7  1  0  0  0  0
  5  8  1  0  0  0  0
  8  9  1  0  0  0  0
  8 10  1  0  0  0  0
  8 11  1  0  0  0  0
 11 12  1  0  0  0  0
 11 13  1  0  0  0  0
 11 14  1  0  0  0  0
 14 15  1  0  0  0  0
 14 16  1  0  0  0  0
 14 17  1  0  0  0  0
 17 18  1  0  0  0  0
 17 19  1  0  0  0  0
 17 20  1  0  0  0  0
 20 21  1  0  0  0  0
 20 22  1  0  0  0  0
 20 23  1  0  0  0  0
M  END
> <VConfSearch Rank>
208

> <Conf_Id>
5

> <Delta U+W>
6.087

> <U+W>
-2.295

> <U>
52.836

> <W>
-55.131

> <W(PB)>
-57.202

> <W(SA)>
2.071

> <Valence>
5.785

> <Coulomb>
46.744

> <VdW>
0.307

> <VdW6>
-7.672

> <VdW12>
7.980

> <Bond>
0.217

> <Angle>
1.470

> <Pdih>
4.098

> <Idih>
0.000

> <Tether>
0.000

$$$$
VeraChem MOL file


 23 22  0  0  0  0  0  0  0  0999 V2000     
   16.3078   17.3461   22.5760 N   0  3  0  0  0  0  0  0  0  0  0  0
   16.6455   16.3788   22.5407 H   0  0  0  0  0  0  0  0  0  0  0  0
   15.4282   17.3739   22.0491 H   0  0  0  0  0  0  0  0  0  0  0  0
   16.0758   17.5490   23.5537 H   0  0  0  0  0  0  0  0  0  0  0  0
   17.3267   18.3214   22.0223 C   0  0  0  0  0  0  0  0  0  0  0  0
   16.8913   19.3236   22.0629 H   0  0  0  0  0  0  0  0  0  0  0  0
   17.5036   18.0658   20.9741 H   0  0  0  0  0  0  0  0  0  0  0  0
   18.6594   18.3041   22.7918 C   0  0  0  0  0  0  0  0  0  0  0  0
   18.4747   18.5453   23.8472 H   0  0  0  0  0  0  0  0  0  0  0  0
   19.0848   17.2920   22.7622 H   0  0  0  0  0  0  0  0  0  0  0  0
   19.6690   19.3105   22.1969 C   0  0  0  0  0  0  0  0  0  0  0  0
   19.2376   20.3209   22.2235 H   0  0  0  0  0  0  0  0  0  0  0  0
   19.8471   19.0689   21.1397 H   0  0  0  0  0  0  0  0  0  0  0  0
   21.0117   19.3014   22.9625 C   0  0  0  0  0  0  0  0  0  0  0  0
   20.8338   19.5431   24.0196 H   0  0  0  0  0  0  0  0  0  0  0  0
   21.4432   18.2912   22.9360 H   0  0  0  0  0  0  0  0  0  0  0  0
   22.0212   20.3080   22.3672 C   0  0  0  0  0  0  0  0  0  0  0  0
   21.5951   21.3208   22.3936 H   0  0  0  0  0  0  0  0  0  0  0  0
   22.2044   20.0689   21.3102 H   0  0  0  0  0  0  0  0  0  0  0  0
   23.3607   20.2962   23.1342 C   0  0  0  0  0  0  0  0  0  0  0  0
   24.0641   21.0168   22.6971 H   0  0  0  0  0  0  0  0  0  0  0  0
   23.8284   19.3037   23.0964 H   0  0  0  0  0  0  0  0  0  0  0  0
   23.2144   20.5653   24.1884 H   0  0  0  0  0  0  0  0  0  0  0  0
  1  2  1  0  0  0  0
  1  3  1  0  0  0  0
  1  4  1  0  0  0  0
  1  5  1  0  0  0  0
  5  6  1  0  0  0  0
  5  7  1  0  0  0  0
  5  8  1  0  0  0  0
  8  9  1  0  0  0  0
  8 10  1  0  0  0  0
  8 11  1  0  0  0  0
 11 12  1  0  0  0  0
 11 13  1  0  0  0  0
 11 14  1  0  0  0  0
 14 15  1  0  0  0  0
 14 16  1  0  0  0  0
 14 17  1  0  0  0  0
 17 18  1  0  0  0  0
 17 19  1  0  0  0  0
 17 20  1  0  0  0  0
 20 21  1  0  0  0  0
 20 22  1  0  0  0  0
 20 23  1  0  0  0  0
M  END
> <VConfSearch Rank>
209

> <Conf_Id>
40

> <Delta U+W>
0.000

> <U+W>
-8.382

> <U>
46.604

> <W>
-54.986

> <W(PB)>
-57.162

> <W(SA)>
2.176

> <Valence>
1.727

> <Coulomb>
44.434

> <VdW>
0.443

> <VdW6>
-4.623

> <VdW12>
5.066

> <Bond>
0.112

> <Angle>
0.386

> <Pdih>
1.228

> <Idih>
0.000

> <Tether>
0.000

$$$$
VeraChem MOL file


 23 22  0  0  0  0  0  0  0  0999 V2000     
   23.3101   19.4739   22.6043 N   0  3  0  0  0  0  0  0  0  0  0  0
   23.5434   20.4555   22.4231 H   0  0  0  0  0  0  0  0  0  0  0  0
   23.5010   18.9544   21.7414 H   0  0  0  0  0  0  0  0  0  0  0  0
   23.9739   19.1352   23.3091 H   0  0  0  0  0  0  0  0  0  0  0  0
   21.8740   19.3085   23.0580 C   0  0  0  0  0  0  0  0  0  0  0  0
   21.7496   19.8617   23.9928 H   0  0  0  0  0  0  0  0  0  0  0  0
   21.7072   18.2476   23.2611 H   0  0  0  0  0  0  0  0  0  0  0  0
   20.8518   19.8090   22.0199 C   0  0  0  0  0  0  0  0  0  0  0  0
   21.0617   20.8623   21.7909 H   0  0  0  0  0  0  0  0  0  0  0  0
   20.9755   19.2528   21.0811 H   0  0  0  0  0  0  0  0  0  0  0  0
   19.3893   19.6849   22.5091 C   0  0  0  0  0  0  0  0  0  0  0  0
   18.7374   20.1638   21.7670 H   0  0  0  0  0  0  0  0  0  0  0  0
   19.2663   20.2502   23.4432 H   0  0  0  0  0  0  0  0  0  0  0  0
   18.9422   18.2162   22.7231 C   0  0  0  0  0  0  0  0  0  0  0  0
   19.0458   17.6567   21.7832 H   0  0  0  0  0  0  0  0  0  0  0  0
   19.6098   17.7307   23.4469 H   0  0  0  0  0  0  0  0  0  0  0  0
   17.4905   18.0842   23.2444 C   0  0  0  0  0  0  0  0  0  0  0  0
   17.3836   18.6335   24.1902 H   0  0  0  0  0  0  0  0  0  0  0  0
   17.2958   17.0283   23.4792 H   0  0  0  0  0  0  0  0  0  0  0  0
   16.4259   18.5725   22.2357 C   0  0  0  0  0  0  0  0  0  0  0  0
   16.4984   19.6534   22.0632 H   0  0  0  0  0  0  0  0  0  0  0  0
   15.4161   18.3669   22.6139 H   0  0  0  0  0  0  0  0  0  0  0  0
   16.5327   18.0614   21.2701 H   0  0  0  0  0  0  0  0  0  0  0  0
  1  2  1  0  0  0  0
  1  3  1  0  0  0  0
  1  4  1  0  0  0  0
  1  5  1  0  0  0  0
  5  6  1  0  0  0  0
  5  7  1  0  0  0  0
  5  8  1  0  0  0  0
  8  9  1  0  0  0  0
  8 10  1  0  0  0  0
  8 11  1  0  0  0  0
 11 12  1  0  0  0  0
 11 13  1  0  0  0  0
 11 14  1  0  0  0  0
 14 15  1  0  0  0  0
 14 16  1  0  0  0  0
 14 17  1  0  0  0  0
 17 18  1  0  0  0  0
 17 19  1  0  0  0  0
 17 20  1  0  0  0  0
 20 21  1  0  0  0  0
 20 22  1  0  0  0  0
 20 23  1  0  0  0  0
M  END
> <VConfSearch Rank>
210

> <Conf_Id>
65

> <Delta U+W>
1.004

> <U+W>
-7.378

> <U>
48.047

> <W>
-55.425

> <W(PB)>
-57.542

> <W(SA)>
2.116

> <Valence>
2.583

> <Coulomb>
44.791

> <VdW>
0.673

> <VdW6>
-5.788

> <VdW12>
6.462

> <Bond>
0.177

> <Angle>
0.787

> <Pdih>
1.619

> <Idih>
0.000

> <Tether>
0.000

$$$$
VeraChem MOL file


 23 22  0  0  0  0  0  0  0  0999 V2000     
   21.1597   19.3604   19.3365 N   0  3  0  0  0  0  0  0  0  0  0  0
   21.0747   18.4790   18.8200 H   0  0  0  0  0  0  0  0  0  0  0  0
   22.0735   19.7595   19.0961 H   0  0  0  0  0  0  0  0  0  0  0  0
   20.4488   19.9980   18.9638 H   0  0  0  0  0  0  0  0  0  0  0  0
   21.0095   19.1571   20.8304 C   0  0  0  0  0  0  0  0  0  0  0  0
   21.1419   20.1276   21.3153 H   0  0  0  0  0  0  0  0  0  0  0  0
   21.8123   18.4936   21.1631 H   0  0  0  0  0  0  0  0  0  0  0  0
   19.6459   18.5579   21.2237 C   0  0  0  0  0  0  0  0  0  0  0  0
   18.8392   19.2246   20.8908 H   0  0  0  0  0  0  0  0  0  0  0  0
   19.5068   17.6070   20.6923 H   0  0  0  0  0  0  0  0  0  0  0  0
   19.5173   18.3051   22.7446 C   0  0  0  0  0  0  0  0  0  0  0  0
   20.3198   17.6300   23.0728 H   0  0  0  0  0  0  0  0  0  0  0  0
   18.5724   17.7767   22.9259 H   0  0  0  0  0  0  0  0  0  0  0  0
   19.5536   19.6083   23.5830 C   0  0  0  0  0  0  0  0  0  0  0  0
   20.4881   20.1484   23.3822 H   0  0  0  0  0  0  0  0  0  0  0  0
   18.7381   20.2740   23.2684 H   0  0  0  0  0  0  0  0  0  0  0  0
   19.4589   19.3620   25.1084 C   0  0  0  0  0  0  0  0  0  0  0  0
   19.6094   20.3182   25.6290 H   0  0  0  0  0  0  0  0  0  0  0  0
   20.2787   18.7049   25.4306 H   0  0  0  0  0  0  0  0  0  0  0  0
   18.1055   18.7624   25.5537 C   0  0  0  0  0  0  0  0  0  0  0  0
   17.9635   17.7486   25.1598 H   0  0  0  0  0  0  0  0  0  0  0  0
   17.2671   19.3846   25.2147 H   0  0  0  0  0  0  0  0  0  0  0  0
   18.0552   18.6999   26.6485 H   0  0  0  0  0  0  0  0  0  0  0  0
  1  2  1  0  0  0  0
  1  3  1  0  0  0  0
  1  4  1  0  0  0  0
  1  5  1  0  0  0  0
  5  6  1  0  0  0  0
  5  7  1  0  0  0  0
  5  8  1  0  0  0  0
  8  9  1  0  0  0  0
  8 10  1  0  0  0  0
  8 11  1  0  0  0  0
 11 12  1  0  0  0  0
 11 13  1  0  0  0  0
 11 14  1  0  0  0  0
 14 15  1  0  0  0  0
 14 16  1  0  0  0  0
 14 17  1  0  0  0  0
 17 18  1  0  0  0  0
 17 19  1  0  0  0  0
 17 20  1  0  0  0  0
 20 21  1  0  0  0  0
 20 22  1  0  0  0  0
 20 23  1  0  0  0  0
M  END
> <VConfSearch Rank>
211

> <Conf_Id>
92

> <Delta U+W>
0.973

> <U+W>
-7.409

> <U>
48.047

> <W>
-55.456

> <W(PB)>
-57.595

> <W(SA)>
2.138

> <Valence>
2.583

> <Coulomb>
44.791

> <VdW>
0.674

> <VdW6>
-5.789

> <VdW12>
6.462

> <Bond>
0.177

> <Angle>
0.787

> <Pdih>
1.619

> <Idih>
0.000

> <Tether>
0.000

$$$$
VeraChem MOL file


 23 22  0  0  0  0  0  0  0  0999 V2000     
   17.8503   21.5485   24.1016 N   0  3  0  0  0  0  0  0  0  0  0  0
   17.7495   22.4648   23.6520 H   0  0  0  0  0  0  0  0  0  0  0  0
   18.0268   21.7229   25.0963 H   0  0  0  0  0  0  0  0  0  0  0  0
   16.9401   21.0818   24.0343 H   0  0  0  0  0  0  0  0  0  0  0  0
   18.9548   20.7283   23.4667 C   0  0  0  0  0  0  0  0  0  0  0  0
   19.8861   21.2953   23.5486 H   0  0  0  0  0  0  0  0  0  0  0  0
   18.7165   20.6088   22.4067 H   0  0  0  0  0  0  0  0  0  0  0  0
   19.1314   19.3449   24.1210 C   0  0  0  0  0  0  0  0  0  0  0  0
   19.3261   19.4777   25.1936 H   0  0  0  0  0  0  0  0  0  0  0  0
   18.1958   18.7758   24.0395 H   0  0  0  0  0  0  0  0  0  0  0  0
   20.2905   18.5320   23.4975 C   0  0  0  0  0  0  0  0  0  0  0  0
   20.4173   17.6031   24.0706 H   0  0  0  0  0  0  0  0  0  0  0  0
   21.2297   19.0927   23.6034 H   0  0  0  0  0  0  0  0  0  0  0  0
   20.0559   18.1827   22.0081 C   0  0  0  0  0  0  0  0  0  0  0  0
   19.1001   17.6512   21.9016 H   0  0  0  0  0  0  0  0  0  0  0  0
   19.9760   19.1031   21.4144 H   0  0  0  0  0  0  0  0  0  0  0  0
   21.1954   17.3096   21.4372 C   0  0  0  0  0  0  0  0  0  0  0  0
   21.2791   16.3809   22.0190 H   0  0  0  0  0  0  0  0  0  0  0  0
   22.1544   17.8364   21.5417 H   0  0  0  0  0  0  0  0  0  0  0  0
   20.9611   16.9629   19.9514 C   0  0  0  0  0  0  0  0  0  0  0  0
   20.0247   16.4055   19.8190 H   0  0  0  0  0  0  0  0  0  0  0  0
   21.7799   16.3426   19.5643 H   0  0  0  0  0  0  0  0  0  0  0  0
   20.9078   17.8716   19.3376 H   0  0  0  0  0  0  0  0  0  0  0  0
  1  2  1  0  0  0  0
  1  3  1  0  0  0  0
  1  4  1  0  0  0  0
  1  5  1  0  0  0  0
  5  6  1  0  0  0  0
  5  7  1  0  0  0  0
  5  8  1  0  0  0  0
  8  9  1  0  0  0  0
  8 10  1  0  0  0  0
  8 11  1  0  0  0  0
 11 12  1  0  0  0  0
 11 13  1  0  0  0  0
 11 14  1  0  0  0  0
 14 15  1  0  0  0  0
 14 16  1  0  0  0  0
 14 17  1  0  0  0  0
 17 18  1  0  0  0  0
 17 19  1  0  0  0  0
 17 20  1  0  0  0  0
 20 21  1  0  0  0  0
 20 22  1  0  0  0  0
 20 23  1  0  0  0  0
M  END
> <VConfSearch Rank>
212

> <Conf_Id>
42

> <Delta U+W>
0.365

> <U+W>
-8.017

> <U>
47.375

> <W>
-55.392

> <W(PB)>
-57.543

> <W(SA)>
2.152

> <Valence>
2.032

> <Coulomb>
44.843

> <VdW>
0.499

> <VdW6>
-5.218

> <VdW12>
5.717

> <Bond>
0.135

> <Angle>
0.514

> <Pdih>
1.383

> <Idih>
0.000

> <Tether>
0.000

$$$$
VeraChem MOL file


 23 22  0  0  0  0  0  0  0  0999 V2000     
   19.0700   21.3634   24.6123 N   0  3  0  0  0  0  0  0  0  0  0  0
   20.0248   21.7354   24.5910 H   0  0  0  0  0  0  0  0  0  0  0  0
   18.6055   21.7789   25.4269 H   0  0  0  0  0  0  0  0  0  0  0  0
   18.5882   21.7177   23.7806 H   0  0  0  0  0  0  0  0  0  0  0  0
   19.0564   19.8481   24.6693 C   0  0  0  0  0  0  0  0  0  0  0  0
   18.0149   19.5185   24.7140 H   0  0  0  0  0  0  0  0  0  0  0  0
   19.5482   19.5485   25.5988 H   0  0  0  0  0  0  0  0  0  0  0  0
   19.7639   19.1728   23.4783 C   0  0  0  0  0  0  0  0  0  0  0  0
   20.8017   19.5263   23.4189 H   0  0  0  0  0  0  0  0  0  0  0  0
   19.8035   18.0952   23.6792 H   0  0  0  0  0  0  0  0  0  0  0  0
   19.0381   19.4190   22.1331 C   0  0  0  0  0  0  0  0  0  0  0  0
   18.9057   20.4983   21.9817 H   0  0  0  0  0  0  0  0  0  0  0  0
   18.0272   18.9910   22.1815 H   0  0  0  0  0  0  0  0  0  0  0  0
   19.7783   18.8515   20.8940 C   0  0  0  0  0  0  0  0  0  0  0  0
   19.1927   19.1260   20.0056 H   0  0  0  0  0  0  0  0  0  0  0  0
   20.7494   19.3509   20.7728 H   0  0  0  0  0  0  0  0  0  0  0  0
   19.9629   17.3119   20.8923 C   0  0  0  0  0  0  0  0  0  0  0  0
   19.8654   16.9489   19.8595 H   0  0  0  0  0  0  0  0  0  0  0  0
   19.1546   16.8291   21.4590 H   0  0  0  0  0  0  0  0  0  0  0  0
   21.3412   16.8585   21.4278 C   0  0  0  0  0  0  0  0  0  0  0  0
   22.1541   17.2763   20.8198 H   0  0  0  0  0  0  0  0  0  0  0  0
   21.4267   15.7648   21.3906 H   0  0  0  0  0  0  0  0  0  0  0  0
   21.5037   17.1689   22.4658 H   0  0  0  0  0  0  0  0  0  0  0  0
  1  2  1  0  0  0  0
  1  3  1  0  0  0  0
  1  4  1  0  0  0  0
  1  5  1  0  0  0  0
  5  6  1  0  0  0  0
  5  7  1  0  0  0  0
  5  8  1  0  0  0  0
  8  9  1  0  0  0  0
  8 10  1  0  0  0  0
  8 11  1  0  0  0  0
 11 12  1  0  0  0  0
 11 13  1  0  0  0  0
 11 14  1  0  0  0  0
 14 15  1  0  0  0  0
 14 16  1  0  0  0  0
 14 17  1  0  0  0  0
 17 18  1  0  0  0  0
 17 19  1  0  0  0  0
 17 20  1  0  0  0  0
 20 21  1  0  0  0  0
 20 22  1  0  0  0  0
 20 23  1  0  0  0  0
M  END
> <VConfSearch Rank>
213

> <Conf_Id>
3

> <Delta U+W>
3.283

> <U+W>
-5.099

> <U>
50.701

> <W>
-55.800

> <W(PB)>
-57.867

> <W(SA)>
2.067

> <Valence>
4.880

> <Coulomb>
45.095

> <VdW>
0.726

> <VdW6>
-6.620

> <VdW12>
7.346

> <Bond>
0.222

> <Angle>
1.260

> <Pdih>
3.398

> <Idih>
0.000

> <Tether>
0.000

$$$$
VeraChem MOL file


 23 22  0  0  0  0  0  0  0  0999 V2000     
   17.3675   18.8871   24.1689 N   0  3  0  0  0  0  0  0  0  0  0  0
   17.3402   18.0693   24.7861 H   0  0  0  0  0  0  0  0  0  0  0  0
   16.5122   19.4246   24.3463 H   0  0  0  0  0  0  0  0  0  0  0  0
   18.1558   19.4681   24.4698 H   0  0  0  0  0  0  0  0  0  0  0  0
   17.4904   18.4887   22.7114 C   0  0  0  0  0  0  0  0  0  0  0  0
   17.4828   19.4003   22.1087 H   0  0  0  0  0  0  0  0  0  0  0  0
   16.6042   17.9036   22.4506 H   0  0  0  0  0  0  0  0  0  0  0  0
   18.7565   17.6651   22.3983 C   0  0  0  0  0  0  0  0  0  0  0  0
   18.7252   16.7291   22.9716 H   0  0  0  0  0  0  0  0  0  0  0  0
   18.7354   17.3754   21.3393 H   0  0  0  0  0  0  0  0  0  0  0  0
   20.0852   18.4041   22.6988 C   0  0  0  0  0  0  0  0  0  0  0  0
   20.9129   17.7169   22.4807 H   0  0  0  0  0  0  0  0  0  0  0  0
   20.1520   18.6323   23.7708 H   0  0  0  0  0  0  0  0  0  0  0  0
   20.2602   19.7043   21.8736 C   0  0  0  0  0  0  0  0  0  0  0  0
   20.2207   19.4701   20.8008 H   0  0  0  0  0  0  0  0  0  0  0  0
   19.4200   20.3824   22.0727 H   0  0  0  0  0  0  0  0  0  0  0  0
   21.5732   20.4616   22.1883 C   0  0  0  0  0  0  0  0  0  0  0  0
   21.6132   20.7083   23.2585 H   0  0  0  0  0  0  0  0  0  0  0  0
   21.5627   21.4212   21.6525 H   0  0  0  0  0  0  0  0  0  0  0  0
   22.8463   19.6829   21.7859 C   0  0  0  0  0  0  0  0  0  0  0  0
   22.8153   19.3953   20.7269 H   0  0  0  0  0  0  0  0  0  0  0  0
   22.9703   18.7732   22.3862 H   0  0  0  0  0  0  0  0  0  0  0  0
   23.7395   20.3023   21.9391 H   0  0  0  0  0  0  0  0  0  0  0  0
  1  2  1  0  0  0  0
  1  3  1  0  0  0  0
  1  4  1  0  0  0  0
  1  5  1  0  0  0  0
  5  6  1  0  0  0  0
  5  7  1  0  0  0  0
  5  8  1  0  0  0  0
  8  9  1  0  0  0  0
  8 10  1  0  0  0  0
  8 11  1  0  0  0  0
 11 12  1  0  0  0  0
 11 13  1  0  0  0  0
 11 14  1  0  0  0  0
 14 15  1  0  0  0  0
 14 16  1  0  0  0  0
 14 17  1  0  0  0  0
 17 18  1  0  0  0  0
 17 19  1  0  0  0  0
 17 20  1  0  0  0  0
 20 21  1  0  0  0  0
 20 22  1  0  0  0  0
 20 23  1  0  0  0  0
M  END
> <VConfSearch Rank>
214

> <Conf_Id>
83

> <Delta U+W>
1.229

> <U+W>
-7.154

> <U>
48.727

> <W>
-55.880

> <W(PB)>
-57.960

> <W(SA)>
2.080

> <Valence>
2.671

> <Coulomb>
45.371

> <VdW>
0.684

> <VdW6>
-6.511

> <VdW12>
7.195

> <Bond>
0.203

> <Angle>
0.915

> <Pdih>
1.554

> <Idih>
0.000

> <Tether>
0.000

$$$$
VeraChem MOL file


 23 22  0  0  0  0  0  0  0  0999 V2000     
   17.1388   18.5582   21.3158 N   0  3  0  0  0  0  0  0  0  0  0  0
   16.9803   17.5777   21.0626 H   0  0  0  0  0  0  0  0  0  0  0  0
   17.9432   18.8856   20.7725 H   0  0  0  0  0  0  0  0  0  0  0  0
   16.3215   19.0867   20.9923 H   0  0  0  0  0  0  0  0  0  0  0  0
   17.3644   18.7255   22.8056 C   0  0  0  0  0  0  0  0  0  0  0  0
   16.4587   18.3909   23.3188 H   0  0  0  0  0  0  0  0  0  0  0  0
   17.4952   19.7909   23.0113 H   0  0  0  0  0  0  0  0  0  0  0  0
   18.5765   17.9366   23.3417 C   0  0  0  0  0  0  0  0  0  0  0  0
   18.6310   18.0712   24.4302 H   0  0  0  0  0  0  0  0  0  0  0  0
   18.4077   16.8644   23.1748 H   0  0  0  0  0  0  0  0  0  0  0  0
   19.9307   18.3451   22.7085 C   0  0  0  0  0  0  0  0  0  0  0  0
   19.9149   18.1436   21.6292 H   0  0  0  0  0  0  0  0  0  0  0  0
   20.7113   17.6978   23.1286 H   0  0  0  0  0  0  0  0  0  0  0  0
   20.2984   19.8298   22.9597 C   0  0  0  0  0  0  0  0  0  0  0  0
   19.5064   20.4774   22.5614 H   0  0  0  0  0  0  0  0  0  0  0  0
   20.3410   20.0229   24.0405 H   0  0  0  0  0  0  0  0  0  0  0  0
   21.6372   20.2518   22.3071 C   0  0  0  0  0  0  0  0  0  0  0  0
   21.7630   21.3364   22.4325 H   0  0  0  0  0  0  0  0  0  0  0  0
   21.5965   20.0709   21.2239 H   0  0  0  0  0  0  0  0  0  0  0  0
   22.8689   19.5369   22.9081 C   0  0  0  0  0  0  0  0  0  0  0  0
   22.9139   19.6751   23.9962 H   0  0  0  0  0  0  0  0  0  0  0  0
   23.7947   19.9426   22.4801 H   0  0  0  0  0  0  0  0  0  0  0  0
   22.8538   18.4604   22.6980 H   0  0  0  0  0  0  0  0  0  0  0  0
  1  2  1  0  0  0  0
  1  3  1  0  0  0  0
  1  4  1  0  0  0  0
  1  5  1  0  0  0  0
  5  6  1  0  0  0  0
  5  7  1  0  0  0  0
  5  8  1  0  0  0  0
  8  9  1  0  0  0  0
  8 10  1  0  0  0  0
  8 11  1  0  0  0  0
 11 12  1  0  0  0  0
 11 13  1  0  0  0  0
 11 14  1  0  0  0  0
 14 15  1  0  0  0  0
 14 16  1  0  0  0  0
 14 17  1  0  0  0  0
 17 18  1  0  0  0  0
 17 19  1  0  0  0  0
 17 20  1  0  0  0  0
 20 21  1  0  0  0  0
 20 22  1  0  0  0  0
 20 23  1  0  0  0  0
M  END
> <VConfSearch Rank>
215

> <Conf_Id>
50

> <Delta U+W>
1.252

> <U+W>
-7.130

> <U>
48.727

> <W>
-55.857

> <W(PB)>
-57.937

> <W(SA)>
2.080

> <Valence>
2.671

> <Coulomb>
45.371

> <VdW>
0.684

> <VdW6>
-6.511

> <VdW12>
7.196

> <Bond>
0.203

> <Angle>
0.915

> <Pdih>
1.554

> <Idih>
0.000

> <Tether>
0.000

$$$$
VeraChem MOL file


 23 22  0  0  0  0  0  0  0  0999 V2000     
   21.3056   16.3858   21.7772 N   0  3  0  0  0  0  0  0  0  0  0  0
   21.8702   17.1149   21.3309 H   0  0  0  0  0  0  0  0  0  0  0  0
   21.3219   15.5711   21.1544 H   0  0  0  0  0  0  0  0  0  0  0  0
   21.7890   16.1129   22.6388 H   0  0  0  0  0  0  0  0  0  0  0  0
   19.8906   16.8576   22.0498 C   0  0  0  0  0  0  0  0  0  0  0  0
   19.3401   16.0193   22.4855 H   0  0  0  0  0  0  0  0  0  0  0  0
   19.4262   17.1089   21.0924 H   0  0  0  0  0  0  0  0  0  0  0  0
   19.8103   18.0693   22.9986 C   0  0  0  0  0  0  0  0  0  0  0  0
   18.7544   18.2626   23.2188 H   0  0  0  0  0  0  0  0  0  0  0  0
   20.2823   17.8137   23.9566 H   0  0  0  0  0  0  0  0  0  0  0  0
   20.4758   19.3373   22.4055 C   0  0  0  0  0  0  0  0  0  0  0  0
   20.0759   19.5461   21.4036 H   0  0  0  0  0  0  0  0  0  0  0  0
   21.5473   19.1380   22.2703 H   0  0  0  0  0  0  0  0  0  0  0  0
   20.3273   20.5897   23.3085 C   0  0  0  0  0  0  0  0  0  0  0  0
   20.2632   20.2934   24.3646 H   0  0  0  0  0  0  0  0  0  0  0  0
   21.2478   21.1838   23.2238 H   0  0  0  0  0  0  0  0  0  0  0  0
   19.1400   21.5164   22.9416 C   0  0  0  0  0  0  0  0  0  0  0  0
   19.2671   21.8891   21.9155 H   0  0  0  0  0  0  0  0  0  0  0  0
   19.1744   22.4012   23.5925 H   0  0  0  0  0  0  0  0  0  0  0  0
   17.7507   20.8557   23.0777 C   0  0  0  0  0  0  0  0  0  0  0  0
   17.6149   20.4208   24.0763 H   0  0  0  0  0  0  0  0  0  0  0  0
   17.6096   20.0662   22.3294 H   0  0  0  0  0  0  0  0  0  0  0  0
   16.9567   21.5979   22.9242 H   0  0  0  0  0  0  0  0  0  0  0  0
  1  2  1  0  0  0  0
  1  3  1  0  0  0  0
  1  4  1  0  0  0  0
  1  5  1  0  0  0  0
  5  6  1  0  0  0  0
  5  7  1  0  0  0  0
  5  8  1  0  0  0  0
  8  9  1  0  0  0  0
  8 10  1  0  0  0  0
  8 11  1  0  0  0  0
 11 12  1  0  0  0  0
 11 13  1  0  0  0  0
 11 14  1  0  0  0  0
 14 15  1  0  0  0  0
 14 16  1  0  0  0  0
 14 17  1  0  0  0  0
 17 18  1  0  0  0  0
 17 19  1  0  0  0  0
 17 20  1  0  0  0  0
 20 21  1  0  0  0  0
 20 22  1  0  0  0  0
 20 23  1  0  0  0  0
M  END
> <VConfSearch Rank>
216

> <Conf_Id>
55

> <Delta U+W>
3.232

> <U+W>
-5.150

> <U>
50.625

> <W>
-55.776

> <W(PB)>
-57.839

> <W(SA)>
2.064

> <Valence>
4.837

> <Coulomb>
45.097

> <VdW>
0.692

> <VdW6>
-6.655

> <VdW12>
7.347

> <Bond>
0.223

> <Angle>
1.167

> <Pdih>
3.447

> <Idih>
0.000

> <Tether>
0.000

$$$$
VeraChem MOL file


 23 22  0  0  0  0  0  0  0  0999 V2000     
   22.3374   18.4286   20.7923 N   0  3  0  0  0  0  0  0  0  0  0  0
   22.4309   17.5567   20.2614 H   0  0  0  0  0  0  0  0  0  0  0  0
   23.2802   18.6945   21.0962 H   0  0  0  0  0  0  0  0  0  0  0  0
   22.0217   19.1491   20.1351 H   0  0  0  0  0  0  0  0  0  0  0  0
   21.3893   18.2775   21.9645 C   0  0  0  0  0  0  0  0  0  0  0  0
   21.3681   19.2280   22.5007 H   0  0  0  0  0  0  0  0  0  0  0  0
   21.8014   17.5178   22.6341 H   0  0  0  0  0  0  0  0  0  0  0  0
   19.9648   17.8710   21.5386 C   0  0  0  0  0  0  0  0  0  0  0  0
   19.5550   18.6017   20.8286 H   0  0  0  0  0  0  0  0  0  0  0  0
   20.0304   16.9171   20.9984 H   0  0  0  0  0  0  0  0  0  0  0  0
   18.9990   17.6931   22.7373 C   0  0  0  0  0  0  0  0  0  0  0  0
   19.5313   17.2407   23.5856 H   0  0  0  0  0  0  0  0  0  0  0  0
   18.2275   16.9657   22.4491 H   0  0  0  0  0  0  0  0  0  0  0  0
   18.2744   18.9870   23.1915 C   0  0  0  0  0  0  0  0  0  0  0  0
   17.6619   19.3728   22.3648 H   0  0  0  0  0  0  0  0  0  0  0  0
   17.5710   18.7211   23.9927 H   0  0  0  0  0  0  0  0  0  0  0  0
   19.2124   20.1059   23.7000 C   0  0  0  0  0  0  0  0  0  0  0  0
   19.8165   20.4936   22.8695 H   0  0  0  0  0  0  0  0  0  0  0  0
   19.9077   19.6999   24.4479 H   0  0  0  0  0  0  0  0  0  0  0  0
   18.4189   21.2755   24.3207 C   0  0  0  0  0  0  0  0  0  0  0  0
   17.8284   20.9393   25.1829 H   0  0  0  0  0  0  0  0  0  0  0  0
   17.7322   21.7191   23.5879 H   0  0  0  0  0  0  0  0  0  0  0  0
   19.0989   22.0650   24.6662 H   0  0  0  0  0  0  0  0  0  0  0  0
  1  2  1  0  0  0  0
  1  3  1  0  0  0  0
  1  4  1  0  0  0  0
  1  5  1  0  0  0  0
  5  6  1  0  0  0  0
  5  7  1  0  0  0  0
  5  8  1  0  0  0  0
  8  9  1  0  0  0  0
  8 10  1  0  0  0  0
  8 11  1  0  0  0  0
 11 12  1  0  0  0  0
 11 13  1  0  0  0  0
 11 14  1  0  0  0  0
 14 15  1  0  0  0  0
 14 16  1  0  0  0  0
 14 17  1  0  0  0  0
 17 18  1  0  0  0  0
 17 19  1  0  0  0  0
 17 20  1  0  0  0  0
 20 21  1  0  0  0  0
 20 22  1  0  0  0  0
 20 23  1  0  0  0  0
M  END
> <VConfSearch Rank>
217

> <Conf_Id>
93

> <Delta U+W>
2.589

> <U+W>
-5.793

> <U>
50.122

> <W>
-55.915

> <W(PB)>
-58.031

> <W(SA)>
2.115

> <Valence>
4.132

> <Coulomb>
45.536

> <VdW>
0.454

> <VdW6>
-6.262

> <VdW12>
6.715

> <Bond>
0.182

> <Angle>
1.157

> <Pdih>
2.794

> <Idih>
0.000

> <Tether>
0.000

$$$$
VeraChem MOL file


 23 22  0  0  0  0  0  0  0  0999 V2000     
   20.5422   16.0140   23.2502 N   0  3  0  0  0  0  0  0  0  0  0  0
   21.3663   16.1222   22.6503 H   0  0  0  0  0  0  0  0  0  0  0  0
   20.0043   15.2237   22.8785 H   0  0  0  0  0  0  0  0  0  0  0  0
   20.8790   15.7348   24.1773 H   0  0  0  0  0  0  0  0  0  0  0  0
   19.7140   17.2814   23.3080 C   0  0  0  0  0  0  0  0  0  0  0  0
   18.8423   17.0847   23.9379 H   0  0  0  0  0  0  0  0  0  0  0  0
   19.3618   17.4958   22.2974 H   0  0  0  0  0  0  0  0  0  0  0  0
   20.4945   18.4859   23.8699 C   0  0  0  0  0  0  0  0  0  0  0  0
   20.8361   18.2282   24.8813 H   0  0  0  0  0  0  0  0  0  0  0  0
   21.3990   18.6669   23.2740 H   0  0  0  0  0  0  0  0  0  0  0  0
   19.6429   19.7780   23.9518 C   0  0  0  0  0  0  0  0  0  0  0  0
   20.0426   20.3994   24.7652 H   0  0  0  0  0  0  0  0  0  0  0  0
   18.6128   19.5319   24.2451 H   0  0  0  0  0  0  0  0  0  0  0  0
   19.6384   20.6416   22.6635 C   0  0  0  0  0  0  0  0  0  0  0  0
   19.0648   21.5563   22.8676 H   0  0  0  0  0  0  0  0  0  0  0  0
   20.6630   20.9690   22.4389 H   0  0  0  0  0  0  0  0  0  0  0  0
   19.0398   19.9423   21.4213 C   0  0  0  0  0  0  0  0  0  0  0  0
   18.0604   19.5107   21.6708 H   0  0  0  0  0  0  0  0  0  0  0  0
   19.6903   19.1155   21.1079 H   0  0  0  0  0  0  0  0  0  0  0  0
   18.8816   20.9210   20.2382 C   0  0  0  0  0  0  0  0  0  0  0  0
   18.4660   20.4061   19.3622 H   0  0  0  0  0  0  0  0  0  0  0  0
   19.8498   21.3501   19.9489 H   0  0  0  0  0  0  0  0  0  0  0  0
   18.2049   21.7463   20.4954 H   0  0  0  0  0  0  0  0  0  0  0  0
  1  2  1  0  0  0  0
  1  3  1  0  0  0  0
  1  4  1  0  0  0  0
  1  5  1  0  0  0  0
  5  6  1  0  0  0  0
  5  7  1  0  0  0  0
  5  8  1  0  0  0  0
  8  9  1  0  0  0  0
  8 10  1  0  0  0  0
  8 11  1  0  0  0  0
 11 12  1  0  0  0  0
 11 13  1  0  0  0  0
 11 14  1  0  0  0  0
 14 15  1  0  0  0  0
 14 16  1  0  0  0  0
 14 17  1  0  0  0  0
 17 18  1  0  0  0  0
 17 19  1  0  0  0  0
 17 20  1  0  0  0  0
 20 21  1  0  0  0  0
 20 22  1  0  0  0  0
 20 23  1  0  0  0  0
M  END
> <VConfSearch Rank>
218

> <Conf_Id>
70

> <Delta U+W>
2.599

> <U+W>
-5.783

> <U>
50.122

> <W>
-55.906

> <W(PB)>
-58.010

> <W(SA)>
2.105

> <Valence>
4.132

> <Coulomb>
45.536

> <VdW>
0.454

> <VdW6>
-6.262

> <VdW12>
6.715

> <Bond>
0.182

> <Angle>
1.157

> <Pdih>
2.794

> <Idih>
0.000

> <Tether>
0.000

$$$$
VeraChem MOL file


 23 22  0  0  0  0  0  0  0  0999 V2000     
   20.0536   16.2503   23.3239 N   0  3  0  0  0  0  0  0  0  0  0  0
   20.8599   15.6574   23.1024 H   0  0  0  0  0  0  0  0  0  0  0  0
   19.3078   15.6294   23.6558 H   0  0  0  0  0  0  0  0  0  0  0  0
   20.3232   16.8458   24.1126 H   0  0  0  0  0  0  0  0  0  0  0  0
   19.6134   17.0713   22.1279 C   0  0  0  0  0  0  0  0  0  0  0  0
   18.7345   17.6522   22.4196 H   0  0  0  0  0  0  0  0  0  0  0  0
   19.3144   16.3762   21.3386 H   0  0  0  0  0  0  0  0  0  0  0  0
   20.7070   18.0166   21.5911 C   0  0  0  0  0  0  0  0  0  0  0  0
   21.5708   17.4199   21.2692 H   0  0  0  0  0  0  0  0  0  0  0  0
   20.3332   18.5130   20.6865 H   0  0  0  0  0  0  0  0  0  0  0  0
   21.1772   19.0826   22.6155 C   0  0  0  0  0  0  0  0  0  0  0  0
   21.9223   19.7312   22.1345 H   0  0  0  0  0  0  0  0  0  0  0  0
   21.7058   18.5846   23.4394 H   0  0  0  0  0  0  0  0  0  0  0  0
   20.0463   19.9636   23.2068 C   0  0  0  0  0  0  0  0  0  0  0  0
   19.3405   19.3414   23.7730 H   0  0  0  0  0  0  0  0  0  0  0  0
   20.4914   20.6552   23.9354 H   0  0  0  0  0  0  0  0  0  0  0  0
   19.2797   20.7823   22.1414 C   0  0  0  0  0  0  0  0  0  0  0  0
   18.7671   20.1083   21.4422 H   0  0  0  0  0  0  0  0  0  0  0  0
   19.9892   21.3767   21.5490 H   0  0  0  0  0  0  0  0  0  0  0  0
   18.2381   21.7214   22.7860 C   0  0  0  0  0  0  0  0  0  0  0  0
   17.7022   22.2922   22.0166 H   0  0  0  0  0  0  0  0  0  0  0  0
   18.7189   22.4390   23.4636 H   0  0  0  0  0  0  0  0  0  0  0  0
   17.4963   21.1522   23.3612 H   0  0  0  0  0  0  0  0  0  0  0  0
  1  2  1  0  0  0  0
  1  3  1  0  0  0  0
  1  4  1  0  0  0  0
  1  5  1  0  0  0  0
  5  6  1  0  0  0  0
  5  7  1  0  0  0  0
  5  8  1  0  0  0  0
  8  9  1  0  0  0  0
  8 10  1  0  0  0  0
  8 11  1  0  0  0  0
 11 12  1  0  0  0  0
 11 13  1  0  0  0  0
 11 14  1  0  0  0  0
 14 15  1  0  0  0  0
 14 16  1  0  0  0  0
 14 17  1  0  0  0  0
 17 18  1  0  0  0  0
 17 19  1  0  0  0  0
 17 20  1  0  0  0  0
 20 21  1  0  0  0  0
 20 22  1  0  0  0  0
 20 23  1  0  0  0  0
M  END
> <VConfSearch Rank>
219

> <Conf_Id>
72

> <Delta U+W>
1.051

> <U+W>
-7.331

> <U>
48.590

> <W>
-55.922

> <W(PB)>
-58.012

> <W(SA)>
2.090

> <Valence>
2.601

> <Coulomb>
45.520

> <VdW>
0.469

> <VdW6>
-6.867

> <VdW12>
7.336

> <Bond>
0.205

> <Angle>
0.962

> <Pdih>
1.434

> <Idih>
0.000

> <Tether>
0.000

$$$$
VeraChem MOL file


 23 22  0  0  0  0  0  0  0  0999 V2000     
   19.8614   20.1737   25.5021 N   0  3  0  0  0  0  0  0  0  0  0  0
   20.5267   20.0016   26.2634 H   0  0  0  0  0  0  0  0  0  0  0  0
   18.9488   20.3433   25.9370 H   0  0  0  0  0  0  0  0  0  0  0  0
   20.1466   21.0477   25.0488 H   0  0  0  0  0  0  0  0  0  0  0  0
   19.8147   19.0180   24.5234 C   0  0  0  0  0  0  0  0  0  0  0  0
   19.5334   18.1178   25.0766 H   0  0  0  0  0  0  0  0  0  0  0  0
   20.8220   18.8756   24.1234 H   0  0  0  0  0  0  0  0  0  0  0  0
   18.8239   19.2456   23.3666 C   0  0  0  0  0  0  0  0  0  0  0  0
   17.8228   19.4246   23.7809 H   0  0  0  0  0  0  0  0  0  0  0  0
   19.0976   20.1562   22.8185 H   0  0  0  0  0  0  0  0  0  0  0  0
   18.7544   18.0424   22.3937 C   0  0  0  0  0  0  0  0  0  0  0  0
   18.0176   18.2578   21.6084 H   0  0  0  0  0  0  0  0  0  0  0  0
   18.3628   17.1704   22.9355 H   0  0  0  0  0  0  0  0  0  0  0  0
   20.1086   17.6526   21.7418 C   0  0  0  0  0  0  0  0  0  0  0  0
   20.7922   17.2791   22.5161 H   0  0  0  0  0  0  0  0  0  0  0  0
   19.9400   16.8047   21.0638 H   0  0  0  0  0  0  0  0  0  0  0  0
   20.8133   18.7878   20.9563 C   0  0  0  0  0  0  0  0  0  0  0  0
   21.7599   18.4002   20.5546 H   0  0  0  0  0  0  0  0  0  0  0  0
   21.0879   19.6060   21.6356 H   0  0  0  0  0  0  0  0  0  0  0  0
   19.9669   19.3415   19.7878 C   0  0  0  0  0  0  0  0  0  0  0  0
   19.6694   18.5384   19.1012 H   0  0  0  0  0  0  0  0  0  0  0  0
   20.5410   20.0795   19.2128 H   0  0  0  0  0  0  0  0  0  0  0  0
   19.0582   19.8386   20.1494 H   0  0  0  0  0  0  0  0  0  0  0  0
  1  2  1  0  0  0  0
  1  3  1  0  0  0  0
  1  4  1  0  0  0  0
  1  5  1  0  0  0  0
  5  6  1  0  0  0  0
  5  7  1  0  0  0  0
  5  8  1  0  0  0  0
  8  9  1  0  0  0  0
  8 10  1  0  0  0  0
  8 11  1  0  0  0  0
 11 12  1  0  0  0  0
 11 13  1  0  0  0  0
 11 14  1  0  0  0  0
 14 15  1  0  0  0  0
 14 16  1  0  0  0  0
 14 17  1  0  0  0  0
 17 18  1  0  0  0  0
 17 19  1  0  0  0  0
 17 20  1  0  0  0  0
 20 21  1  0  0  0  0
 20 22  1  0  0  0  0
 20 23  1  0  0  0  0
M  END
> <VConfSearch Rank>
220

> <Conf_Id>
26

> <Delta U+W>
1.076

> <U+W>
-7.306

> <U>
48.641

> <W>
-55.947

> <W(PB)>
-58.031

> <W(SA)>
2.084

> <Valence>
2.922

> <Coulomb>
45.269

> <VdW>
0.449

> <VdW6>
-7.045

> <VdW12>
7.494

> <Bond>
0.220

> <Angle>
1.205

> <Pdih>
1.497

> <Idih>
0.000

> <Tether>
0.000

$$$$
VeraChem MOL file


 23 22  0  0  0  0  0  0  0  0999 V2000     
   22.2763   19.8019   24.3782 N   0  3  0  0  0  0  0  0  0  0  0  0
   22.5608   20.7837   24.3018 H   0  0  0  0  0  0  0  0  0  0  0  0
   23.1162   19.2666   24.6229 H   0  0  0  0  0  0  0  0  0  0  0  0
   21.6367   19.7345   25.1764 H   0  0  0  0  0  0  0  0  0  0  0  0
   21.6399   19.2971   23.0992 C   0  0  0  0  0  0  0  0  0  0  0  0
   21.3908   18.2423   23.2415 H   0  0  0  0  0  0  0  0  0  0  0  0
   22.3826   19.3707   22.3002 H   0  0  0  0  0  0  0  0  0  0  0  0
   20.3745   20.0808   22.7037 C   0  0  0  0  0  0  0  0  0  0  0  0
   19.6332   20.0185   23.5106 H   0  0  0  0  0  0  0  0  0  0  0  0
   20.6282   21.1440   22.5999 H   0  0  0  0  0  0  0  0  0  0  0  0
   19.7540   19.5828   21.3748 C   0  0  0  0  0  0  0  0  0  0  0  0
   20.4677   19.7659   20.5596 H   0  0  0  0  0  0  0  0  0  0  0  0
   18.8727   20.1939   21.1389 H   0  0  0  0  0  0  0  0  0  0  0  0
   19.3624   18.0804   21.3613 C   0  0  0  0  0  0  0  0  0  0  0  0
   18.9210   17.8421   20.3838 H   0  0  0  0  0  0  0  0  0  0  0  0
   20.2701   17.4661   21.4321 H   0  0  0  0  0  0  0  0  0  0  0  0
   18.3752   17.6462   22.4745 C   0  0  0  0  0  0  0  0  0  0  0  0
   18.8360   17.7766   23.4628 H   0  0  0  0  0  0  0  0  0  0  0  0
   18.1838   16.5689   22.3719 H   0  0  0  0  0  0  0  0  0  0  0  0
   17.0259   18.3980   22.4244 C   0  0  0  0  0  0  0  0  0  0  0  0
   17.1534   19.4678   22.6314 H   0  0  0  0  0  0  0  0  0  0  0  0
   16.3335   17.9962   23.1754 H   0  0  0  0  0  0  0  0  0  0  0  0
   16.5519   18.2924   21.4399 H   0  0  0  0  0  0  0  0  0  0  0  0
  1  2  1  0  0  0  0
  1  3  1  0  0  0  0
  1  4  1  0  0  0  0
  1  5  1  0  0  0  0
  5  6  1  0  0  0  0
  5  7  1  0  0  0  0
  5  8  1  0  0  0  0
  8  9  1  0  0  0  0
  8 10  1  0  0  0  0
  8 11  1  0  0  0  0
 11 12  1  0  0  0  0
 11 13  1  0  0  0  0
 11 14  1  0  0  0  0
 14 15  1  0  0  0  0
 14 16  1  0  0  0  0
 14 17  1  0  0  0  0
 17 18  1  0  0  0  0
 17 19  1  0  0  0  0
 17 20  1  0  0  0  0
 20 21  1  0  0  0  0
 20 22  1  0  0  0  0
 20 23  1  0  0  0  0
M  END
> <VConfSearch Rank>
221

> <Conf_Id>
90

> <Delta U+W>
1.131

> <U+W>
-7.251

> <U>
48.641

> <W>
-55.892

> <W(PB)>
-57.962

> <W(SA)>
2.070

> <Valence>
2.922

> <Coulomb>
45.269

> <VdW>
0.450

> <VdW6>
-7.045

> <VdW12>
7.495

> <Bond>
0.220

> <Angle>
1.205

> <Pdih>
1.497

> <Idih>
0.000

> <Tether>
0.000

$$$$
VeraChem MOL file


 23 22  0  0  0  0  0  0  0  0999 V2000     
   21.9012   17.3285   22.5527 N   0  3  0  0  0  0  0  0  0  0  0  0
   22.1017   16.3778   22.2243 H   0  0  0  0  0  0  0  0  0  0  0  0
   21.0927   17.2666   23.1789 H   0  0  0  0  0  0  0  0  0  0  0  0
   22.7024   17.6243   23.1194 H   0  0  0  0  0  0  0  0  0  0  0  0
   21.6444   18.2800   21.4008 C   0  0  0  0  0  0  0  0  0  0  0  0
   20.8022   17.8922   20.8221 H   0  0  0  0  0  0  0  0  0  0  0  0
   22.5292   18.2717   20.7585 H   0  0  0  0  0  0  0  0  0  0  0  0
   21.3490   19.7269   21.8462 C   0  0  0  0  0  0  0  0  0  0  0  0
   22.2201   20.1222   22.3853 H   0  0  0  0  0  0  0  0  0  0  0  0
   21.2327   20.3536   20.9521 H   0  0  0  0  0  0  0  0  0  0  0  0
   20.0885   19.8669   22.7361 C   0  0  0  0  0  0  0  0  0  0  0  0
   19.9711   20.9237   23.0128 H   0  0  0  0  0  0  0  0  0  0  0  0
   20.2408   19.3200   23.6751 H   0  0  0  0  0  0  0  0  0  0  0  0
   18.7948   19.3782   22.0367 C   0  0  0  0  0  0  0  0  0  0  0  0
   18.7057   19.8749   21.0607 H   0  0  0  0  0  0  0  0  0  0  0  0
   18.8585   18.3013   21.8314 H   0  0  0  0  0  0  0  0  0  0  0  0
   17.5110   19.6638   22.8526 C   0  0  0  0  0  0  0  0  0  0  0  0
   16.6380   19.3868   22.2452 H   0  0  0  0  0  0  0  0  0  0  0  0
   17.4229   20.7427   23.0425 H   0  0  0  0  0  0  0  0  0  0  0  0
   17.4510   18.8935   24.1913 C   0  0  0  0  0  0  0  0  0  0  0  0
   17.5634   17.8134   24.0311 H   0  0  0  0  0  0  0  0  0  0  0  0
   16.4859   19.0601   24.6871 H   0  0  0  0  0  0  0  0  0  0  0  0
   18.2369   19.2231   24.8820 H   0  0  0  0  0  0  0  0  0  0  0  0
  1  2  1  0  0  0  0
  1  3  1  0  0  0  0
  1  4  1  0  0  0  0
  1  5  1  0  0  0  0
  5  6  1  0  0  0  0
  5  7  1  0  0  0  0
  5  8  1  0  0  0  0
  8  9  1  0  0  0  0
  8 10  1  0  0  0  0
  8 11  1  0  0  0  0
 11 12  1  0  0  0  0
 11 13  1  0  0  0  0
 11 14  1  0  0  0  0
 14 15  1  0  0  0  0
 14 16  1  0  0  0  0
 14 17  1  0  0  0  0
 17 18  1  0  0  0  0
 17 19  1  0  0  0  0
 17 20  1  0  0  0  0
 20 21  1  0  0  0  0
 20 22  1  0  0  0  0
 20 23  1  0  0  0  0
M  END
> <VConfSearch Rank>
222

> <Conf_Id>
85

> <Delta U+W>
1.193

> <U+W>
-7.189

> <U>
48.775

> <W>
-55.965

> <W(PB)>
-58.038

> <W(SA)>
2.073

> <Valence>
2.602

> <Coulomb>
45.581

> <VdW>
0.592

> <VdW6>
-6.616

> <VdW12>
7.208

> <Bond>
0.196

> <Angle>
0.832

> <Pdih>
1.574

> <Idih>
0.000

> <Tether>
0.000

$$$$
VeraChem MOL file


 23 22  0  0  0  0  0  0  0  0999 V2000     
   20.2731   19.4807   24.4732 N   0  3  0  0  0  0  0  0  0  0  0  0
   20.7705   19.2339   23.6115 H   0  0  0  0  0  0  0  0  0  0  0  0
   20.7137   18.9633   25.2415 H   0  0  0  0  0  0  0  0  0  0  0  0
   20.4411   20.4767   24.6489 H   0  0  0  0  0  0  0  0  0  0  0  0
   18.7924   19.1726   24.3632 C   0  0  0  0  0  0  0  0  0  0  0  0
   18.3345   19.4625   25.3129 H   0  0  0  0  0  0  0  0  0  0  0  0
   18.6671   18.0934   24.2419 H   0  0  0  0  0  0  0  0  0  0  0  0
   18.0808   19.9153   23.2139 C   0  0  0  0  0  0  0  0  0  0  0  0
   17.0098   19.9525   23.4533 H   0  0  0  0  0  0  0  0  0  0  0  0
   18.4162   20.9606   23.1838 H   0  0  0  0  0  0  0  0  0  0  0  0
   18.2306   19.2652   21.8122 C   0  0  0  0  0  0  0  0  0  0  0  0
   17.6335   19.8615   21.1082 H   0  0  0  0  0  0  0  0  0  0  0  0
   17.7734   18.2660   21.8114 H   0  0  0  0  0  0  0  0  0  0  0  0
   19.6801   19.1897   21.2676 C   0  0  0  0  0  0  0  0  0  0  0  0
   19.6537   19.3538   20.1813 H   0  0  0  0  0  0  0  0  0  0  0  0
   20.2818   20.0126   21.6758 H   0  0  0  0  0  0  0  0  0  0  0  0
   20.3574   17.8214   21.5249 C   0  0  0  0  0  0  0  0  0  0  0  0
   19.8236   17.0420   20.9630 H   0  0  0  0  0  0  0  0  0  0  0  0
   20.2836   17.5360   22.5810 H   0  0  0  0  0  0  0  0  0  0  0  0
   21.8401   17.8292   21.0969 C   0  0  0  0  0  0  0  0  0  0  0  0
   21.9402   18.0602   20.0283 H   0  0  0  0  0  0  0  0  0  0  0  0
   22.2992   16.8476   21.2726 H   0  0  0  0  0  0  0  0  0  0  0  0
   22.4141   18.5750   21.6617 H   0  0  0  0  0  0  0  0  0  0  0  0
  1  2  1  0  0  0  0
  1  3  1  0  0  0  0
  1  4  1  0  0  0  0
  1  5  1  0  0  0  0
  5  6  1  0  0  0  0
  5  7  1  0  0  0  0
  5  8  1  0  0  0  0
  8  9  1  0  0  0  0
  8 10  1  0  0  0  0
  8 11  1  0  0  0  0
 11 12  1  0  0  0  0
 11 13  1  0  0  0  0
 11 14  1  0  0  0  0
 14 15  1  0  0  0  0
 14 16  1  0  0  0  0
 14 17  1  0  0  0  0
 17 18  1  0  0  0  0
 17 19  1  0  0  0  0
 17 20  1  0  0  0  0
 20 21  1  0  0  0  0
 20 22  1  0  0  0  0
 20 23  1  0  0  0  0
M  END
> <VConfSearch Rank>
223

> <Conf_Id>
82

> <Delta U+W>
5.994

> <U+W>
-2.388

> <U>
52.836

> <W>
-55.224

> <W(PB)>
-57.261

> <W(SA)>
2.037

> <Valence>
5.785

> <Coulomb>
46.744

> <VdW>
0.307

> <VdW6>
-7.672

> <VdW12>
7.979

> <Bond>
0.217

> <Angle>
1.470

> <Pdih>
4.098

> <Idih>
0.000

> <Tether>
0.000

$$$$
VeraChem MOL file


 23 22  0  0  0  0  0  0  0  0999 V2000     
   19.5565   20.7824   21.5767 N   0  3  0  0  0  0  0  0  0  0  0  0
   20.3474   21.1777   21.0579 H   0  0  0  0  0  0  0  0  0  0  0  0
   18.7093   21.2427   21.2264 H   0  0  0  0  0  0  0  0  0  0  0  0
   19.4925   19.7902   21.3277 H   0  0  0  0  0  0  0  0  0  0  0  0
   19.7194   20.9663   23.0732 C   0  0  0  0  0  0  0  0  0  0  0  0
   18.8234   20.5879   23.5722 H   0  0  0  0  0  0  0  0  0  0  0  0
   19.7816   22.0422   23.2577 H   0  0  0  0  0  0  0  0  0  0  0  0
   20.9727   20.2824   23.6564 C   0  0  0  0  0  0  0  0  0  0  0  0
   21.8325   20.4584   22.9964 H   0  0  0  0  0  0  0  0  0  0  0  0
   21.2159   20.7829   24.6031 H   0  0  0  0  0  0  0  0  0  0  0  0
   20.8241   18.7647   23.9476 C   0  0  0  0  0  0  0  0  0  0  0  0
   20.0494   18.6033   24.7100 H   0  0  0  0  0  0  0  0  0  0  0  0
   21.7628   18.4251   24.4069 H   0  0  0  0  0  0  0  0  0  0  0  0
   20.5473   17.8757   22.7082 C   0  0  0  0  0  0  0  0  0  0  0  0
   20.9852   18.3305   21.8098 H   0  0  0  0  0  0  0  0  0  0  0  0
   21.0720   16.9192   22.8408 H   0  0  0  0  0  0  0  0  0  0  0  0
   19.0439   17.5679   22.5024 C   0  0  0  0  0  0  0  0  0  0  0  0
   18.4475   18.4880   22.5086 H   0  0  0  0  0  0  0  0  0  0  0  0
   18.6790   16.9652   23.3459 H   0  0  0  0  0  0  0  0  0  0  0  0
   18.7932   16.8018   21.1863 C   0  0  0  0  0  0  0  0  0  0  0  0
   19.1159   17.3880   20.3162 H   0  0  0  0  0  0  0  0  0  0  0  0
   17.7251   16.5794   21.0649 H   0  0  0  0  0  0  0  0  0  0  0  0
   19.3379   15.8486   21.1758 H   0  0  0  0  0  0  0  0  0  0  0  0
  1  2  1  0  0  0  0
  1  3  1  0  0  0  0
  1  4  1  0  0  0  0
  1  5  1  0  0  0  0
  5  6  1  0  0  0  0
  5  7  1  0  0  0  0
  5  8  1  0  0  0  0
  8  9  1  0  0  0  0
  8 10  1  0  0  0  0
  8 11  1  0  0  0  0
 11 12  1  0  0  0  0
 11 13  1  0  0  0  0
 11 14  1  0  0  0  0
 14 15  1  0  0  0  0
 14 16  1  0  0  0  0
 14 17  1  0  0  0  0
 17 18  1  0  0  0  0
 17 19  1  0  0  0  0
 17 20  1  0  0  0  0
 20 21  1  0  0  0  0
 20 22  1  0  0  0  0
 20 23  1  0  0  0  0
M  END
> <VConfSearch Rank>
224

> <Conf_Id>
5

> <Delta U+W>
6.087

> <U+W>
-2.295

> <U>
52.836

> <W>
-55.131

> <W(PB)>
-57.202

> <W(SA)>
2.071

> <Valence>
5.785

> <Coulomb>
46.744

> <VdW>
0.307

> <VdW6>
-7.672

> <VdW12>
7.980

> <Bond>
0.217

> <Angle>
1.470

> <Pdih>
4.098

> <Idih>
0.000

> <Tether>
0.000

$$$$
VeraChem MOL file


 23 22  0  0  0  0  0  0  0  0999 V2000     
   18.9246   21.2592   19.6050 N   0  3  0  0  0  0  0  0  0  0  0  0
   17.9857   21.5227   19.9210 H   0  0  0  0  0  0  0  0  0  0  0  0
   18.8947   21.2224   18.5804 H   0  0  0  0  0  0  0  0  0  0  0  0
   19.5544   22.0277   19.8570 H   0  0  0  0  0  0  0  0  0  0  0  0
   19.3733   19.9410   20.2026 C   0  0  0  0  0  0  0  0  0  0  0  0
   20.3636   19.7085   19.8018 H   0  0  0  0  0  0  0  0  0  0  0  0
   18.6775   19.1657   19.8705 H   0  0  0  0  0  0  0  0  0  0  0  0
   19.4288   19.9631   21.7404 C   0  0  0  0  0  0  0  0  0  0  0  0
   20.1162   20.7538   22.0695 H   0  0  0  0  0  0  0  0  0  0  0  0
   18.4360   20.2130   22.1379 H   0  0  0  0  0  0  0  0  0  0  0  0
   19.8897   18.6029   22.3092 C   0  0  0  0  0  0  0  0  0  0  0  0
   20.8809   18.3539   21.9050 H   0  0  0  0  0  0  0  0  0  0  0  0
   19.2025   17.8137   21.9734 H   0  0  0  0  0  0  0  0  0  0  0  0
   19.9492   18.6137   23.8537 C   0  0  0  0  0  0  0  0  0  0  0  0
   20.6364   19.4026   24.1896 H   0  0  0  0  0  0  0  0  0  0  0  0
   18.9582   18.8626   24.2580 H   0  0  0  0  0  0  0  0  0  0  0  0
   20.4101   17.2532   24.4222 C   0  0  0  0  0  0  0  0  0  0  0  0
   21.4023   17.0008   24.0225 H   0  0  0  0  0  0  0  0  0  0  0  0
   19.7242   16.4609   24.0909 H   0  0  0  0  0  0  0  0  0  0  0  0
   20.4682   17.2679   25.9646 C   0  0  0  0  0  0  0  0  0  0  0  0
   20.7973   16.2939   26.3494 H   0  0  0  0  0  0  0  0  0  0  0  0
   19.4816   17.4841   26.3948 H   0  0  0  0  0  0  0  0  0  0  0  0
   21.1728   18.0283   26.3259 H   0  0  0  0  0  0  0  0  0  0  0  0
  1  2  1  0  0  0  0
  1  3  1  0  0  0  0
  1  4  1  0  0  0  0
  1  5  1  0  0  0  0
  5  6  1  0  0  0  0
  5  7  1  0  0  0  0
  5  8  1  0  0  0  0
  8  9  1  0  0  0  0
  8 10  1  0  0  0  0
  8 11  1  0  0  0  0
 11 12  1  0  0  0  0
 11 13  1  0  0  0  0
 11 14  1  0  0  0  0
 14 15  1  0  0  0  0
 14 16  1  0  0  0  0
 14 17  1  0  0  0  0
 17 18  1  0  0  0  0
 17 19  1  0  0  0  0
 17 20  1  0  0  0  0
 20 21  1  0  0  0  0
 20 22  1  0  0  0  0
 20 23  1  0  0  0  0
M  END
> <VConfSearch Rank>
225

> <Conf_Id>
40

> <Delta U+W>
0.000

> <U+W>
-8.382

> <U>
46.604

> <W>
-54.986

> <W(PB)>
-57.162

> <W(SA)>
2.176

> <Valence>
1.727

> <Coulomb>
44.434

> <VdW>
0.443

> <VdW6>
-4.623

> <VdW12>
5.066

> <Bond>
0.112

> <Angle>
0.386

> <Pdih>
1.228

> <Idih>
0.000

> <Tether>
0.000

$$$$
VeraChem MOL file


 23 22  0  0  0  0  0  0  0  0999 V2000     
   18.2417   16.2142   24.2190 N   0  3  0  0  0  0  0  0  0  0  0  0
   17.6390   16.5274   24.9868 H   0  0  0  0  0  0  0  0  0  0  0  0
   19.0949   15.8341   24.6413 H   0  0  0  0  0  0  0  0  0  0  0  0
   17.7605   15.4316   23.7629 H   0  0  0  0  0  0  0  0  0  0  0  0
   18.5438   17.3343   23.2444 C   0  0  0  0  0  0  0  0  0  0  0  0
   17.5971   17.6708   22.8130 H   0  0  0  0  0  0  0  0  0  0  0  0
   19.1607   16.9223   22.4418 H   0  0  0  0  0  0  0  0  0  0  0  0
   19.2668   18.5261   23.9002 C   0  0  0  0  0  0  0  0  0  0  0  0
   18.6574   18.8987   24.7343 H   0  0  0  0  0  0  0  0  0  0  0  0
   20.2183   18.1889   24.3326 H   0  0  0  0  0  0  0  0  0  0  0  0
   19.5273   19.6879   22.9123 C   0  0  0  0  0  0  0  0  0  0  0  0
   19.9374   20.5343   23.4783 H   0  0  0  0  0  0  0  0  0  0  0  0
   18.5727   20.0294   22.4886 H   0  0  0  0  0  0  0  0  0  0  0  0
   20.5013   19.3067   21.7683 C   0  0  0  0  0  0  0  0  0  0  0  0
   21.4626   18.9851   22.1920 H   0  0  0  0  0  0  0  0  0  0  0  0
   20.1023   18.4444   21.2181 H   0  0  0  0  0  0  0  0  0  0  0  0
   20.7415   20.4533   20.7563 C   0  0  0  0  0  0  0  0  0  0  0  0
   19.7840   20.7722   20.3213 H   0  0  0  0  0  0  0  0  0  0  0  0
   21.3435   20.0660   19.9224 H   0  0  0  0  0  0  0  0  0  0  0  0
   21.4675   21.6735   21.3674 C   0  0  0  0  0  0  0  0  0  0  0  0
   20.8498   22.1748   22.1226 H   0  0  0  0  0  0  0  0  0  0  0  0
   21.6988   22.4120   20.5888 H   0  0  0  0  0  0  0  0  0  0  0  0
   22.4133   21.3755   21.8382 H   0  0  0  0  0  0  0  0  0  0  0  0
  1  2  1  0  0  0  0
  1  3  1  0  0  0  0
  1  4  1  0  0  0  0
  1  5  1  0  0  0  0
  5  6  1  0  0  0  0
  5  7  1  0  0  0  0
  5  8  1  0  0  0  0
  8  9  1  0  0  0  0
  8 10  1  0  0  0  0
  8 11  1  0  0  0  0
 11 12  1  0  0  0  0
 11 13  1  0  0  0  0
 11 14  1  0  0  0  0
 14 15  1  0  0  0  0
 14 16  1  0  0  0  0
 14 17  1  0  0  0  0
 17 18  1  0  0  0  0
 17 19  1  0  0  0  0
 17 20  1  0  0  0  0
 20 21  1  0  0  0  0
 20 22  1  0  0  0  0
 20 23  1  0  0  0  0
M  END
> <VConfSearch Rank>
226

> <Conf_Id>
65

> <Delta U+W>
1.004

> <U+W>
-7.378

> <U>
48.047

> <W>
-55.425

> <W(PB)>
-57.542

> <W(SA)>
2.116

> <Valence>
2.583

> <Coulomb>
44.791

> <VdW>
0.673

> <VdW6>
-5.788

> <VdW12>
6.462

> <Bond>
0.177

> <Angle>
0.787

> <Pdih>
1.619

> <Idih>
0.000

> <Tether>
0.000

$$$$
VeraChem MOL file


 23 22  0  0  0  0  0  0  0  0999 V2000     
   20.1577   16.2869   20.3420 N   0  3  0  0  0  0  0  0  0  0  0  0
   20.8194   15.6015   20.7205 H   0  0  0  0  0  0  0  0  0  0  0  0
   20.3347   16.3462   19.3335 H   0  0  0  0  0  0  0  0  0  0  0  0
   19.2179   15.8939   20.4569 H   0  0  0  0  0  0  0  0  0  0  0  0
   20.2929   17.6362   21.0178 C   0  0  0  0  0  0  0  0  0  0  0  0
   19.5832   18.3199   20.5451 H   0  0  0  0  0  0  0  0  0  0  0  0
   21.3045   18.0070   20.8317 H   0  0  0  0  0  0  0  0  0  0  0  0
   20.0329   17.5798   22.5352 C   0  0  0  0  0  0  0  0  0  0  0  0
   19.0165   17.2086   22.7227 H   0  0  0  0  0  0  0  0  0  0  0  0
   20.7210   16.8541   22.9889 H   0  0  0  0  0  0  0  0  0  0  0  0
   20.2221   18.9501   23.2281 C   0  0  0  0  0  0  0  0  0  0  0  0
   21.2428   19.3143   23.0470 H   0  0  0  0  0  0  0  0  0  0  0  0
   20.1321   18.8019   24.3120 H   0  0  0  0  0  0  0  0  0  0  0  0
   19.1960   20.0142   22.7620 C   0  0  0  0  0  0  0  0  0  0  0  0
   19.2696   20.1439   21.6742 H   0  0  0  0  0  0  0  0  0  0  0  0
   18.1760   19.6582   22.9624 H   0  0  0  0  0  0  0  0  0  0  0  0
   19.3990   21.3979   23.4258 C   0  0  0  0  0  0  0  0  0  0  0  0
   18.7127   22.1170   22.9571 H   0  0  0  0  0  0  0  0  0  0  0  0
   20.4145   21.7639   23.2197 H   0  0  0  0  0  0  0  0  0  0  0  0
   19.1469   21.3934   24.9509 C   0  0  0  0  0  0  0  0  0  0  0  0
   19.8901   20.7856   25.4815 H   0  0  0  0  0  0  0  0  0  0  0  0
   18.1492   21.0002   25.1853 H   0  0  0  0  0  0  0  0  0  0  0  0
   19.2083   22.4130   25.3530 H   0  0  0  0  0  0  0  0  0  0  0  0
  1  2  1  0  0  0  0
  1  3  1  0  0  0  0
  1  4  1  0  0  0  0
  1  5  1  0  0  0  0
  5  6  1  0  0  0  0
  5  7  1  0  0  0  0
  5  8  1  0  0  0  0
  8  9  1  0  0  0  0
  8 10  1  0  0  0  0
  8 11  1  0  0  0  0
 11 12  1  0  0  0  0
 11 13  1  0  0  0  0
 11 14  1  0  0  0  0
 14 15  1  0  0  0  0
 14 16  1  0  0  0  0
 14 17  1  0  0  0  0
 17 18  1  0  0  0  0
 17 19  1  0  0  0  0
 17 20  1  0  0  0  0
 20 21  1  0  0  0  0
 20 22  1  0  0  0  0
 20 23  1  0  0  0  0
M  END
> <VConfSearch Rank>
227

> <Conf_Id>
92

> <Delta U+W>
0.973

> <U+W>
-7.409

> <U>
48.047

> <W>
-55.456

> <W(PB)>
-57.595

> <W(SA)>
2.138

> <Valence>
2.583

> <Coulomb>
44.791

> <VdW>
0.674

> <VdW6>
-5.789

> <VdW12>
6.462

> <Bond>
0.177

> <Angle>
0.787

> <Pdih>
1.619

> <Idih>
0.000

> <Tether>
0.000

$$$$
VeraChem MOL file


 23 22  0  0  0  0  0  0  0  0999 V2000     
   19.8476   22.5005   22.7364 N   0  3  0  0  0  0  0  0  0  0  0  0
   20.3078   22.9897   23.5117 H   0  0  0  0  0  0  0  0  0  0  0  0
   18.9635   22.9882   22.5597 H   0  0  0  0  0  0  0  0  0  0  0  0
   20.4366   22.6345   21.9082 H   0  0  0  0  0  0  0  0  0  0  0  0
   19.6319   21.0330   23.0456 C   0  0  0  0  0  0  0  0  0  0  0  0
   19.0234   20.9648   23.9514 H   0  0  0  0  0  0  0  0  0  0  0  0
   20.6081   20.5870   23.2523 H   0  0  0  0  0  0  0  0  0  0  0  0
   18.9417   20.2699   21.8992 C   0  0  0  0  0  0  0  0  0  0  0  0
   17.9829   20.7547   21.6718 H   0  0  0  0  0  0  0  0  0  0  0  0
   19.5525   20.3392   20.9892 H   0  0  0  0  0  0  0  0  0  0  0  0
   18.6838   18.7833   22.2404 C   0  0  0  0  0  0  0  0  0  0  0  0
   18.1098   18.3284   21.4212 H   0  0  0  0  0  0  0  0  0  0  0  0
   18.0512   18.7175   23.1365 H   0  0  0  0  0  0  0  0  0  0  0  0
   19.9854   17.9750   22.4594 C   0  0  0  0  0  0  0  0  0  0  0  0
   20.6301   18.0701   21.5746 H   0  0  0  0  0  0  0  0  0  0  0  0
   20.5464   18.3890   23.3079 H   0  0  0  0  0  0  0  0  0  0  0  0
   19.6952   16.4811   22.7253 C   0  0  0  0  0  0  0  0  0  0  0  0
   19.1408   16.0537   21.8779 H   0  0  0  0  0  0  0  0  0  0  0  0
   19.0499   16.3801   23.6092 H   0  0  0  0  0  0  0  0  0  0  0  0
   20.9938   15.6762   22.9449 C   0  0  0  0  0  0  0  0  0  0  0  0
   21.6458   15.7305   22.0633 H   0  0  0  0  0  0  0  0  0  0  0  0
   20.7674   14.6184   23.1316 H   0  0  0  0  0  0  0  0  0  0  0  0
   21.5539   16.0582   23.8084 H   0  0  0  0  0  0  0  0  0  0  0  0
  1  2  1  0  0  0  0
  1  3  1  0  0  0  0
  1  4  1  0  0  0  0
  1  5  1  0  0  0  0
  5  6  1  0  0  0  0
  5  7  1  0  0  0  0
  5  8  1  0  0  0  0
  8  9  1  0  0  0  0
  8 10  1  0  0  0  0
  8 11  1  0  0  0  0
 11 12  1  0  0  0  0
 11 13  1  0  0  0  0
 11 14  1  0  0  0  0
 14 15  1  0  0  0  0
 14 16  1  0  0  0  0
 14 17  1  0  0  0  0
 17 18  1  0  0  0  0
 17 19  1  0  0  0  0
 17 20  1  0  0  0  0
 20 21  1  0  0  0  0
 20 22  1  0  0  0  0
 20 23  1  0  0  0  0
M  END
> <VConfSearch Rank>
228

> <Conf_Id>
42

> <Delta U+W>
0.365

> <U+W>
-8.017

> <U>
47.375

> <W>
-55.392

> <W(PB)>
-57.543

> <W(SA)>
2.152

> <Valence>
2.032

> <Coulomb>
44.843

> <VdW>
0.499

> <VdW6>
-5.218

> <VdW12>
5.717

> <Bond>
0.135

> <Angle>
0.514

> <Pdih>
1.383

> <Idih>
0.000

> <Tether>
0.000

$$$$
VeraChem MOL file


 23 22  0  0  0  0  0  0  0  0999 V2000     
   21.2696   21.7776   22.5292 N   0  3  0  0  0  0  0  0  0  0  0  0
   22.1719   21.3633   22.7837 H   0  0  0  0  0  0  0  0  0  0  0  0
   21.3506   22.7883   22.6837 H   0  0  0  0  0  0  0  0  0  0  0  0
   21.1457   21.6382   21.5219 H   0  0  0  0  0  0  0  0  0  0  0  0
   20.1282   21.1763   23.3262 C   0  0  0  0  0  0  0  0  0  0  0  0
   19.2031   21.6756   23.0256 H   0  0  0  0  0  0  0  0  0  0  0  0
   20.3084   21.4005   24.3811 H   0  0  0  0  0  0  0  0  0  0  0  0
   19.9775   19.6529   23.1479 C   0  0  0  0  0  0  0  0  0  0  0  0
   20.9168   19.1559   23.4241 H   0  0  0  0  0  0  0  0  0  0  0  0
   19.2124   19.3071   23.8536 H   0  0  0  0  0  0  0  0  0  0  0  0
   19.5668   19.2565   21.7088 C   0  0  0  0  0  0  0  0  0  0  0  0
   20.2768   19.6916   20.9933 H   0  0  0  0  0  0  0  0  0  0  0  0
   18.5882   19.6983   21.4750 H   0  0  0  0  0  0  0  0  0  0  0  0
   19.5141   17.7271   21.4573 C   0  0  0  0  0  0  0  0  0  0  0  0
   19.2573   17.5754   20.3996 H   0  0  0  0  0  0  0  0  0  0  0  0
   20.5137   17.2890   21.5837 H   0  0  0  0  0  0  0  0  0  0  0  0
   18.4789   16.9590   22.3191 C   0  0  0  0  0  0  0  0  0  0  0  0
   18.0500   16.1494   21.7121 H   0  0  0  0  0  0  0  0  0  0  0  0
   17.6382   17.6158   22.5828 H   0  0  0  0  0  0  0  0  0  0  0  0
   19.0885   16.3272   23.5925 C   0  0  0  0  0  0  0  0  0  0  0  0
   19.8797   15.6115   23.3340 H   0  0  0  0  0  0  0  0  0  0  0  0
   18.3200   15.7835   24.1570 H   0  0  0  0  0  0  0  0  0  0  0  0
   19.5209   17.0799   24.2608 H   0  0  0  0  0  0  0  0  0  0  0  0
  1  2  1  0  0  0  0
  1  3  1  0  0  0  0
  1  4  1  0  0  0  0
  1  5  1  0  0  0  0
  5  6  1  0  0  0  0
  5  7  1  0  0  0  0
  5  8  1  0  0  0  0
  8  9  1  0  0  0  0
  8 10  1  0  0  0  0
  8 11  1  0  0  0  0
 11 12  1  0  0  0  0
 11 13  1  0  0  0  0
 11 14  1  0  0  0  0
 14 15  1  0  0  0  0
 14 16  1  0  0  0  0
 14 17  1  0  0  0  0
 17 18  1  0  0  0  0
 17 19  1  0  0  0  0
 17 20  1  0  0  0  0
 20 21  1  0  0  0  0
 20 22  1  0  0  0  0
 20 23  1  0  0  0  0
M  END
> <VConfSearch Rank>
229

> <Conf_Id>
3

> <Delta U+W>
3.283

> <U+W>
-5.099

> <U>
50.701

> <W>
-55.800

> <W(PB)>
-57.867

> <W(SA)>
2.067

> <Valence>
4.880

> <Coulomb>
45.095

> <VdW>
0.726

> <VdW6>
-6.620

> <VdW12>
7.346

> <Bond>
0.222

> <Angle>
1.260

> <Pdih>
3.398

> <Idih>
0.000

> <Tether>
0.000

$$$$
VeraChem MOL file


 23 22  0  0  0  0  0  0  0  0999 V2000     
   19.8268   17.9986   19.8766 N   0  3  0  0  0  0  0  0  0  0  0  0
   18.9214   17.6260   19.5736 H   0  0  0  0  0  0  0  0  0  0  0  0
   20.4683   17.9099   19.0814 H   0  0  0  0  0  0  0  0  0  0  0  0
   19.6998   19.0003   20.0505 H   0  0  0  0  0  0  0  0  0  0  0  0
   20.3491   17.2795   21.1048 C   0  0  0  0  0  0  0  0  0  0  0  0
   21.3256   17.7016   21.3554 H   0  0  0  0  0  0  0  0  0  0  0  0
   20.4932   16.2288   20.8388 H   0  0  0  0  0  0  0  0  0  0  0  0
   19.4098   17.3735   22.3247 C   0  0  0  0  0  0  0  0  0  0  0  0
   18.4511   16.8998   22.0753 H   0  0  0  0  0  0  0  0  0  0  0  0
   19.8379   16.7825   23.1453 H   0  0  0  0  0  0  0  0  0  0  0  0
   19.1521   18.8199   22.8178 C   0  0  0  0  0  0  0  0  0  0  0  0
   18.4443   18.7721   23.6555 H   0  0  0  0  0  0  0  0  0  0  0  0
   18.6543   19.4006   22.0299 H   0  0  0  0  0  0  0  0  0  0  0  0
   20.4426   19.5490   23.2710 C   0  0  0  0  0  0  0  0  0  0  0  0
   20.9247   18.9808   24.0784 H   0  0  0  0  0  0  0  0  0  0  0  0
   21.1608   19.5758   22.4410 H   0  0  0  0  0  0  0  0  0  0  0  0
   20.1961   21.0036   23.7397 C   0  0  0  0  0  0  0  0  0  0  0  0
   19.7237   21.5799   22.9320 H   0  0  0  0  0  0  0  0  0  0  0  0
   21.1675   21.4812   23.9297 H   0  0  0  0  0  0  0  0  0  0  0  0
   19.3363   21.1017   25.0205 C   0  0  0  0  0  0  0  0  0  0  0  0
   19.7702   20.5063   25.8342 H   0  0  0  0  0  0  0  0  0  0  0  0
   18.3111   20.7522   24.8468 H   0  0  0  0  0  0  0  0  0  0  0  0
   19.2751   22.1429   25.3628 H   0  0  0  0  0  0  0  0  0  0  0  0
  1  2  1  0  0  0  0
  1  3  1  0  0  0  0
  1  4  1  0  0  0  0
  1  5  1  0  0  0  0
  5  6  1  0  0  0  0
  5  7  1  0  0  0  0
  5  8  1  0  0  0  0
  8  9  1  0  0  0  0
  8 10  1  0  0  0  0
  8 11  1  0  0  0  0
 11 12  1  0  0  0  0
 11 13  1  0  0  0  0
 11 14  1  0  0  0  0
 14 15  1  0  0  0  0
 14 16  1  0  0  0  0
 14 17  1  0  0  0  0
 17 18  1  0  0  0  0
 17 19  1  0  0  0  0
 17 20  1  0  0  0  0
 20 21  1  0  0  0  0
 20 22  1  0  0  0  0
 20 23  1  0  0  0  0
M  END
> <VConfSearch Rank>
230

> <Conf_Id>
83

> <Delta U+W>
1.229

> <U+W>
-7.154

> <U>
48.727

> <W>
-55.880

> <W(PB)>
-57.960

> <W(SA)>
2.080

> <Valence>
2.671

> <Coulomb>
45.371

> <VdW>
0.684

> <VdW6>
-6.511

> <VdW12>
7.195

> <Bond>
0.203

> <Angle>
0.915

> <Pdih>
1.554

> <Idih>
0.000

> <Tether>
0.000

$$$$
VeraChem MOL file


 23 22  0  0  0  0  0  0  0  0999 V2000     
   22.5307   19.7515   22.6481 N   0  3  0  0  0  0  0  0  0  0  0  0
   23.1602   18.9618   22.4728 H   0  0  0  0  0  0  0  0  0  0  0  0
   22.0153   19.5433   23.5088 H   0  0  0  0  0  0  0  0  0  0  0  0
   23.1210   20.5678   22.8405 H   0  0  0  0  0  0  0  0  0  0  0  0
   21.5947   19.9953   21.4808 C   0  0  0  0  0  0  0  0  0  0  0  0
   22.2071   20.2442   20.6098 H   0  0  0  0  0  0  0  0  0  0  0  0
   20.9758   20.8643   21.7180 H   0  0  0  0  0  0  0  0  0  0  0  0
   20.6951   18.7883   21.1446 C   0  0  0  0  0  0  0  0  0  0  0  0
   20.0939   19.0329   20.2588 H   0  0  0  0  0  0  0  0  0  0  0  0
   21.3289   17.9385   20.8583 H   0  0  0  0  0  0  0  0  0  0  0  0
   19.7533   18.3576   22.2975 C   0  0  0  0  0  0  0  0  0  0  0  0
   20.3458   18.0379   23.1649 H   0  0  0  0  0  0  0  0  0  0  0  0
   19.1941   17.4728   21.9667 H   0  0  0  0  0  0  0  0  0  0  0  0
   18.7601   19.4694   22.7215 C   0  0  0  0  0  0  0  0  0  0  0  0
   19.3181   20.3633   23.0295 H   0  0  0  0  0  0  0  0  0  0  0  0
   18.1489   19.7685   21.8589 H   0  0  0  0  0  0  0  0  0  0  0  0
   17.8342   19.0550   23.8909 C   0  0  0  0  0  0  0  0  0  0  0  0
   17.2489   19.9311   24.2034 H   0  0  0  0  0  0  0  0  0  0  0  0
   18.4402   18.7648   24.7606 H   0  0  0  0  0  0  0  0  0  0  0  0
   16.8597   17.9104   23.5306 C   0  0  0  0  0  0  0  0  0  0  0  0
   16.2649   18.1628   22.6432 H   0  0  0  0  0  0  0  0  0  0  0  0
   16.1638   17.7240   24.3587 H   0  0  0  0  0  0  0  0  0  0  0  0
   17.3933   16.9728   23.3323 H   0  0  0  0  0  0  0  0  0  0  0  0
  1  2  1  0  0  0  0
  1  3  1  0  0  0  0
  1  4  1  0  0  0  0
  1  5  1  0  0  0  0
  5  6  1  0  0  0  0
  5  7  1  0  0  0  0
  5  8  1  0  0  0  0
  8  9  1  0  0  0  0
  8 10  1  0  0  0  0
  8 11  1  0  0  0  0
 11 12  1  0  0  0  0
 11 13  1  0  0  0  0
 11 14  1  0  0  0  0
 14 15  1  0  0  0  0
 14 16  1  0  0  0  0
 14 17  1  0  0  0  0
 17 18  1  0  0  0  0
 17 19  1  0  0  0  0
 17 20  1  0  0  0  0
 20 21  1  0  0  0  0
 20 22  1  0  0  0  0
 20 23  1  0  0  0  0
M  END
> <VConfSearch Rank>
231

> <Conf_Id>
50

> <Delta U+W>
1.252

> <U+W>
-7.130

> <U>
48.727

> <W>
-55.857

> <W(PB)>
-57.937

> <W(SA)>
2.080

> <Valence>
2.671

> <Coulomb>
45.371

> <VdW>
0.684

> <VdW6>
-6.511

> <VdW12>
7.196

> <Bond>
0.203

> <Angle>
0.915

> <Pdih>
1.554

> <Idih>
0.000

> <Tether>
0.000

$$$$
VeraChem MOL file


 23 22  0  0  0  0  0  0  0  0999 V2000     
   17.5704   20.3396   20.7576 N   0  3  0  0  0  0  0  0  0  0  0  0
   17.6393   19.3837   20.3955 H   0  0  0  0  0  0  0  0  0  0  0  0
   17.3721   20.9494   19.9572 H   0  0  0  0  0  0  0  0  0  0  0  0
   16.7490   20.3735   21.3698 H   0  0  0  0  0  0  0  0  0  0  0  0
   18.8334   20.7583   21.4848 C   0  0  0  0  0  0  0  0  0  0  0  0
   18.7030   21.7958   21.8045 H   0  0  0  0  0  0  0  0  0  0  0  0
   19.6624   20.7232   20.7728 H   0  0  0  0  0  0  0  0  0  0  0  0
   19.1651   19.8845   22.7100 C   0  0  0  0  0  0  0  0  0  0  0  0
   20.0229   20.3297   23.2262 H   0  0  0  0  0  0  0  0  0  0  0  0
   18.3276   19.9188   23.4194 H   0  0  0  0  0  0  0  0  0  0  0  0
   19.4721   18.4137   22.3289 C   0  0  0  0  0  0  0  0  0  0  0  0
   20.2445   18.3740   21.5483 H   0  0  0  0  0  0  0  0  0  0  0  0
   18.5691   17.9723   21.8865 H   0  0  0  0  0  0  0  0  0  0  0  0
   19.8942   17.5399   23.5390 C   0  0  0  0  0  0  0  0  0  0  0  0
   19.4284   17.9140   24.4610 H   0  0  0  0  0  0  0  0  0  0  0  0
   19.4866   16.5302   23.3908 H   0  0  0  0  0  0  0  0  0  0  0  0
   21.4257   17.3994   23.7342 C   0  0  0  0  0  0  0  0  0  0  0  0
   21.8688   16.9296   22.8449 H   0  0  0  0  0  0  0  0  0  0  0  0
   21.6086   16.7059   24.5669 H   0  0  0  0  0  0  0  0  0  0  0  0
   22.1549   18.7286   24.0281 C   0  0  0  0  0  0  0  0  0  0  0  0
   21.6975   19.2522   24.8775 H   0  0  0  0  0  0  0  0  0  0  0  0
   22.1381   19.3938   23.1560 H   0  0  0  0  0  0  0  0  0  0  0  0
   23.2075   18.5415   24.2767 H   0  0  0  0  0  0  0  0  0  0  0  0
  1  2  1  0  0  0  0
  1  3  1  0  0  0  0
  1  4  1  0  0  0  0
  1  5  1  0  0  0  0
  5  6  1  0  0  0  0
  5  7  1  0  0  0  0
  5  8  1  0  0  0  0
  8  9  1  0  0  0  0
  8 10  1  0  0  0  0
  8 11  1  0  0  0  0
 11 12  1  0  0  0  0
 11 13  1  0  0  0  0
 11 14  1  0  0  0  0
 14 15  1  0  0  0  0
 14 16  1  0  0  0  0
 14 17  1  0  0  0  0
 17 18  1  0  0  0  0
 17 19  1  0  0  0  0
 17 20  1  0  0  0  0
 20 21  1  0  0  0  0
 20 22  1  0  0  0  0
 20 23  1  0  0  0  0
M  END
> <VConfSearch Rank>
232

> <Conf_Id>
55

> <Delta U+W>
3.232

> <U+W>
-5.150

> <U>
50.625

> <W>
-55.776

> <W(PB)>
-57.839

> <W(SA)>
2.064

> <Valence>
4.837

> <Coulomb>
45.097

> <VdW>
0.692

> <VdW6>
-6.655

> <VdW12>
7.347

> <Bond>
0.223

> <Angle>
1.167

> <Pdih>
3.447

> <Idih>
0.000

> <Tether>
0.000

$$$$
VeraChem MOL file


 23 22  0  0  0  0  0  0  0  0999 V2000     
   19.1879   20.3643   25.3591 N   0  3  0  0  0  0  0  0  0  0  0  0
   19.4734   19.9473   26.2510 H   0  0  0  0  0  0  0  0  0  0  0  0
   18.2805   20.8150   25.5182 H   0  0  0  0  0  0  0  0  0  0  0  0
   19.8583   21.1102   25.1470 H   0  0  0  0  0  0  0  0  0  0  0  0
   19.1183   19.3341   24.2503 C   0  0  0  0  0  0  0  0  0  0  0  0
   18.7751   19.8401   23.3462 H   0  0  0  0  0  0  0  0  0  0  0  0
   18.3678   18.5898   24.5298 H   0  0  0  0  0  0  0  0  0  0  0  0
   20.4673   18.6341   23.9928 C   0  0  0  0  0  0  0  0  0  0  0  0
   21.2430   19.3744   23.7560 H   0  0  0  0  0  0  0  0  0  0  0  0
   20.7800   18.1447   24.9249 H   0  0  0  0  0  0  0  0  0  0  0  0
   20.3934   17.5634   22.8750 C   0  0  0  0  0  0  0  0  0  0  0  0
   19.4334   17.0311   22.9265 H   0  0  0  0  0  0  0  0  0  0  0  0
   21.1637   16.8061   23.0761 H   0  0  0  0  0  0  0  0  0  0  0  0
   20.6294   18.0994   21.4388 C   0  0  0  0  0  0  0  0  0  0  0  0
   21.6351   18.5368   21.3721 H   0  0  0  0  0  0  0  0  0  0  0  0
   20.6236   17.2435   20.7497 H   0  0  0  0  0  0  0  0  0  0  0  0
   19.5870   19.1354   20.9586 C   0  0  0  0  0  0  0  0  0  0  0  0
   19.6860   20.0619   21.5388 H   0  0  0  0  0  0  0  0  0  0  0  0
   18.5717   18.7507   21.1283 H   0  0  0  0  0  0  0  0  0  0  0  0
   19.7642   19.4694   19.4620 C   0  0  0  0  0  0  0  0  0  0  0  0
   19.6338   18.5749   18.8390 H   0  0  0  0  0  0  0  0  0  0  0  0
   20.7629   19.8806   19.2651 H   0  0  0  0  0  0  0  0  0  0  0  0
   19.0240   20.2136   19.1407 H   0  0  0  0  0  0  0  0  0  0  0  0
  1  2  1  0  0  0  0
  1  3  1  0  0  0  0
  1  4  1  0  0  0  0
  1  5  1  0  0  0  0
  5  6  1  0  0  0  0
  5  7  1  0  0  0  0
  5  8  1  0  0  0  0
  8  9  1  0  0  0  0
  8 10  1  0  0  0  0
  8 11  1  0  0  0  0
 11 12  1  0  0  0  0
 11 13  1  0  0  0  0
 11 14  1  0  0  0  0
 14 15  1  0  0  0  0
 14 16  1  0  0  0  0
 14 17  1  0  0  0  0
 17 18  1  0  0  0  0
 17 19  1  0  0  0  0
 17 20  1  0  0  0  0
 20 21  1  0  0  0  0
 20 22  1  0  0  0  0
 20 23  1  0  0  0  0
M  END
> <VConfSearch Rank>
233

> <Conf_Id>
93

> <Delta U+W>
2.589

> <U+W>
-5.793

> <U>
50.122

> <W>
-55.915

> <W(PB)>
-58.031

> <W(SA)>
2.115

> <Valence>
4.132

> <Coulomb>
45.536

> <VdW>
0.454

> <VdW6>
-6.262

> <VdW12>
6.715

> <Bond>
0.182

> <Angle>
1.157

> <Pdih>
2.794

> <Idih>
0.000

> <Tether>
0.000

$$$$
VeraChem MOL file


 23 22  0  0  0  0  0  0  0  0999 V2000     
   21.6714   21.1304   23.7337 N   0  3  0  0  0  0  0  0  0  0  0  0
   21.6248   21.6307   22.8402 H   0  0  0  0  0  0  0  0  0  0  0  0
   22.6586   20.9064   23.8990 H   0  0  0  0  0  0  0  0  0  0  0  0
   21.3901   21.7920   24.4644 H   0  0  0  0  0  0  0  0  0  0  0  0
   20.8045   19.8878   23.7322 C   0  0  0  0  0  0  0  0  0  0  0  0
   20.9254   19.3927   24.6995 H   0  0  0  0  0  0  0  0  0  0  0  0
   21.1830   19.2182   22.9579 H   0  0  0  0  0  0  0  0  0  0  0  0
   19.3129   20.1941   23.4930 C   0  0  0  0  0  0  0  0  0  0  0  0
   18.9736   20.8735   24.2863 H   0  0  0  0  0  0  0  0  0  0  0  0
   19.1807   20.7334   22.5456 H   0  0  0  0  0  0  0  0  0  0  0  0
   18.4208   18.9272   23.5142 C   0  0  0  0  0  0  0  0  0  0  0  0
   17.4129   19.2247   23.8355 H   0  0  0  0  0  0  0  0  0  0  0  0
   18.7812   18.2258   24.2794 H   0  0  0  0  0  0  0  0  0  0  0  0
   18.2809   18.2025   22.1501 C   0  0  0  0  0  0  0  0  0  0  0  0
   17.5744   17.3704   22.2764 H   0  0  0  0  0  0  0  0  0  0  0  0
   17.8219   18.8829   21.4196 H   0  0  0  0  0  0  0  0  0  0  0  0
   19.6058   17.6509   21.5750 C   0  0  0  0  0  0  0  0  0  0  0  0
   20.1289   17.0609   22.3404 H   0  0  0  0  0  0  0  0  0  0  0  0
   20.2666   18.4816   21.2954 H   0  0  0  0  0  0  0  0  0  0  0  0
   19.3635   16.7727   20.3289 C   0  0  0  0  0  0  0  0  0  0  0  0
   20.3143   16.3988   19.9274 H   0  0  0  0  0  0  0  0  0  0  0  0
   18.8637   17.3433   19.5352 H   0  0  0  0  0  0  0  0  0  0  0  0
   18.7368   15.9048   20.5724 H   0  0  0  0  0  0  0  0  0  0  0  0
  1  2  1  0  0  0  0
  1  3  1  0  0  0  0
  1  4  1  0  0  0  0
  1  5  1  0  0  0  0
  5  6  1  0  0  0  0
  5  7  1  0  0  0  0
  5  8  1  0  0  0  0
  8  9  1  0  0  0  0
  8 10  1  0  0  0  0
  8 11  1  0  0  0  0
 11 12  1  0  0  0  0
 11 13  1  0  0  0  0
 11 14  1  0  0  0  0
 14 15  1  0  0  0  0
 14 16  1  0  0  0  0
 14 17  1  0  0  0  0
 17 18  1  0  0  0  0
 17 19  1  0  0  0  0
 17 20  1  0  0  0  0
 20 21  1  0  0  0  0
 20 22  1  0  0  0  0
 20 23  1  0  0  0  0
M  END
> <VConfSearch Rank>
234

> <Conf_Id>
70

> <Delta U+W>
2.599

> <U+W>
-5.783

> <U>
50.122

> <W>
-55.906

> <W(PB)>
-58.010

> <W(SA)>
2.105

> <Valence>
4.132

> <Coulomb>
45.536

> <VdW>
0.454

> <VdW6>
-6.262

> <VdW12>
6.715

> <Bond>
0.182

> <Angle>
1.157

> <Pdih>
2.794

> <Idih>
0.000

> <Tether>
0.000

$$$$
VeraChem MOL file


 23 22  0  0  0  0  0  0  0  0999 V2000     
   20.4509   16.2728   23.1499 N   0  3  0  0  0  0  0  0  0  0  0  0
   21.1763   15.9710   23.8081 H   0  0  0  0  0  0  0  0  0  0  0  0
   20.1722   15.4455   22.6117 H   0  0  0  0  0  0  0  0  0  0  0  0
   19.6387   16.5591   23.7047 H   0  0  0  0  0  0  0  0  0  0  0  0
   20.9372   17.3926   22.2512 C   0  0  0  0  0  0  0  0  0  0  0  0
   20.1326   17.6432   21.5550 H   0  0  0  0  0  0  0  0  0  0  0  0
   21.7818   17.0111   21.6709 H   0  0  0  0  0  0  0  0  0  0  0  0
   21.3728   18.6566   23.0195 C   0  0  0  0  0  0  0  0  0  0  0  0
   22.2039   18.4006   23.6899 H   0  0  0  0  0  0  0  0  0  0  0  0
   21.7791   19.3833   22.3044 H   0  0  0  0  0  0  0  0  0  0  0  0
   20.2364   19.3154   23.8451 C   0  0  0  0  0  0  0  0  0  0  0  0
   20.6270   20.2249   24.3220 H   0  0  0  0  0  0  0  0  0  0  0  0
   19.9534   18.6469   24.6692 H   0  0  0  0  0  0  0  0  0  0  0  0
   18.9647   19.6759   23.0341 C   0  0  0  0  0  0  0  0  0  0  0  0
   18.5063   18.7648   22.6271 H   0  0  0  0  0  0  0  0  0  0  0  0
   18.2245   20.1047   23.7237 H   0  0  0  0  0  0  0  0  0  0  0  0
   19.2266   20.6829   21.8894 C   0  0  0  0  0  0  0  0  0  0  0  0
   19.9107   20.2462   21.1497 H   0  0  0  0  0  0  0  0  0  0  0  0
   19.7200   21.5795   22.2898 H   0  0  0  0  0  0  0  0  0  0  0  0
   17.9179   21.0921   21.1808 C   0  0  0  0  0  0  0  0  0  0  0  0
   18.1220   21.8041   20.3707 H   0  0  0  0  0  0  0  0  0  0  0  0
   17.2217   21.5706   21.8819 H   0  0  0  0  0  0  0  0  0  0  0  0
   17.4164   20.2189   20.7434 H   0  0  0  0  0  0  0  0  0  0  0  0
  1  2  1  0  0  0  0
  1  3  1  0  0  0  0
  1  4  1  0  0  0  0
  1  5  1  0  0  0  0
  5  6  1  0  0  0  0
  5  7  1  0  0  0  0
  5  8  1  0  0  0  0
  8  9  1  0  0  0  0
  8 10  1  0  0  0  0
  8 11  1  0  0  0  0
 11 12  1  0  0  0  0
 11 13  1  0  0  0  0
 11 14  1  0  0  0  0
 14 15  1  0  0  0  0
 14 16  1  0  0  0  0
 14 17  1  0  0  0  0
 17 18  1  0  0  0  0
 17 19  1  0  0  0  0
 17 20  1  0  0  0  0
 20 21  1  0  0  0  0
 20 22  1  0  0  0  0
 20 23  1  0  0  0  0
M  END
> <VConfSearch Rank>
235

> <Conf_Id>
72

> <Delta U+W>
1.051

> <U+W>
-7.331

> <U>
48.590

> <W>
-55.922

> <W(PB)>
-58.012

> <W(SA)>
2.090

> <Valence>
2.601

> <Coulomb>
45.520

> <VdW>
0.469

> <VdW6>
-6.867

> <VdW12>
7.336

> <Bond>
0.205

> <Angle>
0.962

> <Pdih>
1.434

> <Idih>
0.000

> <Tether>
0.000

$$$$
VeraChem MOL file


 23 22  0  0  0  0  0  0  0  0999 V2000     
   17.6419   17.8319   20.5914 N   0  3  0  0  0  0  0  0  0  0  0  0
   16.6328   18.0036   20.5263 H   0  0  0  0  0  0  0  0  0  0  0  0
   17.7981   16.8619   20.2991 H   0  0  0  0  0  0  0  0  0  0  0  0
   18.0922   18.4333   19.8941 H   0  0  0  0  0  0  0  0  0  0  0  0
   18.1682   18.0928   21.9880 C   0  0  0  0  0  0  0  0  0  0  0  0
   17.6273   17.4419   22.6802 H   0  0  0  0  0  0  0  0  0  0  0  0
   17.9417   19.1312   22.2438 H   0  0  0  0  0  0  0  0  0  0  0  0
   19.6823   17.8440   22.1193 C   0  0  0  0  0  0  0  0  0  0  0  0
   19.9033   16.8097   21.8243 H   0  0  0  0  0  0  0  0  0  0  0  0
   20.2256   18.4876   21.4157 H   0  0  0  0  0  0  0  0  0  0  0  0
   20.2034   18.0753   23.5594 C   0  0  0  0  0  0  0  0  0  0  0  0
   21.2799   17.8606   23.5906 H   0  0  0  0  0  0  0  0  0  0  0  0
   19.7357   17.3395   24.2282 H   0  0  0  0  0  0  0  0  0  0  0  0
   19.9410   19.4966   24.1268 C   0  0  0  0  0  0  0  0  0  0  0  0
   18.8600   19.6465   24.2499 H   0  0  0  0  0  0  0  0  0  0  0  0
   20.3635   19.5531   25.1395 H   0  0  0  0  0  0  0  0  0  0  0  0
   20.5154   20.6609   23.2802 C   0  0  0  0  0  0  0  0  0  0  0  0
   20.2582   21.6102   23.7704 H   0  0  0  0  0  0  0  0  0  0  0  0
   20.0300   20.6901   22.2956 H   0  0  0  0  0  0  0  0  0  0  0  0
   22.0493   20.5919   23.1040 C   0  0  0  0  0  0  0  0  0  0  0  0
   22.5564   20.5491   24.0766 H   0  0  0  0  0  0  0  0  0  0  0  0
   22.4158   21.4799   22.5730 H   0  0  0  0  0  0  0  0  0  0  0  0
   22.3482   19.7117   22.5215 H   0  0  0  0  0  0  0  0  0  0  0  0
  1  2  1  0  0  0  0
  1  3  1  0  0  0  0
  1  4  1  0  0  0  0
  1  5  1  0  0  0  0
  5  6  1  0  0  0  0
  5  7  1  0  0  0  0
  5  8  1  0  0  0  0
  8  9  1  0  0  0  0
  8 10  1  0  0  0  0
  8 11  1  0  0  0  0
 11 12  1  0  0  0  0
 11 13  1  0  0  0  0
 11 14  1  0  0  0  0
 14 15  1  0  0  0  0
 14 16  1  0  0  0  0
 14 17  1  0  0  0  0
 17 18  1  0  0  0  0
 17 19  1  0  0  0  0
 17 20  1  0  0  0  0
 20 21  1  0  0  0  0
 20 22  1  0  0  0  0
 20 23  1  0  0  0  0
M  END
> <VConfSearch Rank>
236

> <Conf_Id>
26

> <Delta U+W>
1.076

> <U+W>
-7.306

> <U>
48.641

> <W>
-55.947

> <W(PB)>
-58.031

> <W(SA)>
2.084

> <Valence>
2.922

> <Coulomb>
45.269

> <VdW>
0.449

> <VdW6>
-7.045

> <VdW12>
7.494

> <Bond>
0.220

> <Angle>
1.205

> <Pdih>
1.497

> <Idih>
0.000

> <Tether>
0.000

$$$$
VeraChem MOL file


 23 22  0  0  0  0  0  0  0  0999 V2000     
   21.3562   20.2152   20.1771 N   0  3  0  0  0  0  0  0  0  0  0  0
   22.3781   20.1990   20.2567 H   0  0  0  0  0  0  0  0  0  0  0  0
   21.1168   21.0136   19.5795 H   0  0  0  0  0  0  0  0  0  0  0  0
   21.0798   19.3690   19.6690 H   0  0  0  0  0  0  0  0  0  0  0  0
   20.6854   20.3057   21.5326 C   0  0  0  0  0  0  0  0  0  0  0  0
   19.6053   20.3492   21.3707 H   0  0  0  0  0  0  0  0  0  0  0  0
   21.0008   21.2404   22.0041 H   0  0  0  0  0  0  0  0  0  0  0  0
   21.0249   19.1201   22.4550 C   0  0  0  0  0  0  0  0  0  0  0  0
   20.7206   18.1802   21.9770 H   0  0  0  0  0  0  0  0  0  0  0  0
   22.1143   19.0632   22.5808 H   0  0  0  0  0  0  0  0  0  0  0  0
   20.3662   19.2416   23.8516 C   0  0  0  0  0  0  0  0  0  0  0  0
   20.7761   20.1244   24.3614 H   0  0  0  0  0  0  0  0  0  0  0  0
   20.6641   18.3810   24.4652 H   0  0  0  0  0  0  0  0  0  0  0  0
   18.8178   19.3551   23.8339 C   0  0  0  0  0  0  0  0  0  0  0  0
   18.4592   19.4193   24.8705 H   0  0  0  0  0  0  0  0  0  0  0  0
   18.5268   20.3035   23.3625 H   0  0  0  0  0  0  0  0  0  0  0  0
   18.0796   18.1937   23.1209 C   0  0  0  0  0  0  0  0  0  0  0  0
   18.3420   18.1745   22.0546 H   0  0  0  0  0  0  0  0  0  0  0  0
   16.9988   18.3889   23.1609 H   0  0  0  0  0  0  0  0  0  0  0  0
   18.3588   16.8109   23.7521 C   0  0  0  0  0  0  0  0  0  0  0  0
   19.4109   16.5218   23.6384 H   0  0  0  0  0  0  0  0  0  0  0  0
   17.7491   16.0370   23.2681 H   0  0  0  0  0  0  0  0  0  0  0  0
   18.1154   16.8096   24.8225 H   0  0  0  0  0  0  0  0  0  0  0  0
  1  2  1  0  0  0  0
  1  3  1  0  0  0  0
  1  4  1  0  0  0  0
  1  5  1  0  0  0  0
  5  6  1  0  0  0  0
  5  7  1  0  0  0  0
  5  8  1  0  0  0  0
  8  9  1  0  0  0  0
  8 10  1  0  0  0  0
  8 11  1  0  0  0  0
 11 12  1  0  0  0  0
 11 13  1  0  0  0  0
 11 14  1  0  0  0  0
 14 15  1  0  0  0  0
 14 16  1  0  0  0  0
 14 17  1  0  0  0  0
 17 18  1  0  0  0  0
 17 19  1  0  0  0  0
 17 20  1  0  0  0  0
 20 21  1  0  0  0  0
 20 22  1  0  0  0  0
 20 23  1  0  0  0  0
M  END
> <VConfSearch Rank>
237

> <Conf_Id>
90

> <Delta U+W>
1.131

> <U+W>
-7.251

> <U>
48.641

> <W>
-55.892

> <W(PB)>
-57.962

> <W(SA)>
2.070

> <Valence>
2.922

> <Coulomb>
45.269

> <VdW>
0.450

> <VdW6>
-7.045

> <VdW12>
7.495

> <Bond>
0.220

> <Angle>
1.205

> <Pdih>
1.497

> <Idih>
0.000

> <Tether>
0.000

$$$$
VeraChem MOL file


 23 22  0  0  0  0  0  0  0  0999 V2000     
   18.3452   19.9891   20.6468 N   0  3  0  0  0  0  0  0  0  0  0  0
   18.3041   19.9151   19.6247 H   0  0  0  0  0  0  0  0  0  0  0  0
   19.3069   20.2429   20.8922 H   0  0  0  0  0  0  0  0  0  0  0  0
   17.7456   20.7764   20.9140 H   0  0  0  0  0  0  0  0  0  0  0  0
   17.9174   18.7012   21.3225 C   0  0  0  0  0  0  0  0  0  0  0  0
   18.5741   17.9006   20.9726 H   0  0  0  0  0  0  0  0  0  0  0  0
   16.9002   18.4737   20.9921 H   0  0  0  0  0  0  0  0  0  0  0  0
   17.9519   18.7684   22.8630 C   0  0  0  0  0  0  0  0  0  0  0  0
   17.2535   19.5436   23.2050 H   0  0  0  0  0  0  0  0  0  0  0  0
   17.5753   17.8186   23.2654 H   0  0  0  0  0  0  0  0  0  0  0  0
   19.3580   19.0503   23.4497 C   0  0  0  0  0  0  0  0  0  0  0  0
   19.2779   19.0945   24.5446 H   0  0  0  0  0  0  0  0  0  0  0  0
   19.6967   20.0430   23.1275 H   0  0  0  0  0  0  0  0  0  0  0  0
   20.4045   17.9759   23.0600 C   0  0  0  0  0  0  0  0  0  0  0  0
   20.0095   16.9824   23.3136 H   0  0  0  0  0  0  0  0  0  0  0  0
   20.5632   17.9778   21.9734 H   0  0  0  0  0  0  0  0  0  0  0  0
   21.7666   18.1596   23.7717 C   0  0  0  0  0  0  0  0  0  0  0  0
   22.4111   17.3040   23.5261 H   0  0  0  0  0  0  0  0  0  0  0  0
   21.6238   18.1337   24.8610 H   0  0  0  0  0  0  0  0  0  0  0  0
   22.4957   19.4630   23.3735 C   0  0  0  0  0  0  0  0  0  0  0  0
   22.6273   19.5256   22.2856 H   0  0  0  0  0  0  0  0  0  0  0  0
   23.4913   19.5020   23.8343 H   0  0  0  0  0  0  0  0  0  0  0  0
   21.9443   20.3513   23.7057 H   0  0  0  0  0  0  0  0  0  0  0  0
  1  2  1  0  0  0  0
  1  3  1  0  0  0  0
  1  4  1  0  0  0  0
  1  5  1  0  0  0  0
  5  6  1  0  0  0  0
  5  7  1  0  0  0  0
  5  8  1  0  0  0  0
  8  9  1  0  0  0  0
  8 10  1  0  0  0  0
  8 11  1  0  0  0  0
 11 12  1  0  0  0  0
 11 13  1  0  0  0  0
 11 14  1  0  0  0  0
 14 15  1  0  0  0  0
 14 16  1  0  0  0  0
 14 17  1  0  0  0  0
 17 18  1  0  0  0  0
 17 19  1  0  0  0  0
 17 20  1  0  0  0  0
 20 21  1  0  0  0  0
 20 22  1  0  0  0  0
 20 23  1  0  0  0  0
M  END
> <VConfSearch Rank>
238

> <Conf_Id>
85

> <Delta U+W>
1.193

> <U+W>
-7.189

> <U>
48.775

> <W>
-55.965

> <W(PB)>
-58.038

> <W(SA)>
2.073

> <Valence>
2.602

> <Coulomb>
45.581

> <VdW>
0.592

> <VdW6>
-6.616

> <VdW12>
7.208

> <Bond>
0.196

> <Angle>
0.832

> <Pdih>
1.574

> <Idih>
0.000

> <Tether>
0.000

$$$$
VeraChem MOL file


 23 22  0  0  0  0  0  0  0  0999 V2000     
   19.3687   20.9452   22.8632 N   0  3  0  0  0  0  0  0  0  0  0  0
   19.0606   20.2417   22.1844 H   0  0  0  0  0  0  0  0  0  0  0  0
   19.6377   21.7834   22.3366 H   0  0  0  0  0  0  0  0  0  0  0  0
   18.5544   21.1986   23.4322 H   0  0  0  0  0  0  0  0  0  0  0  0
   20.5096   20.4262   23.7167 C   0  0  0  0  0  0  0  0  0  0  0  0
   20.7788   21.2268   24.4110 H   0  0  0  0  0  0  0  0  0  0  0  0
   21.3705   20.2335   23.0711 H   0  0  0  0  0  0  0  0  0  0  0  0
   20.1637   19.1570   24.5217 C   0  0  0  0  0  0  0  0  0  0  0  0
   20.8608   19.0984   25.3682 H   0  0  0  0  0  0  0  0  0  0  0  0
   19.1642   19.2596   24.9650 H   0  0  0  0  0  0  0  0  0  0  0  0
   20.2640   17.8240   23.7323 C   0  0  0  0  0  0  0  0  0  0  0  0
   20.0481   17.0084   24.4364 H   0  0  0  0  0  0  0  0  0  0  0  0
   21.2995   17.6604   23.4027 H   0  0  0  0  0  0  0  0  0  0  0  0
   19.2936   17.6901   22.5308 C   0  0  0  0  0  0  0  0  0  0  0  0
   18.9617   16.6445   22.4653 H   0  0  0  0  0  0  0  0  0  0  0  0
   18.3837   18.2778   22.7110 H   0  0  0  0  0  0  0  0  0  0  0  0
   19.9437   18.0677   21.1773 C   0  0  0  0  0  0  0  0  0  0  0  0
   20.7463   17.3522   20.9491 H   0  0  0  0  0  0  0  0  0  0  0  0
   20.4232   19.0523   21.2300 H   0  0  0  0  0  0  0  0  0  0  0  0
   18.9142   18.0582   20.0275 C   0  0  0  0  0  0  0  0  0  0  0  0
   18.4562   17.0665   19.9174 H   0  0  0  0  0  0  0  0  0  0  0  0
   19.3956   18.3133   19.0744 H   0  0  0  0  0  0  0  0  0  0  0  0
   18.1120   18.7860   20.2047 H   0  0  0  0  0  0  0  0  0  0  0  0
  1  2  1  0  0  0  0
  1  3  1  0  0  0  0
  1  4  1  0  0  0  0
  1  5  1  0  0  0  0
  5  6  1  0  0  0  0
  5  7  1  0  0  0  0
  5  8  1  0  0  0  0
  8  9  1  0  0  0  0
  8 10  1  0  0  0  0
  8 11  1  0  0  0  0
 11 12  1  0  0  0  0
 11 13  1  0  0  0  0
 11 14  1  0  0  0  0
 14 15  1  0  0  0  0
 14 16  1  0  0  0  0
 14 17  1  0  0  0  0
 17 18  1  0  0  0  0
 17 19  1  0  0  0  0
 17 20  1  0  0  0  0
 20 21  1  0  0  0  0
 20 22  1  0  0  0  0
 20 23  1  0  0  0  0
M  END
> <VConfSearch Rank>
239

> <Conf_Id>
82

> <Delta U+W>
5.994

> <U+W>
-2.388

> <U>
52.836

> <W>
-55.224

> <W(PB)>
-57.261

> <W(SA)>
2.037

> <Valence>
5.785

> <Coulomb>
46.744

> <VdW>
0.307

> <VdW6>
-7.672

> <VdW12>
7.979

> <Bond>
0.217

> <Angle>
1.470

> <Pdih>
4.098

> <Idih>
0.000

> <Tether>
0.000

$$$$
VeraChem MOL file


 23 22  0  0  0  0  0  0  0  0999 V2000     
   20.5929   20.5816   21.4609 N   0  3  0  0  0  0  0  0  0  0  0  0
   21.4148   20.4129   20.8718 H   0  0  0  0  0  0  0  0  0  0  0  0
   20.1550   21.4454   21.1225 H   0  0  0  0  0  0  0  0  0  0  0  0
   19.9328   19.8158   21.2917 H   0  0  0  0  0  0  0  0  0  0  0  0
   20.9643   20.6760   22.9281 C   0  0  0  0  0  0  0  0  0  0  0  0
   20.0663   20.9203   23.5018 H   0  0  0  0  0  0  0  0  0  0  0  0
   21.6666   21.5082   23.0268 H   0  0  0  0  0  0  0  0  0  0  0  0
   21.6160   19.3977   23.4936 C   0  0  0  0  0  0  0  0  0  0  0  0
   22.3510   19.0077   22.7770 H   0  0  0  0  0  0  0  0  0  0  0  0
   22.1905   19.6824   24.3851 H   0  0  0  0  0  0  0  0  0  0  0  0
   20.6252   18.2762   23.9069 C   0  0  0  0  0  0  0  0  0  0  0  0
   19.9760   18.6301   24.7197 H   0  0  0  0  0  0  0  0  0  0  0  0
   21.2174   17.4580   24.3397 H   0  0  0  0  0  0  0  0  0  0  0  0
   19.7681   17.6910   22.7552 C   0  0  0  0  0  0  0  0  0  0  0  0
   20.3088   17.7692   21.8027 H   0  0  0  0  0  0  0  0  0  0  0  0
   19.6349   16.6145   22.9317 H   0  0  0  0  0  0  0  0  0  0  0  0
   18.3629   18.3331   22.6542 C   0  0  0  0  0  0  0  0  0  0  0  0
   18.4294   19.4271   22.6225 H   0  0  0  0  0  0  0  0  0  0  0  0
   17.7884   18.0911   23.5595 H   0  0  0  0  0  0  0  0  0  0  0  0
   17.5928   17.8288   21.4155 C   0  0  0  0  0  0  0  0  0  0  0  0
   18.1213   18.0819   20.4873 H   0  0  0  0  0  0  0  0  0  0  0  0
   16.5943   18.2827   21.3688 H   0  0  0  0  0  0  0  0  0  0  0  0
   17.4649   16.7389   21.4483 H   0  0  0  0  0  0  0  0  0  0  0  0
  1  2  1  0  0  0  0
  1  3  1  0  0  0  0
  1  4  1  0  0  0  0
  1  5  1  0  0  0  0
  5  6  1  0  0  0  0
  5  7  1  0  0  0  0
  5  8  1  0  0  0  0
  8  9  1  0  0  0  0
  8 10  1  0  0  0  0
  8 11  1  0  0  0  0
 11 12  1  0  0  0  0
 11 13  1  0  0  0  0
 11 14  1  0  0  0  0
 14 15  1  0  0  0  0
 14 16  1  0  0  0  0
 14 17  1  0  0  0  0
 17 18  1  0  0  0  0
 17 19  1  0  0  0  0
 17 20  1  0  0  0  0
 20 21  1  0  0  0  0
 20 22  1  0  0  0  0
 20 23  1  0  0  0  0
M  END
> <VConfSearch Rank>
240

> <Conf_Id>
5

> <Delta U+W>
6.087

> <U+W>
-2.295

> <U>
52.836

> <W>
-55.131

> <W(PB)>
-57.202

> <W(SA)>
2.071

> <Valence>
5.785

> <Coulomb>
46.744

> <VdW>
0.307

> <VdW6>
-7.672

> <VdW12>
7.980

> <Bond>
0.217

> <Angle>
1.470

> <Pdih>
4.098

> <Idih>
0.000

> <Tether>
0.000

$$$$
VeraChem MOL file


 23 22  0  0  0  0  0  0  0  0999 V2000     
   20.6858   20.6112   25.9719 N   0  3  0  0  0  0  0  0  0  0  0  0
   19.7278   20.6788   26.3306 H   0  0  0  0  0  0  0  0  0  0  0  0
   21.2005   21.4169   26.3434 H   0  0  0  0  0  0  0  0  0  0  0  0
   21.1048   19.7729   26.3874 H   0  0  0  0  0  0  0  0  0  0  0  0
   20.7213   20.5702   24.4577 C   0  0  0  0  0  0  0  0  0  0  0  0
   21.7684   20.5285   24.1456 H   0  0  0  0  0  0  0  0  0  0  0  0
   20.2883   21.5023   24.0846 H   0  0  0  0  0  0  0  0  0  0  0  0
   19.9570   19.3715   23.8680 C   0  0  0  0  0  0  0  0  0  0  0  0
   20.3847   18.4383   24.2581 H   0  0  0  0  0  0  0  0  0  0  0  0
   18.9099   19.4086   24.1974 H   0  0  0  0  0  0  0  0  0  0  0  0
   20.0171   19.3664   22.3245 C   0  0  0  0  0  0  0  0  0  0  0  0
   21.0664   19.3347   21.9991 H   0  0  0  0  0  0  0  0  0  0  0  0
   19.5931   20.3039   21.9384 H   0  0  0  0  0  0  0  0  0  0  0  0
   19.2524   18.1662   21.7214 C   0  0  0  0  0  0  0  0  0  0  0  0
   19.6764   17.2287   22.1072 H   0  0  0  0  0  0  0  0  0  0  0  0
   18.2032   18.1977   22.0467 H   0  0  0  0  0  0  0  0  0  0  0  0
   19.3127   18.1614   20.1777 C   0  0  0  0  0  0  0  0  0  0  0  0
   20.3603   18.1274   19.8472 H   0  0  0  0  0  0  0  0  0  0  0  0
   18.8873   19.0963   19.7867 H   0  0  0  0  0  0  0  0  0  0  0  0
   18.5480   16.9616   19.5791 C   0  0  0  0  0  0  0  0  0  0  0  0
   18.6021   16.9753   18.4828 H   0  0  0  0  0  0  0  0  0  0  0  0
   17.4882   16.9868   19.8644 H   0  0  0  0  0  0  0  0  0  0  0  0
   18.9727   16.0103   19.9254 H   0  0  0  0  0  0  0  0  0  0  0  0
  1  2  1  0  0  0  0
  1  3  1  0  0  0  0
  1  4  1  0  0  0  0
  1  5  1  0  0  0  0
  5  6  1  0  0  0  0
  5  7  1  0  0  0  0
  5  8  1  0  0  0  0
  8  9  1  0  0  0  0
  8 10  1  0  0  0  0
  8 11  1  0  0  0  0
 11 12  1  0  0  0  0
 11 13  1  0  0  0  0
 11 14  1  0  0  0  0
 14 15  1  0  0  0  0
 14 16  1  0  0  0  0
 14 17  1  0  0  0  0
 17 18  1  0  0  0  0
 17 19  1  0  0  0  0
 17 20  1  0  0  0  0
 20 21  1  0  0  0  0
 20 22  1  0  0  0  0
 20 23  1  0  0  0  0
M  END
> <VConfSearch Rank>
241

> <Conf_Id>
40

> <Delta U+W>
0.000

> <U+W>
-8.382

> <U>
46.604

> <W>
-54.986

> <W(PB)>
-57.162

> <W(SA)>
2.176

> <Valence>
1.727

> <Coulomb>
44.434

> <VdW>
0.443

> <VdW6>
-4.623

> <VdW12>
5.066

> <Bond>
0.112

> <Angle>
0.386

> <Pdih>
1.228

> <Idih>
0.000

> <Tether>
0.000

$$$$
VeraChem MOL file


 23 22  0  0  0  0  0  0  0  0999 V2000     
   21.3481   22.0753   21.6435 N   0  3  0  0  0  0  0  0  0  0  0  0
   21.7167   22.5619   22.4670 H   0  0  0  0  0  0  0  0  0  0  0  0
   20.4982   22.5710   21.3558 H   0  0  0  0  0  0  0  0  0  0  0  0
   22.0347   22.1999   20.8918 H   0  0  0  0  0  0  0  0  0  0  0  0
   21.0808   20.6107   21.9248 C   0  0  0  0  0  0  0  0  0  0  0  0
   22.0298   20.1405   22.1964 H   0  0  0  0  0  0  0  0  0  0  0  0
   20.7218   20.1523   20.9998 H   0  0  0  0  0  0  0  0  0  0  0  0
   20.0526   20.3904   23.0506 C   0  0  0  0  0  0  0  0  0  0  0  0
   20.4041   20.8966   23.9596 H   0  0  0  0  0  0  0  0  0  0  0  0
   19.0988   20.8614   22.7778 H   0  0  0  0  0  0  0  0  0  0  0  0
   19.8215   18.8940   23.3684 C   0  0  0  0  0  0  0  0  0  0  0  0
   19.1699   18.8268   24.2492 H   0  0  0  0  0  0  0  0  0  0  0  0
   20.7757   18.4278   23.6503 H   0  0  0  0  0  0  0  0  0  0  0  0
   19.1852   18.1133   22.1902 C   0  0  0  0  0  0  0  0  0  0  0  0
   18.2212   18.5674   21.9224 H   0  0  0  0  0  0  0  0  0  0  0  0
   19.8254   18.2016   21.3026 H   0  0  0  0  0  0  0  0  0  0  0  0
   18.9810   16.6079   22.4878 C   0  0  0  0  0  0  0  0  0  0  0  0
   19.9442   16.1459   22.7461 H   0  0  0  0  0  0  0  0  0  0  0  0
   18.6390   16.1109   21.5691 H   0  0  0  0  0  0  0  0  0  0  0  0
   17.9548   16.3346   23.6110 C   0  0  0  0  0  0  0  0  0  0  0  0
   18.3102   16.7027   24.5813 H   0  0  0  0  0  0  0  0  0  0  0  0
   17.7763   15.2564   23.7137 H   0  0  0  0  0  0  0  0  0  0  0  0
   16.9921   16.8144   23.3919 H   0  0  0  0  0  0  0  0  0  0  0  0
  1  2  1  0  0  0  0
  1  3  1  0  0  0  0
  1  4  1  0  0  0  0
  1  5  1  0  0  0  0
  5  6  1  0  0  0  0
  5  7  1  0  0  0  0
  5  8  1  0  0  0  0
  8  9  1  0  0  0  0
  8 10  1  0  0  0  0
  8 11  1  0  0  0  0
 11 12  1  0  0  0  0
 11 13  1  0  0  0  0
 11 14  1  0  0  0  0
 14 15  1  0  0  0  0
 14 16  1  0  0  0  0
 14 17  1  0  0  0  0
 17 18  1  0  0  0  0
 17 19  1  0  0  0  0
 17 20  1  0  0  0  0
 20 21  1  0  0  0  0
 20 22  1  0  0  0  0
 20 23  1  0  0  0  0
M  END
> <VConfSearch Rank>
242

> <Conf_Id>
65

> <Delta U+W>
1.004

> <U+W>
-7.378

> <U>
48.047

> <W>
-55.425

> <W(PB)>
-57.542

> <W(SA)>
2.116

> <Valence>
2.583

> <Coulomb>
44.791

> <VdW>
0.673

> <VdW6>
-5.788

> <VdW12>
6.462

> <Bond>
0.177

> <Angle>
0.787

> <Pdih>
1.619

> <Idih>
0.000

> <Tether>
0.000

$$$$
VeraChem MOL file


 23 22  0  0  0  0  0  0  0  0999 V2000     
   20.7112   17.4644   25.6871 N   0  3  0  0  0  0  0  0  0  0  0  0
   21.4758   16.7999   25.5302 H   0  0  0  0  0  0  0  0  0  0  0  0
   20.0838   17.0388   26.3779 H   0  0  0  0  0  0  0  0  0  0  0  0
   21.1194   18.2953   26.1275 H   0  0  0  0  0  0  0  0  0  0  0  0
   19.9852   17.8048   24.4015 C   0  0  0  0  0  0  0  0  0  0  0  0
   19.1693   18.4886   24.6489 H   0  0  0  0  0  0  0  0  0  0  0  0
   19.5530   16.8827   24.0036 H   0  0  0  0  0  0  0  0  0  0  0  0
   20.9020   18.4462   23.3426 C   0  0  0  0  0  0  0  0  0  0  0  0
   21.3354   19.3731   23.7413 H   0  0  0  0  0  0  0  0  0  0  0  0
   21.7420   17.7686   23.1396 H   0  0  0  0  0  0  0  0  0  0  0  0
   20.1674   18.7449   22.0141 C   0  0  0  0  0  0  0  0  0  0  0  0
   19.7433   17.8141   21.6127 H   0  0  0  0  0  0  0  0  0  0  0  0
   20.9089   19.0903   21.2821 H   0  0  0  0  0  0  0  0  0  0  0  0
   19.0495   19.8082   22.1630 C   0  0  0  0  0  0  0  0  0  0  0  0
   18.3214   19.4732   22.9134 H   0  0  0  0  0  0  0  0  0  0  0  0
   19.4779   20.7453   22.5448 H   0  0  0  0  0  0  0  0  0  0  0  0
   18.2871   20.0890   20.8453 C   0  0  0  0  0  0  0  0  0  0  0  0
   17.4439   20.7594   21.0628 H   0  0  0  0  0  0  0  0  0  0  0  0
   17.8474   19.1567   20.4641 H   0  0  0  0  0  0  0  0  0  0  0  0
   19.1655   20.7360   19.7501 C   0  0  0  0  0  0  0  0  0  0  0  0
   19.9514   20.0523   19.4062 H   0  0  0  0  0  0  0  0  0  0  0  0
   19.6433   21.6534   20.1177 H   0  0  0  0  0  0  0  0  0  0  0  0
   18.5559   21.0022   18.8769 H   0  0  0  0  0  0  0  0  0  0  0  0
  1  2  1  0  0  0  0
  1  3  1  0  0  0  0
  1  4  1  0  0  0  0
  1  5  1  0  0  0  0
  5  6  1  0  0  0  0
  5  7  1  0  0  0  0
  5  8  1  0  0  0  0
  8  9  1  0  0  0  0
  8 10  1  0  0  0  0
  8 11  1  0  0  0  0
 11 12  1  0  0  0  0
 11 13  1  0  0  0  0
 11 14  1  0  0  0  0
 14 15  1  0  0  0  0
 14 16  1  0  0  0  0
 14 17  1  0  0  0  0
 17 18  1  0  0  0  0
 17 19  1  0  0  0  0
 17 20  1  0  0  0  0
 20 21  1  0  0  0  0
 20 22  1  0  0  0  0
 20 23  1  0  0  0  0
M  END
> <VConfSearch Rank>
243

> <Conf_Id>
92

> <Delta U+W>
0.973

> <U+W>
-7.409

> <U>
48.047

> <W>
-55.456

> <W(PB)>
-57.595

> <W(SA)>
2.138

> <Valence>
2.583

> <Coulomb>
44.791

> <VdW>
0.674

> <VdW6>
-5.789

> <VdW12>
6.462

> <Bond>
0.177

> <Angle>
0.787

> <Pdih>
1.619

> <Idih>
0.000

> <Tether>
0.000

$$$$
VeraChem MOL file


 23 22  0  0  0  0  0  0  0  0999 V2000     
   18.7198   16.9161   19.9148 N   0  3  0  0  0  0  0  0  0  0  0  0
   18.3989   17.3207   19.0286 H   0  0  0  0  0  0  0  0  0  0  0  0
   18.0736   16.1546   20.1456 H   0  0  0  0  0  0  0  0  0  0  0  0
   19.6348   16.4907   19.7341 H   0  0  0  0  0  0  0  0  0  0  0  0
   18.7865   17.9544   21.0163 C   0  0  0  0  0  0  0  0  0  0  0  0
   17.7885   18.3849   21.1354 H   0  0  0  0  0  0  0  0  0  0  0  0
   19.4661   18.7459   20.6901 H   0  0  0  0  0  0  0  0  0  0  0  0
   19.2655   17.3770   22.3617 C   0  0  0  0  0  0  0  0  0  0  0  0
   18.6006   16.5540   22.6558 H   0  0  0  0  0  0  0  0  0  0  0  0
   20.2676   16.9439   22.2418 H   0  0  0  0  0  0  0  0  0  0  0  0
   19.2873   18.4329   23.4919 C   0  0  0  0  0  0  0  0  0  0  0  0
   19.5469   17.9334   24.4356 H   0  0  0  0  0  0  0  0  0  0  0  0
   18.2779   18.8460   23.6269 H   0  0  0  0  0  0  0  0  0  0  0  0
   20.2913   19.5817   23.2316 C   0  0  0  0  0  0  0  0  0  0  0  0
   21.2933   19.1630   23.0644 H   0  0  0  0  0  0  0  0  0  0  0  0
   20.0151   20.1217   22.3161 H   0  0  0  0  0  0  0  0  0  0  0  0
   20.3413   20.5782   24.4112 C   0  0  0  0  0  0  0  0  0  0  0  0
   20.6252   20.0498   25.3322 H   0  0  0  0  0  0  0  0  0  0  0  0
   19.3410   20.9998   24.5834 H   0  0  0  0  0  0  0  0  0  0  0  0
   21.3418   21.7242   24.1500 C   0  0  0  0  0  0  0  0  0  0  0  0
   22.3586   21.3356   24.0071 H   0  0  0  0  0  0  0  0  0  0  0  0
   21.3636   22.4206   24.9982 H   0  0  0  0  0  0  0  0  0  0  0  0
   21.0644   22.2939   23.2535 H   0  0  0  0  0  0  0  0  0  0  0  0
  1  2  1  0  0  0  0
  1  3  1  0  0  0  0
  1  4  1  0  0  0  0
  1  5  1  0  0  0  0
  5  6  1  0  0  0  0
  5  7  1  0  0  0  0
  5  8  1  0  0  0  0
  8  9  1  0  0  0  0
  8 10  1  0  0  0  0
  8 11  1  0  0  0  0
 11 12  1  0  0  0  0
 11 13  1  0  0  0  0
 11 14  1  0  0  0  0
 14 15  1  0  0  0  0
 14 16  1  0  0  0  0
 14 17  1  0  0  0  0
 17 18  1  0  0  0  0
 17 19  1  0  0  0  0
 17 20  1  0  0  0  0
 20 21  1  0  0  0  0
 20 22  1  0  0  0  0
 20 23  1  0  0  0  0
M  END
> <VConfSearch Rank>
244

> <Conf_Id>
42

> <Delta U+W>
0.365

> <U+W>
-8.017

> <U>
47.375

> <W>
-55.392

> <W(PB)>
-57.543

> <W(SA)>
2.152

> <Valence>
2.032

> <Coulomb>
44.843

> <VdW>
0.499

> <VdW6>
-5.218

> <VdW12>
5.717

> <Bond>
0.135

> <Angle>
0.514

> <Pdih>
1.383

> <Idih>
0.000

> <Tether>
0.000

$$$$
VeraChem MOL file


 23 22  0  0  0  0  0  0  0  0999 V2000     
   17.1404   18.3765   24.3157 N   0  3  0  0  0  0  0  0  0  0  0  0
   16.8110   17.6605   23.6604 H   0  0  0  0  0  0  0  0  0  0  0  0
   16.3396   18.6363   24.9016 H   0  0  0  0  0  0  0  0  0  0  0  0
   17.8284   17.9312   24.9302 H   0  0  0  0  0  0  0  0  0  0  0  0
   17.7222   19.5766   23.5939 C   0  0  0  0  0  0  0  0  0  0  0  0
   18.0307   20.3087   24.3450 H   0  0  0  0  0  0  0  0  0  0  0  0
   16.9227   20.0205   22.9944 H   0  0  0  0  0  0  0  0  0  0  0  0
   18.9154   19.2364   22.6797 C   0  0  0  0  0  0  0  0  0  0  0  0
   18.6106   18.4806   21.9438 H   0  0  0  0  0  0  0  0  0  0  0  0
   19.1768   20.1422   22.1191 H   0  0  0  0  0  0  0  0  0  0  0  0
   20.1530   18.7445   23.4690 C   0  0  0  0  0  0  0  0  0  0  0  0
   19.8657   17.9011   24.1104 H   0  0  0  0  0  0  0  0  0  0  0  0
   20.4930   19.5408   24.1456 H   0  0  0  0  0  0  0  0  0  0  0  0
   21.3373   18.2847   22.5796 C   0  0  0  0  0  0  0  0  0  0  0  0
   22.1298   17.9203   23.2479 H   0  0  0  0  0  0  0  0  0  0  0  0
   21.0403   17.4173   21.9742 H   0  0  0  0  0  0  0  0  0  0  0  0
   21.9411   19.3893   21.6742 C   0  0  0  0  0  0  0  0  0  0  0  0
   23.0275   19.2352   21.6111 H   0  0  0  0  0  0  0  0  0  0  0  0
   21.8031   20.3781   22.1334 H   0  0  0  0  0  0  0  0  0  0  0  0
   21.3750   19.3805   20.2348 C   0  0  0  0  0  0  0  0  0  0  0  0
   21.5757   18.4207   19.7412 H   0  0  0  0  0  0  0  0  0  0  0  0
   21.8451   20.1686   19.6326 H   0  0  0  0  0  0  0  0  0  0  0  0
   20.2927   19.5490   20.2154 H   0  0  0  0  0  0  0  0  0  0  0  0
  1  2  1  0  0  0  0
  1  3  1  0  0  0  0
  1  4  1  0  0  0  0
  1  5  1  0  0  0  0
  5  6  1  0  0  0  0
  5  7  1  0  0  0  0
  5  8  1  0  0  0  0
  8  9  1  0  0  0  0
  8 10  1  0  0  0  0
  8 11  1  0  0  0  0
 11 12  1  0  0  0  0
 11 13  1  0  0  0  0
 11 14  1  0  0  0  0
 14 15  1  0  0  0  0
 14 16  1  0  0  0  0
 14 17  1  0  0  0  0
 17 18  1  0  0  0  0
 17 19  1  0  0  0  0
 17 20  1  0  0  0  0
 20 21  1  0  0  0  0
 20 22  1  0  0  0  0
 20 23  1  0  0  0  0
M  END
> <VConfSearch Rank>
245

> <Conf_Id>
3

> <Delta U+W>
3.283

> <U+W>
-5.099

> <U>
50.701

> <W>
-55.800

> <W(PB)>
-57.867

> <W(SA)>
2.067

> <Valence>
4.880

> <Coulomb>
45.095

> <VdW>
0.726

> <VdW6>
-6.620

> <VdW12>
7.346

> <Bond>
0.222

> <Angle>
1.260

> <Pdih>
3.398

> <Idih>
0.000

> <Tether>
0.000

$$$$
VeraChem MOL file


 23 22  0  0  0  0  0  0  0  0999 V2000     
   19.3236   17.1856   24.7504 N   0  3  0  0  0  0  0  0  0  0  0  0
   18.4152   17.3100   25.2085 H   0  0  0  0  0  0  0  0  0  0  0  0
   19.7751   16.3792   25.1952 H   0  0  0  0  0  0  0  0  0  0  0  0
   19.1392   16.9277   23.7762 H   0  0  0  0  0  0  0  0  0  0  0  0
   20.1783   18.4339   24.8466 C   0  0  0  0  0  0  0  0  0  0  0  0
   21.1388   18.2250   24.3687 H   0  0  0  0  0  0  0  0  0  0  0  0
   20.3634   18.6295   25.9063 H   0  0  0  0  0  0  0  0  0  0  0  0
   19.5333   19.6783   24.2025 C   0  0  0  0  0  0  0  0  0  0  0  0
   18.5954   19.9065   24.7261 H   0  0  0  0  0  0  0  0  0  0  0  0
   20.1922   20.5413   24.3663 H   0  0  0  0  0  0  0  0  0  0  0  0
   19.2495   19.5334   22.6859 C   0  0  0  0  0  0  0  0  0  0  0  0
   18.7570   20.4526   22.3431 H   0  0  0  0  0  0  0  0  0  0  0  0
   18.5315   18.7203   22.5157 H   0  0  0  0  0  0  0  0  0  0  0  0
   20.5292   19.2876   21.8466 C   0  0  0  0  0  0  0  0  0  0  0  0
   21.2352   20.1160   21.9967 H   0  0  0  0  0  0  0  0  0  0  0  0
   21.0356   18.3816   22.2046 H   0  0  0  0  0  0  0  0  0  0  0  0
   20.2500   19.1153   20.3337 C   0  0  0  0  0  0  0  0  0  0  0  0
   19.5526   18.2807   20.1766 H   0  0  0  0  0  0  0  0  0  0  0  0
   21.1864   18.8309   19.8335 H   0  0  0  0  0  0  0  0  0  0  0  0
   19.6953   20.3909   19.6595 C   0  0  0  0  0  0  0  0  0  0  0  0
   20.3587   21.2485   19.8306 H   0  0  0  0  0  0  0  0  0  0  0  0
   18.6977   20.6465   20.0374 H   0  0  0  0  0  0  0  0  0  0  0  0
   19.6087   20.2451   18.5750 H   0  0  0  0  0  0  0  0  0  0  0  0
  1  2  1  0  0  0  0
  1  3  1  0  0  0  0
  1  4  1  0  0  0  0
  1  5  1  0  0  0  0
  5  6  1  0  0  0  0
  5  7  1  0  0  0  0
  5  8  1  0  0  0  0
  8  9  1  0  0  0  0
  8 10  1  0  0  0  0
  8 11  1  0  0  0  0
 11 12  1  0  0  0  0
 11 13  1  0  0  0  0
 11 14  1  0  0  0  0
 14 15  1  0  0  0  0
 14 16  1  0  0  0  0
 14 17  1  0  0  0  0
 17 18  1  0  0  0  0
 17 19  1  0  0  0  0
 17 20  1  0  0  0  0
 20 21  1  0  0  0  0
 20 22  1  0  0  0  0
 20 23  1  0  0  0  0
M  END
> <VConfSearch Rank>
246

> <Conf_Id>
83

> <Delta U+W>
1.229

> <U+W>
-7.154

> <U>
48.727

> <W>
-55.880

> <W(PB)>
-57.960

> <W(SA)>
2.080

> <Valence>
2.671

> <Coulomb>
45.371

> <VdW>
0.684

> <VdW6>
-6.511

> <VdW12>
7.195

> <Bond>
0.203

> <Angle>
0.915

> <Pdih>
1.554

> <Idih>
0.000

> <Tether>
0.000

$$$$
VeraChem MOL file


 23 22  0  0  0  0  0  0  0  0999 V2000     
   17.4948   19.0897   24.4544 N   0  3  0  0  0  0  0  0  0  0  0  0
   16.6999   19.6494   24.1300 H   0  0  0  0  0  0  0  0  0  0  0  0
   18.2920   19.7253   24.5560 H   0  0  0  0  0  0  0  0  0  0  0  0
   17.2587   18.7504   25.3930 H   0  0  0  0  0  0  0  0  0  0  0  0
   17.8058   17.9497   23.5048 C   0  0  0  0  0  0  0  0  0  0  0  0
   16.9297   17.2963   23.4713 H   0  0  0  0  0  0  0  0  0  0  0  0
   18.6381   17.3777   23.9225 H   0  0  0  0  0  0  0  0  0  0  0  0
   18.1537   18.4112   22.0747 C   0  0  0  0  0  0  0  0  0  0  0  0
   18.3094   17.5242   21.4463 H   0  0  0  0  0  0  0  0  0  0  0  0
   17.2900   18.9391   21.6491 H   0  0  0  0  0  0  0  0  0  0  0  0
   19.4034   19.3236   21.9882 C   0  0  0  0  0  0  0  0  0  0  0  0
   19.2301   20.2499   22.5518 H   0  0  0  0  0  0  0  0  0  0  0  0
   19.5333   19.6234   20.9403 H   0  0  0  0  0  0  0  0  0  0  0  0
   20.6970   18.6358   22.4942 C   0  0  0  0  0  0  0  0  0  0  0  0
   20.5596   18.3138   23.5348 H   0  0  0  0  0  0  0  0  0  0  0  0
   20.8841   17.7239   21.9107 H   0  0  0  0  0  0  0  0  0  0  0  0
   21.9444   19.5507   22.4357 C   0  0  0  0  0  0  0  0  0  0  0  0
   22.7846   19.0309   22.9171 H   0  0  0  0  0  0  0  0  0  0  0  0
   21.7671   20.4601   23.0268 H   0  0  0  0  0  0  0  0  0  0  0  0
   22.3590   19.9375   20.9977 C   0  0  0  0  0  0  0  0  0  0  0  0
   22.5101   19.0451   20.3766 H   0  0  0  0  0  0  0  0  0  0  0  0
   23.3004   20.5019   21.0084 H   0  0  0  0  0  0  0  0  0  0  0  0
   21.6028   20.5689   20.5151 H   0  0  0  0  0  0  0  0  0  0  0  0
  1  2  1  0  0  0  0
  1  3  1  0  0  0  0
  1  4  1  0  0  0  0
  1  5  1  0  0  0  0
  5  6  1  0  0  0  0
  5  7  1  0  0  0  0
  5  8  1  0  0  0  0
  8  9  1  0  0  0  0
  8 10  1  0  0  0  0
  8 11  1  0  0  0  0
 11 12  1  0  0  0  0
 11 13  1  0  0  0  0
 11 14  1  0  0  0  0
 14 15  1  0  0  0  0
 14 16  1  0  0  0  0
 14 17  1  0  0  0  0
 17 18  1  0  0  0  0
 17 19  1  0  0  0  0
 17 20  1  0  0  0  0
 20 21  1  0  0  0  0
 20 22  1  0  0  0  0
 20 23  1  0  0  0  0
M  END
> <VConfSearch Rank>
247

> <Conf_Id>
50

> <Delta U+W>
1.252

> <U+W>
-7.130

> <U>
48.727

> <W>
-55.857

> <W(PB)>
-57.937

> <W(SA)>
2.080

> <Valence>
2.671

> <Coulomb>
45.371

> <VdW>
0.684

> <VdW6>
-6.511

> <VdW12>
7.196

> <Bond>
0.203

> <Angle>
0.915

> <Pdih>
1.554

> <Idih>
0.000

> <Tether>
0.000

$$$$
VeraChem MOL file


 23 22  0  0  0  0  0  0  0  0999 V2000     
   22.8516   18.2520   22.2784 N   0  3  0  0  0  0  0  0  0  0  0  0
   22.3682   17.5194   21.7500 H   0  0  0  0  0  0  0  0  0  0  0  0
   23.6795   17.8192   22.7018 H   0  0  0  0  0  0  0  0  0  0  0  0
   23.1894   18.9423   21.6002 H   0  0  0  0  0  0  0  0  0  0  0  0
   21.9497   18.8815   23.3221 C   0  0  0  0  0  0  0  0  0  0  0  0
   22.5418   19.6196   23.8699 H   0  0  0  0  0  0  0  0  0  0  0  0
   21.6460   18.1001   24.0240 H   0  0  0  0  0  0  0  0  0  0  0  0
   20.6996   19.5644   22.7343 C   0  0  0  0  0  0  0  0  0  0  0  0
   20.1757   20.0789   23.5477 H   0  0  0  0  0  0  0  0  0  0  0  0
   21.0096   20.3446   22.0264 H   0  0  0  0  0  0  0  0  0  0  0  0
   19.7474   18.5637   22.0310 C   0  0  0  0  0  0  0  0  0  0  0  0
   19.5073   17.7277   22.7025 H   0  0  0  0  0  0  0  0  0  0  0  0
   20.2749   18.1241   21.1739 H   0  0  0  0  0  0  0  0  0  0  0  0
   18.4415   19.2191   21.5104 C   0  0  0  0  0  0  0  0  0  0  0  0
   18.6184   20.2733   21.2564 H   0  0  0  0  0  0  0  0  0  0  0  0
   18.1659   18.7299   20.5658 H   0  0  0  0  0  0  0  0  0  0  0  0
   17.2287   19.0977   22.4684 C   0  0  0  0  0  0  0  0  0  0  0  0
   16.9962   18.0366   22.6354 H   0  0  0  0  0  0  0  0  0  0  0  0
   16.3476   19.5271   21.9713 H   0  0  0  0  0  0  0  0  0  0  0  0
   17.4200   19.8004   23.8302 C   0  0  0  0  0  0  0  0  0  0  0  0
   17.7112   20.8503   23.6970 H   0  0  0  0  0  0  0  0  0  0  0  0
   18.1858   19.2981   24.4340 H   0  0  0  0  0  0  0  0  0  0  0  0
   16.4854   19.7818   24.4057 H   0  0  0  0  0  0  0  0  0  0  0  0
  1  2  1  0  0  0  0
  1  3  1  0  0  0  0
  1  4  1  0  0  0  0
  1  5  1  0  0  0  0
  5  6  1  0  0  0  0
  5  7  1  0  0  0  0
  5  8  1  0  0  0  0
  8  9  1  0  0  0  0
  8 10  1  0  0  0  0
  8 11  1  0  0  0  0
 11 12  1  0  0  0  0
 11 13  1  0  0  0  0
 11 14  1  0  0  0  0
 14 15  1  0  0  0  0
 14 16  1  0  0  0  0
 14 17  1  0  0  0  0
 17 18  1  0  0  0  0
 17 19  1  0  0  0  0
 17 20  1  0  0  0  0
 20 21  1  0  0  0  0
 20 22  1  0  0  0  0
 20 23  1  0  0  0  0
M  END
> <VConfSearch Rank>
248

> <Conf_Id>
55

> <Delta U+W>
3.232

> <U+W>
-5.150

> <U>
50.625

> <W>
-55.776

> <W(PB)>
-57.839

> <W(SA)>
2.064

> <Valence>
4.837

> <Coulomb>
45.097

> <VdW>
0.692

> <VdW6>
-6.655

> <VdW12>
7.347

> <Bond>
0.223

> <Angle>
1.167

> <Pdih>
3.447

> <Idih>
0.000

> <Tether>
0.000

$$$$
VeraChem MOL file


 23 22  0  0  0  0  0  0  0  0999 V2000     
   20.4944   18.7433   19.5464 N   0  3  0  0  0  0  0  0  0  0  0  0
   20.8345   17.8666   19.1386 H   0  0  0  0  0  0  0  0  0  0  0  0
   20.9532   19.5062   19.0371 H   0  0  0  0  0  0  0  0  0  0  0  0
   19.4929   18.8047   19.3366 H   0  0  0  0  0  0  0  0  0  0  0  0
   20.7660   18.8167   21.0352 C   0  0  0  0  0  0  0  0  0  0  0  0
   20.4122   19.7860   21.3912 H   0  0  0  0  0  0  0  0  0  0  0  0
   21.8487   18.7746   21.1817 H   0  0  0  0  0  0  0  0  0  0  0  0
   20.0942   17.6776   21.8270 C   0  0  0  0  0  0  0  0  0  0  0  0
   19.0100   17.6786   21.6526 H   0  0  0  0  0  0  0  0  0  0  0  0
   20.4703   16.7231   21.4353 H   0  0  0  0  0  0  0  0  0  0  0  0
   20.3895   17.7370   23.3471 C   0  0  0  0  0  0  0  0  0  0  0  0
   21.4241   18.0663   23.5170 H   0  0  0  0  0  0  0  0  0  0  0  0
   20.3343   16.7145   23.7458 H   0  0  0  0  0  0  0  0  0  0  0  0
   19.4093   18.6127   24.1705 C   0  0  0  0  0  0  0  0  0  0  0  0
   18.3913   18.2101   24.0760 H   0  0  0  0  0  0  0  0  0  0  0  0
   19.6764   18.5182   25.2321 H   0  0  0  0  0  0  0  0  0  0  0  0
   19.4059   20.1104   23.7868 C   0  0  0  0  0  0  0  0  0  0  0  0
   18.9915   20.2371   22.7782 H   0  0  0  0  0  0  0  0  0  0  0  0
   20.4356   20.4938   23.7672 H   0  0  0  0  0  0  0  0  0  0  0  0
   18.5661   20.9489   24.7739 C   0  0  0  0  0  0  0  0  0  0  0  0
   18.9702   20.8826   25.7925 H   0  0  0  0  0  0  0  0  0  0  0  0
   17.5238   20.6049   24.7964 H   0  0  0  0  0  0  0  0  0  0  0  0
   18.5654   22.0068   24.4807 H   0  0  0  0  0  0  0  0  0  0  0  0
  1  2  1  0  0  0  0
  1  3  1  0  0  0  0
  1  4  1  0  0  0  0
  1  5  1  0  0  0  0
  5  6  1  0  0  0  0
  5  7  1  0  0  0  0
  5  8  1  0  0  0  0
  8  9  1  0  0  0  0
  8 10  1  0  0  0  0
  8 11  1  0  0  0  0
 11 12  1  0  0  0  0
 11 13  1  0  0  0  0
 11 14  1  0  0  0  0
 14 15  1  0  0  0  0
 14 16  1  0  0  0  0
 14 17  1  0  0  0  0
 17 18  1  0  0  0  0
 17 19  1  0  0  0  0
 17 20  1  0  0  0  0
 20 21  1  0  0  0  0
 20 22  1  0  0  0  0
 20 23  1  0  0  0  0
M  END
> <VConfSearch Rank>
249

> <Conf_Id>
93

> <Delta U+W>
2.589

> <U+W>
-5.793

> <U>
50.122

> <W>
-55.915

> <W(PB)>
-58.031

> <W(SA)>
2.115

> <Valence>
4.132

> <Coulomb>
45.536

> <VdW>
0.454

> <VdW6>
-6.262

> <VdW12>
6.715

> <Bond>
0.182

> <Angle>
1.157

> <Pdih>
2.794

> <Idih>
0.000

> <Tether>
0.000

$$$$
VeraChem MOL file


 23 22  0  0  0  0  0  0  0  0999 V2000     
   20.5688   21.8709   21.7876 N   0  3  0  0  0  0  0  0  0  0  0  0
   21.2253   21.4781   21.1054 H   0  0  0  0  0  0  0  0  0  0  0  0
   21.1181   22.4517   22.4301 H   0  0  0  0  0  0  0  0  0  0  0  0
   19.9443   22.5025   21.2757 H   0  0  0  0  0  0  0  0  0  0  0  0
   19.8015   20.7901   22.5216 C   0  0  0  0  0  0  0  0  0  0  0  0
   19.1461   21.2778   23.2482 H   0  0  0  0  0  0  0  0  0  0  0  0
   20.5237   20.1821   23.0694 H   0  0  0  0  0  0  0  0  0  0  0  0
   18.9599   19.9047   21.5816 C   0  0  0  0  0  0  0  0  0  0  0  0
   18.2532   20.5526   21.0460 H   0  0  0  0  0  0  0  0  0  0  0  0
   19.5989   19.4441   20.8165 H   0  0  0  0  0  0  0  0  0  0  0  0
   18.1559   18.8131   22.3321 C   0  0  0  0  0  0  0  0  0  0  0  0
   17.2608   18.5797   21.7389 H   0  0  0  0  0  0  0  0  0  0  0  0
   17.7839   19.2094   23.2872 H   0  0  0  0  0  0  0  0  0  0  0  0
   18.9194   17.4838   22.5677 C   0  0  0  0  0  0  0  0  0  0  0  0
   18.2280   16.7719   23.0395 H   0  0  0  0  0  0  0  0  0  0  0  0
   19.1952   17.0436   21.5995 H   0  0  0  0  0  0  0  0  0  0  0  0
   20.1824   17.6140   23.4500 C   0  0  0  0  0  0  0  0  0  0  0  0
   19.9388   18.1567   24.3740 H   0  0  0  0  0  0  0  0  0  0  0  0
   20.9488   18.1963   22.9221 H   0  0  0  0  0  0  0  0  0  0  0  0
   20.7717   16.2329   23.8077 C   0  0  0  0  0  0  0  0  0  0  0  0
   21.6730   16.3441   24.4244 H   0  0  0  0  0  0  0  0  0  0  0  0
   21.0490   15.6760   22.9032 H   0  0  0  0  0  0  0  0  0  0  0  0
   20.0498   15.6293   24.3732 H   0  0  0  0  0  0  0  0  0  0  0  0
  1  2  1  0  0  0  0
  1  3  1  0  0  0  0
  1  4  1  0  0  0  0
  1  5  1  0  0  0  0
  5  6  1  0  0  0  0
  5  7  1  0  0  0  0
  5  8  1  0  0  0  0
  8  9  1  0  0  0  0
  8 10  1  0  0  0  0
  8 11  1  0  0  0  0
 11 12  1  0  0  0  0
 11 13  1  0  0  0  0
 11 14  1  0  0  0  0
 14 15  1  0  0  0  0
 14 16  1  0  0  0  0
 14 17  1  0  0  0  0
 17 18  1  0  0  0  0
 17 19  1  0  0  0  0
 17 20  1  0  0  0  0
 20 21  1  0  0  0  0
 20 22  1  0  0  0  0
 20 23  1  0  0  0  0
M  END
> <VConfSearch Rank>
250

> <Conf_Id>
70

> <Delta U+W>
2.599

> <U+W>
-5.783

> <U>
50.122

> <W>
-55.906

> <W(PB)>
-58.010

> <W(SA)>
2.105

> <Valence>
4.132

> <Coulomb>
45.536

> <VdW>
0.454

> <VdW6>
-6.262

> <VdW12>
6.715

> <Bond>
0.182

> <Angle>
1.157

> <Pdih>
2.794

> <Idih>
0.000

> <Tether>
0.000

$$$$
VeraChem MOL file


 23 22  0  0  0  0  0  0  0  0999 V2000     
   19.9658   20.9948   24.5918 N   0  3  0  0  0  0  0  0  0  0  0  0
   19.1594   21.5046   24.9665 H   0  0  0  0  0  0  0  0  0  0  0  0
   20.8064   21.4845   24.9161 H   0  0  0  0  0  0  0  0  0  0  0  0
   19.9686   20.0687   25.0298 H   0  0  0  0  0  0  0  0  0  0  0  0
   19.9174   20.8984   23.0797 C   0  0  0  0  0  0  0  0  0  0  0  0
   20.8171   20.3762   22.7437 H   0  0  0  0  0  0  0  0  0  0  0  0
   19.9460   21.9157   22.6799 H   0  0  0  0  0  0  0  0  0  0  0  0
   18.6653   20.1733   22.5465 C   0  0  0  0  0  0  0  0  0  0  0  0
   17.7697   20.7254   22.8607 H   0  0  0  0  0  0  0  0  0  0  0  0
   18.6722   20.2147   21.4498 H   0  0  0  0  0  0  0  0  0  0  0  0
   18.5446   18.6985   23.0127 C   0  0  0  0  0  0  0  0  0  0  0  0
   17.6504   18.2544   22.5540 H   0  0  0  0  0  0  0  0  0  0  0  0
   18.3646   18.6749   24.0959 H   0  0  0  0  0  0  0  0  0  0  0  0
   19.7732   17.8089   22.6902 C   0  0  0  0  0  0  0  0  0  0  0  0
   20.6597   18.1848   23.2181 H   0  0  0  0  0  0  0  0  0  0  0  0
   19.5868   16.8029   23.0908 H   0  0  0  0  0  0  0  0  0  0  0  0
   20.0761   17.6985   21.1773 C   0  0  0  0  0  0  0  0  0  0  0  0
   20.3353   18.6848   20.7698 H   0  0  0  0  0  0  0  0  0  0  0  0
   19.1779   17.3588   20.6430 H   0  0  0  0  0  0  0  0  0  0  0  0
   21.2377   16.7210   20.8992 C   0  0  0  0  0  0  0  0  0  0  0  0
   21.4408   16.6566   19.8224 H   0  0  0  0  0  0  0  0  0  0  0  0
   20.9988   15.7112   21.2575 H   0  0  0  0  0  0  0  0  0  0  0  0
   22.1590   17.0513   21.3967 H   0  0  0  0  0  0  0  0  0  0  0  0
  1  2  1  0  0  0  0
  1  3  1  0  0  0  0
  1  4  1  0  0  0  0
  1  5  1  0  0  0  0
  5  6  1  0  0  0  0
  5  7  1  0  0  0  0
  5  8  1  0  0  0  0
  8  9  1  0  0  0  0
  8 10  1  0  0  0  0
  8 11  1  0  0  0  0
 11 12  1  0  0  0  0
 11 13  1  0  0  0  0
 11 14  1  0  0  0  0
 14 15  1  0  0  0  0
 14 16  1  0  0  0  0
 14 17  1  0  0  0  0
 17 18  1  0  0  0  0
 17 19  1  0  0  0  0
 17 20  1  0  0  0  0
 20 21  1  0  0  0  0
 20 22  1  0  0  0  0
 20 23  1  0  0  0  0
M  END
> <VConfSearch Rank>
251

> <Conf_Id>
72

> <Delta U+W>
1.051

> <U+W>
-7.331

> <U>
48.590

> <W>
-55.922

> <W(PB)>
-58.012

> <W(SA)>
2.090

> <Valence>
2.601

> <Coulomb>
45.520

> <VdW>
0.469

> <VdW6>
-6.867

> <VdW12>
7.336

> <Bond>
0.205

> <Angle>
0.962

> <Pdih>
1.434

> <Idih>
0.000

> <Tether>
0.000

$$$$
VeraChem MOL file


 23 22  0  0  0  0  0  0  0  0999 V2000     
   17.6662   16.6267   22.5507 N   0  3  0  0  0  0  0  0  0  0  0  0
   17.7856   15.6444   22.2810 H   0  0  0  0  0  0  0  0  0  0  0  0
   16.7172   16.8981   22.2739 H   0  0  0  0  0  0  0  0  0  0  0  0
   17.7032   16.6613   23.5745 H   0  0  0  0  0  0  0  0  0  0  0  0
   18.7159   17.5161   21.9162 C   0  0  0  0  0  0  0  0  0  0  0  0
   18.6387   17.4088   20.8309 H   0  0  0  0  0  0  0  0  0  0  0  0
   19.6981   17.1524   22.2292 H   0  0  0  0  0  0  0  0  0  0  0  0
   18.5643   18.9994   22.3021 C   0  0  0  0  0  0  0  0  0  0  0  0
   17.5613   19.3440   22.0172 H   0  0  0  0  0  0  0  0  0  0  0  0
   18.6286   19.1067   23.3924 H   0  0  0  0  0  0  0  0  0  0  0  0
   19.6174   19.9057   21.6175 C   0  0  0  0  0  0  0  0  0  0  0  0
   19.4416   20.9481   21.9149 H   0  0  0  0  0  0  0  0  0  0  0  0
   19.4572   19.8771   20.5309 H   0  0  0  0  0  0  0  0  0  0  0  0
   21.0938   19.5245   21.9101 C   0  0  0  0  0  0  0  0  0  0  0  0
   21.3131   18.5451   21.4640 H   0  0  0  0  0  0  0  0  0  0  0  0
   21.7492   20.2377   21.3915 H   0  0  0  0  0  0  0  0  0  0  0  0
   21.4810   19.4899   23.4105 C   0  0  0  0  0  0  0  0  0  0  0  0
   22.5373   19.1980   23.4928 H   0  0  0  0  0  0  0  0  0  0  0  0
   20.9120   18.7085   23.9317 H   0  0  0  0  0  0  0  0  0  0  0  0
   21.2826   20.8453   24.1260 C   0  0  0  0  0  0  0  0  0  0  0  0
   21.8329   21.6456   23.6146 H   0  0  0  0  0  0  0  0  0  0  0  0
   21.6498   20.7923   25.1591 H   0  0  0  0  0  0  0  0  0  0  0  0
   20.2233   21.1278   24.1660 H   0  0  0  0  0  0  0  0  0  0  0  0
  1  2  1  0  0  0  0
  1  3  1  0  0  0  0
  1  4  1  0  0  0  0
  1  5  1  0  0  0  0
  5  6  1  0  0  0  0
  5  7  1  0  0  0  0
  5  8  1  0  0  0  0
  8  9  1  0  0  0  0
  8 10  1  0  0  0  0
  8 11  1  0  0  0  0
 11 12  1  0  0  0  0
 11 13  1  0  0  0  0
 11 14  1  0  0  0  0
 14 15  1  0  0  0  0
 14 16  1  0  0  0  0
 14 17  1  0  0  0  0
 17 18  1  0  0  0  0
 17 19  1  0  0  0  0
 17 20  1  0  0  0  0
 20 21  1  0  0  0  0
 20 22  1  0  0  0  0
 20 23  1  0  0  0  0
M  END
> <VConfSearch Rank>
252

> <Conf_Id>
26

> <Delta U+W>
1.076

> <U+W>
-7.306

> <U>
48.641

> <W>
-55.947

> <W(PB)>
-58.031

> <W(SA)>
2.084

> <Valence>
2.922

> <Coulomb>
45.269

> <VdW>
0.449

> <VdW6>
-7.045

> <VdW12>
7.494

> <Bond>
0.220

> <Angle>
1.205

> <Pdih>
1.497

> <Idih>
0.000

> <Tether>
0.000

$$$$
VeraChem MOL file


 23 22  0  0  0  0  0  0  0  0999 V2000     
   21.1272   16.3990   23.7877 N   0  3  0  0  0  0  0  0  0  0  0  0
   21.6057   15.8063   23.1017 H   0  0  0  0  0  0  0  0  0  0  0  0
   20.8084   15.7825   24.5429 H   0  0  0  0  0  0  0  0  0  0  0  0
   21.8328   17.0238   24.1907 H   0  0  0  0  0  0  0  0  0  0  0  0
   19.9792   17.1681   23.1665 C   0  0  0  0  0  0  0  0  0  0  0  0
   19.4991   17.7514   23.9565 H   0  0  0  0  0  0  0  0  0  0  0  0
   19.2546   16.4440   22.7844 H   0  0  0  0  0  0  0  0  0  0  0  0
   20.4252   18.1044   22.0279 C   0  0  0  0  0  0  0  0  0  0  0  0
   21.1624   18.8235   22.4073 H   0  0  0  0  0  0  0  0  0  0  0  0
   20.9389   17.5139   21.2577 H   0  0  0  0  0  0  0  0  0  0  0  0
   19.2398   18.8564   21.3735 C   0  0  0  0  0  0  0  0  0  0  0  0
   18.5758   18.1235   20.8946 H   0  0  0  0  0  0  0  0  0  0  0  0
   19.6204   19.4868   20.5588 H   0  0  0  0  0  0  0  0  0  0  0  0
   18.3986   19.7222   22.3500 C   0  0  0  0  0  0  0  0  0  0  0  0
   17.6014   20.2189   21.7800 H   0  0  0  0  0  0  0  0  0  0  0  0
   17.8843   19.0681   23.0670 H   0  0  0  0  0  0  0  0  0  0  0  0
   19.1960   20.7958   23.1335 C   0  0  0  0  0  0  0  0  0  0  0  0
   19.9317   20.3164   23.7931 H   0  0  0  0  0  0  0  0  0  0  0  0
   18.5029   21.3324   23.7962 H   0  0  0  0  0  0  0  0  0  0  0  0
   19.9045   21.8212   22.2197 C   0  0  0  0  0  0  0  0  0  0  0  0
   20.6866   21.3473   21.6137 H   0  0  0  0  0  0  0  0  0  0  0  0
   20.3817   22.6064   22.8202 H   0  0  0  0  0  0  0  0  0  0  0  0
   19.1897   22.3049   21.5414 H   0  0  0  0  0  0  0  0  0  0  0  0
  1  2  1  0  0  0  0
  1  3  1  0  0  0  0
  1  4  1  0  0  0  0
  1  5  1  0  0  0  0
  5  6  1  0  0  0  0
  5  7  1  0  0  0  0
  5  8  1  0  0  0  0
  8  9  1  0  0  0  0
  8 10  1  0  0  0  0
  8 11  1  0  0  0  0
 11 12  1  0  0  0  0
 11 13  1  0  0  0  0
 11 14  1  0  0  0  0
 14 15  1  0  0  0  0
 14 16  1  0  0  0  0
 14 17  1  0  0  0  0
 17 18  1  0  0  0  0
 17 19  1  0  0  0  0
 17 20  1  0  0  0  0
 20 21  1  0  0  0  0
 20 22  1  0  0  0  0
 20 23  1  0  0  0  0
M  END
> <VConfSearch Rank>
253

> <Conf_Id>
90

> <Delta U+W>
1.131

> <U+W>
-7.251

> <U>
48.641

> <W>
-55.892

> <W(PB)>
-57.962

> <W(SA)>
2.070

> <Valence>
2.922

> <Coulomb>
45.269

> <VdW>
0.450

> <VdW6>
-7.045

> <VdW12>
7.495

> <Bond>
0.220

> <Angle>
1.205

> <Pdih>
1.497

> <Idih>
0.000

> <Tether>
0.000

$$$$
VeraChem MOL file


 23 22  0  0  0  0  0  0  0  0999 V2000     
   19.9045   19.7131   25.1168 N   0  3  0  0  0  0  0  0  0  0  0  0
   19.7302   20.5793   25.6376 H   0  0  0  0  0  0  0  0  0  0  0  0
   20.5856   19.9340   24.3840 H   0  0  0  0  0  0  0  0  0  0  0  0
   20.3566   19.0603   25.7649 H   0  0  0  0  0  0  0  0  0  0  0  0
   18.6273   19.1373   24.5375 C   0  0  0  0  0  0  0  0  0  0  0  0
   18.1819   19.8911   23.8833 H   0  0  0  0  0  0  0  0  0  0  0  0
   17.9372   18.9576   25.3663 H   0  0  0  0  0  0  0  0  0  0  0  0
   18.8384   17.8257   23.7539 C   0  0  0  0  0  0  0  0  0  0  0  0
   19.2418   17.0622   24.4324 H   0  0  0  0  0  0  0  0  0  0  0  0
   17.8605   17.4530   23.4213 H   0  0  0  0  0  0  0  0  0  0  0  0
   19.7750   17.9683   22.5279 C   0  0  0  0  0  0  0  0  0  0  0  0
   19.8748   16.9853   22.0475 H   0  0  0  0  0  0  0  0  0  0  0  0
   20.7811   18.2468   22.8664 H   0  0  0  0  0  0  0  0  0  0  0  0
   19.2589   18.9928   21.4861 C   0  0  0  0  0  0  0  0  0  0  0  0
   18.2208   18.7456   21.2244 H   0  0  0  0  0  0  0  0  0  0  0  0
   19.2364   19.9998   21.9236 H   0  0  0  0  0  0  0  0  0  0  0  0
   20.0995   19.0231   20.1869 C   0  0  0  0  0  0  0  0  0  0  0  0
   19.6090   19.6909   19.4649 H   0  0  0  0  0  0  0  0  0  0  0  0
   20.1081   18.0256   19.7258 H   0  0  0  0  0  0  0  0  0  0  0  0
   21.5509   19.5071   20.4067 C   0  0  0  0  0  0  0  0  0  0  0  0
   21.5700   20.4920   20.8911 H   0  0  0  0  0  0  0  0  0  0  0  0
   22.0755   19.5958   19.4465 H   0  0  0  0  0  0  0  0  0  0  0  0
   22.1202   18.8058   21.0291 H   0  0  0  0  0  0  0  0  0  0  0  0
  1  2  1  0  0  0  0
  1  3  1  0  0  0  0
  1  4  1  0  0  0  0
  1  5  1  0  0  0  0
  5  6  1  0  0  0  0
  5  7  1  0  0  0  0
  5  8  1  0  0  0  0
  8  9  1  0  0  0  0
  8 10  1  0  0  0  0
  8 11  1  0  0  0  0
 11 12  1  0  0  0  0
 11 13  1  0  0  0  0
 11 14  1  0  0  0  0
 14 15  1  0  0  0  0
 14 16  1  0  0  0  0
 14 17  1  0  0  0  0
 17 18  1  0  0  0  0
 17 19  1  0  0  0  0
 17 20  1  0  0  0  0
 20 21  1  0  0  0  0
 20 22  1  0  0  0  0
 20 23  1  0  0  0  0
M  END
> <VConfSearch Rank>
254

> <Conf_Id>
85

> <Delta U+W>
1.193

> <U+W>
-7.189

> <U>
48.775

> <W>
-55.965

> <W(PB)>
-58.038

> <W(SA)>
2.073

> <Valence>
2.602

> <Coulomb>
45.581

> <VdW>
0.592

> <VdW6>
-6.616

> <VdW12>
7.208

> <Bond>
0.196

> <Angle>
0.832

> <Pdih>
1.574

> <Idih>
0.000

> <Tether>
0.000

$$$$
VeraChem MOL file


 23 22  0  0  0  0  0  0  0  0999 V2000     
   19.3807   20.9640   22.3850 N   0  3  0  0  0  0  0  0  0  0  0  0
   18.8522   20.1566   22.7306 H   0  0  0  0  0  0  0  0  0  0  0  0
   18.7512   21.5105   21.7873 H   0  0  0  0  0  0  0  0  0  0  0  0
   19.6077   21.5505   23.1946 H   0  0  0  0  0  0  0  0  0  0  0  0
   20.6280   20.5293   21.6401 C   0  0  0  0  0  0  0  0  0  0  0  0
   21.1343   21.4393   21.3067 H   0  0  0  0  0  0  0  0  0  0  0  0
   20.3277   19.9643   20.7537 H   0  0  0  0  0  0  0  0  0  0  0  0
   21.6058   19.6917   22.4892 C   0  0  0  0  0  0  0  0  0  0  0  0
   22.5996   19.7707   22.0287 H   0  0  0  0  0  0  0  0  0  0  0  0
   21.7039   20.1361   23.4886 H   0  0  0  0  0  0  0  0  0  0  0  0
   21.2567   18.1836   22.6066 C   0  0  0  0  0  0  0  0  0  0  0  0
   22.0590   17.7049   23.1851 H   0  0  0  0  0  0  0  0  0  0  0  0
   21.2897   17.7126   21.6143 H   0  0  0  0  0  0  0  0  0  0  0  0
   19.9085   17.8673   23.3034 C   0  0  0  0  0  0  0  0  0  0  0  0
   20.0287   16.9491   23.8953 H   0  0  0  0  0  0  0  0  0  0  0  0
   19.6619   18.6550   24.0275 H   0  0  0  0  0  0  0  0  0  0  0  0
   18.7456   17.6408   22.3067 C   0  0  0  0  0  0  0  0  0  0  0  0
   18.9510   16.7415   21.7090 H   0  0  0  0  0  0  0  0  0  0  0  0
   18.6715   18.4682   21.5910 H   0  0  0  0  0  0  0  0  0  0  0  0
   17.3957   17.4683   23.0344 C   0  0  0  0  0  0  0  0  0  0  0  0
   17.4248   16.6112   23.7200 H   0  0  0  0  0  0  0  0  0  0  0  0
   16.5863   17.2940   22.3134 H   0  0  0  0  0  0  0  0  0  0  0  0
   17.1401   18.3623   23.6176 H   0  0  0  0  0  0  0  0  0  0  0  0
  1  2  1  0  0  0  0
  1  3  1  0  0  0  0
  1  4  1  0  0  0  0
  1  5  1  0  0  0  0
  5  6  1  0  0  0  0
  5  7  1  0  0  0  0
  5  8  1  0  0  0  0
  8  9  1  0  0  0  0
  8 10  1  0  0  0  0
  8 11  1  0  0  0  0
 11 12  1  0  0  0  0
 11 13  1  0  0  0  0
 11 14  1  0  0  0  0
 14 15  1  0  0  0  0
 14 16  1  0  0  0  0
 14 17  1  0  0  0  0
 17 18  1  0  0  0  0
 17 19  1  0  0  0  0
 17 20  1  0  0  0  0
 20 21  1  0  0  0  0
 20 22  1  0  0  0  0
 20 23  1  0  0  0  0
M  END
> <VConfSearch Rank>
255

> <Conf_Id>
82

> <Delta U+W>
5.994

> <U+W>
-2.388

> <U>
52.836

> <W>
-55.224

> <W(PB)>
-57.261

> <W(SA)>
2.037

> <Valence>
5.785

> <Coulomb>
46.744

> <VdW>
0.307

> <VdW6>
-7.672

> <VdW12>
7.979

> <Bond>
0.217

> <Angle>
1.470

> <Pdih>
4.098

> <Idih>
0.000

> <Tether>
0.000

$$$$
VeraChem MOL file


 23 22  0  0  0  0  0  0  0  0999 V2000     
   20.6753   17.0908   22.7508 N   0  3  0  0  0  0  0  0  0  0  0  0
   20.3211   16.4991   23.5093 H   0  0  0  0  0  0  0  0  0  0  0  0
   21.1464   16.4707   22.0831 H   0  0  0  0  0  0  0  0  0  0  0  0
   19.8633   17.4957   22.2739 H   0  0  0  0  0  0  0  0  0  0  0  0
   21.6055   18.1704   23.2694 C   0  0  0  0  0  0  0  0  0  0  0  0
   22.0038   18.7285   22.4179 H   0  0  0  0  0  0  0  0  0  0  0  0
   22.4394   17.6635   23.7626 H   0  0  0  0  0  0  0  0  0  0  0  0
   20.9443   19.1409   24.2692 C   0  0  0  0  0  0  0  0  0  0  0  0
   20.3260   18.5769   24.9802 H   0  0  0  0  0  0  0  0  0  0  0  0
   21.7431   19.5996   24.8670 H   0  0  0  0  0  0  0  0  0  0  0  0
   20.1139   20.2863   23.6299 C   0  0  0  0  0  0  0  0  0  0  0  0
   20.7663   20.9284   23.0221 H   0  0  0  0  0  0  0  0  0  0  0  0
   19.7524   20.9254   24.4474 H   0  0  0  0  0  0  0  0  0  0  0  0
   18.8872   19.8315   22.7982 C   0  0  0  0  0  0  0  0  0  0  0  0
   18.5011   18.8780   23.1821 H   0  0  0  0  0  0  0  0  0  0  0  0
   18.0768   20.5591   22.9454 H   0  0  0  0  0  0  0  0  0  0  0  0
   19.1782   19.7456   21.2799 C   0  0  0  0  0  0  0  0  0  0  0  0
   20.0737   19.1444   21.0823 H   0  0  0  0  0  0  0  0  0  0  0  0
   19.3987   20.7517   20.8960 H   0  0  0  0  0  0  0  0  0  0  0  0
   17.9822   19.1573   20.5020 C   0  0  0  0  0  0  0  0  0  0  0  0
   17.7523   18.1373   20.8361 H   0  0  0  0  0  0  0  0  0  0  0  0
   18.2007   19.1181   19.4269 H   0  0  0  0  0  0  0  0  0  0  0  0
   17.0826   19.7715   20.6395 H   0  0  0  0  0  0  0  0  0  0  0  0
  1  2  1  0  0  0  0
  1  3  1  0  0  0  0
  1  4  1  0  0  0  0
  1  5  1  0  0  0  0
  5  6  1  0  0  0  0
  5  7  1  0  0  0  0
  5  8  1  0  0  0  0
  8  9  1  0  0  0  0
  8 10  1  0  0  0  0
  8 11  1  0  0  0  0
 11 12  1  0  0  0  0
 11 13  1  0  0  0  0
 11 14  1  0  0  0  0
 14 15  1  0  0  0  0
 14 16  1  0  0  0  0
 14 17  1  0  0  0  0
 17 18  1  0  0  0  0
 17 19  1  0  0  0  0
 17 20  1  0  0  0  0
 20 21  1  0  0  0  0
 20 22  1  0  0  0  0
 20 23  1  0  0  0  0
M  END
> <VConfSearch Rank>
256

> <Conf_Id>
5

> <Delta U+W>
6.087

> <U+W>
-2.295

> <U>
52.836

> <W>
-55.131

> <W(PB)>
-57.202

> <W(SA)>
2.071

> <Valence>
5.785

> <Coulomb>
46.744

> <VdW>
0.307

> <VdW6>
-7.672

> <VdW12>
7.980

> <Bond>
0.217

> <Angle>
1.470

> <Pdih>
4.098

> <Idih>
0.000

> <Tether>
0.000

$$$$
VeraChem MOL file


 23 22  0  0  0  0  0  0  0  0999 V2000     
   22.7581   18.0597   20.3808 N   0  3  0  0  0  0  0  0  0  0  0  0
   22.5902   18.7643   19.6554 H   0  0  0  0  0  0  0  0  0  0  0  0
   23.1578   17.2394   19.9124 H   0  0  0  0  0  0  0  0  0  0  0  0
   23.4848   18.4322   21.0005 H   0  0  0  0  0  0  0  0  0  0  0  0
   21.4918   17.7142   21.1377 C   0  0  0  0  0  0  0  0  0  0  0  0
   21.7370   16.9406   21.8704 H   0  0  0  0  0  0  0  0  0  0  0  0
   20.7754   17.2975   20.4246 H   0  0  0  0  0  0  0  0  0  0  0  0
   20.8663   18.9251   21.8527 C   0  0  0  0  0  0  0  0  0  0  0  0
   21.5950   19.3501   22.5559 H   0  0  0  0  0  0  0  0  0  0  0  0
   20.6369   19.7059   21.1152 H   0  0  0  0  0  0  0  0  0  0  0  0
   19.5795   18.5314   22.6112 C   0  0  0  0  0  0  0  0  0  0  0  0
   19.8123   17.7464   23.3442 H   0  0  0  0  0  0  0  0  0  0  0  0
   18.8552   18.1018   21.9050 H   0  0  0  0  0  0  0  0  0  0  0  0
   18.9427   19.7406   23.3332 C   0  0  0  0  0  0  0  0  0  0  0  0
   19.6668   20.1701   24.0395 H   0  0  0  0  0  0  0  0  0  0  0  0
   18.7099   20.5256   22.6004 H   0  0  0  0  0  0  0  0  0  0  0  0
   17.6558   19.3465   24.0916 C   0  0  0  0  0  0  0  0  0  0  0  0
   17.8839   18.5629   24.8278 H   0  0  0  0  0  0  0  0  0  0  0  0
   16.9271   18.9184   23.3889 H   0  0  0  0  0  0  0  0  0  0  0  0
   17.0228   20.5563   24.8114 C   0  0  0  0  0  0  0  0  0  0  0  0
   16.1107   20.2569   25.3439 H   0  0  0  0  0  0  0  0  0  0  0  0
   16.7520   21.3439   24.0961 H   0  0  0  0  0  0  0  0  0  0  0  0
   17.7162   20.9857   25.5462 H   0  0  0  0  0  0  0  0  0  0  0  0
  1  2  1  0  0  0  0
  1  3  1  0  0  0  0
  1  4  1  0  0  0  0
  1  5  1  0  0  0  0
  5  6  1  0  0  0  0
  5  7  1  0  0  0  0
  5  8  1  0  0  0  0
  8  9  1  0  0  0  0
  8 10  1  0  0  0  0
  8 11  1  0  0  0  0
 11 12  1  0  0  0  0
 11 13  1  0  0  0  0
 11 14  1  0  0  0  0
 14 15  1  0  0  0  0
 14 16  1  0  0  0  0
 14 17  1  0  0  0  0
 17 18  1  0  0  0  0
 17 19  1  0  0  0  0
 17 20  1  0  0  0  0
 20 21  1  0  0  0  0
 20 22  1  0  0  0  0
 20 23  1  0  0  0  0
M  END
> <VConfSearch Rank>
257

> <Conf_Id>
40

> <Delta U+W>
0.000

> <U+W>
-8.382

> <U>
46.604

> <W>
-54.986

> <W(PB)>
-57.162

> <W(SA)>
2.176

> <Valence>
1.727

> <Coulomb>
44.434

> <VdW>
0.443

> <VdW6>
-4.623

> <VdW12>
5.066

> <Bond>
0.112

> <Angle>
0.386

> <Pdih>
1.228

> <Idih>
0.000

> <Tether>
0.000

$$$$
VeraChem MOL file


 23 22  0  0  0  0  0  0  0  0999 V2000     
   19.1770   20.0554   25.9815 N   0  3  0  0  0  0  0  0  0  0  0  0
   19.5251   19.3486   26.6372 H   0  0  0  0  0  0  0  0  0  0  0  0
   18.1555   19.9713   25.9618 H   0  0  0  0  0  0  0  0  0  0  0  0
   19.3928   20.9716   26.3890 H   0  0  0  0  0  0  0  0  0  0  0  0
   19.7842   19.8954   24.6026 C   0  0  0  0  0  0  0  0  0  0  0  0
   20.8661   20.0247   24.6932 H   0  0  0  0  0  0  0  0  0  0  0  0
   19.3935   20.6964   23.9698 H   0  0  0  0  0  0  0  0  0  0  0  0
   19.4777   18.5277   23.9634 C   0  0  0  0  0  0  0  0  0  0  0  0
   19.8333   17.7329   24.6326 H   0  0  0  0  0  0  0  0  0  0  0  0
   18.3912   18.3978   23.8710 H   0  0  0  0  0  0  0  0  0  0  0  0
   20.1424   18.3501   22.5777 C   0  0  0  0  0  0  0  0  0  0  0  0
   19.9723   17.3179   22.2452 H   0  0  0  0  0  0  0  0  0  0  0  0
   21.2301   18.4710   22.6749 H   0  0  0  0  0  0  0  0  0  0  0  0
   19.5991   19.3357   21.5118 C   0  0  0  0  0  0  0  0  0  0  0  0
   18.5146   19.1998   21.4000 H   0  0  0  0  0  0  0  0  0  0  0  0
   19.7473   20.3676   21.8562 H   0  0  0  0  0  0  0  0  0  0  0  0
   20.2824   19.1872   20.1306 C   0  0  0  0  0  0  0  0  0  0  0  0
   21.3668   19.3325   20.2346 H   0  0  0  0  0  0  0  0  0  0  0  0
   19.9264   19.9931   19.4736 H   0  0  0  0  0  0  0  0  0  0  0  0
   20.0026   17.8295   19.4466 C   0  0  0  0  0  0  0  0  0  0  0  0
   20.4509   16.9969   20.0026 H   0  0  0  0  0  0  0  0  0  0  0  0
   20.4269   17.8152   18.4343 H   0  0  0  0  0  0  0  0  0  0  0  0
   18.9239   17.6454   19.3606 H   0  0  0  0  0  0  0  0  0  0  0  0
  1  2  1  0  0  0  0
  1  3  1  0  0  0  0
  1  4  1  0  0  0  0
  1  5  1  0  0  0  0
  5  6  1  0  0  0  0
  5  7  1  0  0  0  0
  5  8  1  0  0  0  0
  8  9  1  0  0  0  0
  8 10  1  0  0  0  0
  8 11  1  0  0  0  0
 11 12  1  0  0  0  0
 11 13  1  0  0  0  0
 11 14  1  0  0  0  0
 14 15  1  0  0  0  0
 14 16  1  0  0  0  0
 14 17  1  0  0  0  0
 17 18  1  0  0  0  0
 17 19  1  0  0  0  0
 17 20  1  0  0  0  0
 20 21  1  0  0  0  0
 20 22  1  0  0  0  0
 20 23  1  0  0  0  0
M  END
> <VConfSearch Rank>
258

> <Conf_Id>
65

> <Delta U+W>
1.004

> <U+W>
-7.378

> <U>
48.047

> <W>
-55.425

> <W(PB)>
-57.542

> <W(SA)>
2.116

> <Valence>
2.583

> <Coulomb>
44.791

> <VdW>
0.673

> <VdW6>
-5.788

> <VdW12>
6.462

> <Bond>
0.177

> <Angle>
0.787

> <Pdih>
1.619

> <Idih>
0.000

> <Tether>
0.000

$$$$
VeraChem MOL file


 23 22  0  0  0  0  0  0  0  0999 V2000     
   22.9635   18.2738   21.1964 N   0  3  0  0  0  0  0  0  0  0  0  0
   23.6153   19.0480   21.3597 H   0  0  0  0  0  0  0  0  0  0  0  0
   23.1496   17.9222   20.2510 H   0  0  0  0  0  0  0  0  0  0  0  0
   23.2164   17.5242   21.8482 H   0  0  0  0  0  0  0  0  0  0  0  0
   21.5205   18.7050   21.3628 C   0  0  0  0  0  0  0  0  0  0  0  0
   20.8861   17.8422   21.1444 H   0  0  0  0  0  0  0  0  0  0  0  0
   21.3127   19.4816   20.6218 H   0  0  0  0  0  0  0  0  0  0  0  0
   21.2092   19.2388   22.7739 C   0  0  0  0  0  0  0  0  0  0  0  0
   21.4166   18.4587   23.5185 H   0  0  0  0  0  0  0  0  0  0  0  0
   21.8862   20.0741   22.9973 H   0  0  0  0  0  0  0  0  0  0  0  0
   19.7481   19.7249   22.9231 C   0  0  0  0  0  0  0  0  0  0  0  0
   19.5465   20.5121   22.1835 H   0  0  0  0  0  0  0  0  0  0  0  0
   19.6407   20.1911   23.9111 H   0  0  0  0  0  0  0  0  0  0  0  0
   18.7092   18.5847   22.7706 C   0  0  0  0  0  0  0  0  0  0  0  0
   18.8336   18.1028   21.7920 H   0  0  0  0  0  0  0  0  0  0  0  0
   18.8985   17.8077   23.5241 H   0  0  0  0  0  0  0  0  0  0  0  0
   17.2430   19.0680   22.8855 C   0  0  0  0  0  0  0  0  0  0  0  0
   16.5759   18.2269   22.6503 H   0  0  0  0  0  0  0  0  0  0  0  0
   17.0447   19.8382   22.1270 H   0  0  0  0  0  0  0  0  0  0  0  0
   16.8805   19.6117   24.2864 C   0  0  0  0  0  0  0  0  0  0  0  0
   17.4322   20.5311   24.5182 H   0  0  0  0  0  0  0  0  0  0  0  0
   17.1008   18.8716   25.0666 H   0  0  0  0  0  0  0  0  0  0  0  0
   15.8100   19.8480   24.3411 H   0  0  0  0  0  0  0  0  0  0  0  0
  1  2  1  0  0  0  0
  1  3  1  0  0  0  0
  1  4  1  0  0  0  0
  1  5  1  0  0  0  0
  5  6  1  0  0  0  0
  5  7  1  0  0  0  0
  5  8  1  0  0  0  0
  8  9  1  0  0  0  0
  8 10  1  0  0  0  0
  8 11  1  0  0  0  0
 11 12  1  0  0  0  0
 11 13  1  0  0  0  0
 11 14  1  0  0  0  0
 14 15  1  0  0  0  0
 14 16  1  0  0  0  0
 14 17  1  0  0  0  0
 17 18  1  0  0  0  0
 17 19  1  0  0  0  0
 17 20  1  0  0  0  0
 20 21  1  0  0  0  0
 20 22  1  0  0  0  0
 20 23  1  0  0  0  0
M  END
> <VConfSearch Rank>
259

> <Conf_Id>
92

> <Delta U+W>
0.973

> <U+W>
-7.409

> <U>
48.047

> <W>
-55.456

> <W(PB)>
-57.595

> <W(SA)>
2.138

> <Valence>
2.583

> <Coulomb>
44.791

> <VdW>
0.674

> <VdW6>
-5.789

> <VdW12>
6.462

> <Bond>
0.177

> <Angle>
0.787

> <Pdih>
1.619

> <Idih>
0.000

> <Tether>
0.000

$$$$
VeraChem MOL file


 23 22  0  0  0  0  0  0  0  0999 V2000     
   16.2493   19.4758   22.5011 N   0  3  0  0  0  0  0  0  0  0  0  0
   15.8315   20.1802   21.8836 H   0  0  0  0  0  0  0  0  0  0  0  0
   15.7751   19.5548   23.4065 H   0  0  0  0  0  0  0  0  0  0  0  0
   16.0075   18.5584   22.1131 H   0  0  0  0  0  0  0  0  0  0  0  0
   17.7480   19.6581   22.6301 C   0  0  0  0  0  0  0  0  0  0  0  0
   17.9336   20.6624   23.0204 H   0  0  0  0  0  0  0  0  0  0  0  0
   18.1810   19.5925   21.6286 H   0  0  0  0  0  0  0  0  0  0  0  0
   18.4057   18.6142   23.5524 C   0  0  0  0  0  0  0  0  0  0  0  0
   17.9313   18.6602   24.5417 H   0  0  0  0  0  0  0  0  0  0  0  0
   18.2185   17.6054   23.1608 H   0  0  0  0  0  0  0  0  0  0  0  0
   19.9282   18.8346   23.7151 C   0  0  0  0  0  0  0  0  0  0  0  0
   20.3109   18.1167   24.4537 H   0  0  0  0  0  0  0  0  0  0  0  0
   20.1111   19.8352   24.1311 H   0  0  0  0  0  0  0  0  0  0  0  0
   20.7116   18.6684   22.3907 C   0  0  0  0  0  0  0  0  0  0  0  0
   20.5004   17.6795   21.9607 H   0  0  0  0  0  0  0  0  0  0  0  0
   20.3730   19.4130   21.6579 H   0  0  0  0  0  0  0  0  0  0  0  0
   22.2343   18.8222   22.6017 C   0  0  0  0  0  0  0  0  0  0  0  0
   22.5861   18.0757   23.3277 H   0  0  0  0  0  0  0  0  0  0  0  0
   22.4512   19.8098   23.0325 H   0  0  0  0  0  0  0  0  0  0  0  0
   23.0146   18.6576   21.2801 C   0  0  0  0  0  0  0  0  0  0  0  0
   22.8440   17.6655   20.8419 H   0  0  0  0  0  0  0  0  0  0  0  0
   24.0932   18.7696   21.4502 H   0  0  0  0  0  0  0  0  0  0  0  0
   22.7094   19.4133   20.5446 H   0  0  0  0  0  0  0  0  0  0  0  0
  1  2  1  0  0  0  0
  1  3  1  0  0  0  0
  1  4  1  0  0  0  0
  1  5  1  0  0  0  0
  5  6  1  0  0  0  0
  5  7  1  0  0  0  0
  5  8  1  0  0  0  0
  8  9  1  0  0  0  0
  8 10  1  0  0  0  0
  8 11  1  0  0  0  0
 11 12  1  0  0  0  0
 11 13  1  0  0  0  0
 11 14  1  0  0  0  0
 14 15  1  0  0  0  0
 14 16  1  0  0  0  0
 14 17  1  0  0  0  0
 17 18  1  0  0  0  0
 17 19  1  0  0  0  0
 17 20  1  0  0  0  0
 20 21  1  0  0  0  0
 20 22  1  0  0  0  0
 20 23  1  0  0  0  0
M  END
> <VConfSearch Rank>
260

> <Conf_Id>
42

> <Delta U+W>
0.365

> <U+W>
-8.017

> <U>
47.375

> <W>
-55.392

> <W(PB)>
-57.543

> <W(SA)>
2.152

> <Valence>
2.032

> <Coulomb>
44.843

> <VdW>
0.499

> <VdW6>
-5.218

> <VdW12>
5.717

> <Bond>
0.135

> <Angle>
0.514

> <Pdih>
1.383

> <Idih>
0.000

> <Tether>
0.000

$$$$
VeraChem MOL file


 23 22  0  0  0  0  0  0  0  0999 V2000     
   21.6317   19.6934   20.1562 N   0  3  0  0  0  0  0  0  0  0  0  0
   20.8636   19.6392   19.4797 H   0  0  0  0  0  0  0  0  0  0  0  0
   22.5053   19.6513   19.6204 H   0  0  0  0  0  0  0  0  0  0  0  0
   21.5902   20.6216   20.5877 H   0  0  0  0  0  0  0  0  0  0  0  0
   21.5519   18.5868   21.1899 C   0  0  0  0  0  0  0  0  0  0  0  0
   22.4080   18.6871   21.8625 H   0  0  0  0  0  0  0  0  0  0  0  0
   21.6444   17.6342   20.6612 H   0  0  0  0  0  0  0  0  0  0  0  0
   20.2457   18.5905   22.0080 C   0  0  0  0  0  0  0  0  0  0  0  0
   19.3864   18.5175   21.3284 H   0  0  0  0  0  0  0  0  0  0  0  0
   20.2385   17.6882   22.6316 H   0  0  0  0  0  0  0  0  0  0  0  0
   20.1082   19.8409   22.9104 C   0  0  0  0  0  0  0  0  0  0  0  0
   20.2199   20.7463   22.2996 H   0  0  0  0  0  0  0  0  0  0  0  0
   20.9332   19.8583   23.6360 H   0  0  0  0  0  0  0  0  0  0  0  0
   18.7570   19.9392   23.6651 C   0  0  0  0  0  0  0  0  0  0  0  0
   18.7628   20.8814   24.2305 H   0  0  0  0  0  0  0  0  0  0  0  0
   17.9297   20.0309   22.9479 H   0  0  0  0  0  0  0  0  0  0  0  0
   18.4790   18.7825   24.6596 C   0  0  0  0  0  0  0  0  0  0  0  0
   17.9500   19.1906   25.5323 H   0  0  0  0  0  0  0  0  0  0  0  0
   19.4236   18.3732   25.0441 H   0  0  0  0  0  0  0  0  0  0  0  0
   17.6077   17.6538   24.0602 C   0  0  0  0  0  0  0  0  0  0  0  0
   16.6308   18.0405   23.7421 H   0  0  0  0  0  0  0  0  0  0  0  0
   17.4277   16.8700   24.8073 H   0  0  0  0  0  0  0  0  0  0  0  0
   18.0819   17.1825   23.1923 H   0  0  0  0  0  0  0  0  0  0  0  0
  1  2  1  0  0  0  0
  1  3  1  0  0  0  0
  1  4  1  0  0  0  0
  1  5  1  0  0  0  0
  5  6  1  0  0  0  0
  5  7  1  0  0  0  0
  5  8  1  0  0  0  0
  8  9  1  0  0  0  0
  8 10  1  0  0  0  0
  8 11  1  0  0  0  0
 11 12  1  0  0  0  0
 11 13  1  0  0  0  0
 11 14  1  0  0  0  0
 14 15  1  0  0  0  0
 14 16  1  0  0  0  0
 14 17  1  0  0  0  0
 17 18  1  0  0  0  0
 17 19  1  0  0  0  0
 17 20  1  0  0  0  0
 20 21  1  0  0  0  0
 20 22  1  0  0  0  0
 20 23  1  0  0  0  0
M  END
> <VConfSearch Rank>
261

> <Conf_Id>
3

> <Delta U+W>
3.283

> <U+W>
-5.099

> <U>
50.701

> <W>
-55.800

> <W(PB)>
-57.867

> <W(SA)>
2.067

> <Valence>
4.880

> <Coulomb>
45.095

> <VdW>
0.726

> <VdW6>
-6.620

> <VdW12>
7.346

> <Bond>
0.222

> <Angle>
1.260

> <Pdih>
3.398

> <Idih>
0.000

> <Tether>
0.000

$$$$
VeraChem MOL file


 23 22  0  0  0  0  0  0  0  0999 V2000     
   21.5898   20.5189   24.3496 N   0  3  0  0  0  0  0  0  0  0  0  0
   21.6087   21.5283   24.1727 H   0  0  0  0  0  0  0  0  0  0  0  0
   22.2030   20.3443   25.1529 H   0  0  0  0  0  0  0  0  0  0  0  0
   20.6371   20.2798   24.6407 H   0  0  0  0  0  0  0  0  0  0  0  0
   22.0180   19.7256   23.1308 C   0  0  0  0  0  0  0  0  0  0  0  0
   22.0055   18.6651   23.3948 H   0  0  0  0  0  0  0  0  0  0  0  0
   23.0495   20.0039   22.8984 H   0  0  0  0  0  0  0  0  0  0  0  0
   21.1321   19.9666   21.8913 C   0  0  0  0  0  0  0  0  0  0  0  0
   21.1952   21.0254   21.6070 H   0  0  0  0  0  0  0  0  0  0  0  0
   21.5453   19.3986   21.0472 H   0  0  0  0  0  0  0  0  0  0  0  0
   19.6449   19.5783   22.0884 C   0  0  0  0  0  0  0  0  0  0  0  0
   19.1035   19.8279   21.1667 H   0  0  0  0  0  0  0  0  0  0  0  0
   19.1993   20.1943   22.8808 H   0  0  0  0  0  0  0  0  0  0  0  0
   19.4447   18.0766   22.4162 C   0  0  0  0  0  0  0  0  0  0  0  0
   19.8665   17.4621   21.6090 H   0  0  0  0  0  0  0  0  0  0  0  0
   20.0055   17.8204   23.3246 H   0  0  0  0  0  0  0  0  0  0  0  0
   17.9634   17.6872   22.6407 C   0  0  0  0  0  0  0  0  0  0  0  0
   17.5390   18.2914   23.4547 H   0  0  0  0  0  0  0  0  0  0  0  0
   17.9219   16.6428   22.9801 H   0  0  0  0  0  0  0  0  0  0  0  0
   17.0885   17.8323   21.3746 C   0  0  0  0  0  0  0  0  0  0  0  0
   17.5103   17.2636   20.5357 H   0  0  0  0  0  0  0  0  0  0  0  0
   16.9938   18.8809   21.0668 H   0  0  0  0  0  0  0  0  0  0  0  0
   16.0761   17.4519   21.5621 H   0  0  0  0  0  0  0  0  0  0  0  0
  1  2  1  0  0  0  0
  1  3  1  0  0  0  0
  1  4  1  0  0  0  0
  1  5  1  0  0  0  0
  5  6  1  0  0  0  0
  5  7  1  0  0  0  0
  5  8  1  0  0  0  0
  8  9  1  0  0  0  0
  8 10  1  0  0  0  0
  8 11  1  0  0  0  0
 11 12  1  0  0  0  0
 11 13  1  0  0  0  0
 11 14  1  0  0  0  0
 14 15  1  0  0  0  0
 14 16  1  0  0  0  0
 14 17  1  0  0  0  0
 17 18  1  0  0  0  0
 17 19  1  0  0  0  0
 17 20  1  0  0  0  0
 20 21  1  0  0  0  0
 20 22  1  0  0  0  0
 20 23  1  0  0  0  0
M  END
> <VConfSearch Rank>
262

> <Conf_Id>
83

> <Delta U+W>
1.229

> <U+W>
-7.154

> <U>
48.727

> <W>
-55.880

> <W(PB)>
-57.960

> <W(SA)>
2.080

> <Valence>
2.671

> <Coulomb>
45.371

> <VdW>
0.684

> <VdW6>
-6.511

> <VdW12>
7.195

> <Bond>
0.203

> <Angle>
0.915

> <Pdih>
1.554

> <Idih>
0.000

> <Tether>
0.000

$$$$
VeraChem MOL file


 23 22  0  0  0  0  0  0  0  0999 V2000     
   21.0112   18.7349   25.1641 N   0  3  0  0  0  0  0  0  0  0  0  0
   21.0743   17.7625   25.4819 H   0  0  0  0  0  0  0  0  0  0  0  0
   20.0158   18.9669   25.0935 H   0  0  0  0  0  0  0  0  0  0  0  0
   21.4045   19.3195   25.9094 H   0  0  0  0  0  0  0  0  0  0  0  0
   21.7293   18.9442   23.8455 C   0  0  0  0  0  0  0  0  0  0  0  0
   22.7864   18.7126   24.0021 H   0  0  0  0  0  0  0  0  0  0  0  0
   21.6506   20.0015   23.5805 H   0  0  0  0  0  0  0  0  0  0  0  0
   21.1807   18.0744   22.6958 C   0  0  0  0  0  0  0  0  0  0  0  0
   21.7908   18.2493   21.7997 H   0  0  0  0  0  0  0  0  0  0  0  0
   21.3136   17.0154   22.9537 H   0  0  0  0  0  0  0  0  0  0  0  0
   19.6909   18.3349   22.3576 C   0  0  0  0  0  0  0  0  0  0  0  0
   19.0624   18.0904   23.2241 H   0  0  0  0  0  0  0  0  0  0  0  0
   19.3968   17.6393   21.5610 H   0  0  0  0  0  0  0  0  0  0  0  0
   19.4140   19.7905   21.9026 C   0  0  0  0  0  0  0  0  0  0  0  0
   19.7304   20.4882   22.6890 H   0  0  0  0  0  0  0  0  0  0  0  0
   20.0233   20.0243   21.0187 H   0  0  0  0  0  0  0  0  0  0  0  0
   17.9231   20.0648   21.5889 C   0  0  0  0  0  0  0  0  0  0  0  0
   17.7974   21.1383   21.3900 H   0  0  0  0  0  0  0  0  0  0  0  0
   17.3098   19.8428   22.4733 H   0  0  0  0  0  0  0  0  0  0  0  0
   17.3918   19.2698   20.3744 C   0  0  0  0  0  0  0  0  0  0  0  0
   18.0088   19.4490   19.4844 H   0  0  0  0  0  0  0  0  0  0  0  0
   16.3642   19.5738   20.1366 H   0  0  0  0  0  0  0  0  0  0  0  0
   17.3779   18.1910   20.5723 H   0  0  0  0  0  0  0  0  0  0  0  0
  1  2  1  0  0  0  0
  1  3  1  0  0  0  0
  1  4  1  0  0  0  0
  1  5  1  0  0  0  0
  5  6  1  0  0  0  0
  5  7  1  0  0  0  0
  5  8  1  0  0  0  0
  8  9  1  0  0  0  0
  8 10  1  0  0  0  0
  8 11  1  0  0  0  0
 11 12  1  0  0  0  0
 11 13  1  0  0  0  0
 11 14  1  0  0  0  0
 14 15  1  0  0  0  0
 14 16  1  0  0  0  0
 14 17  1  0  0  0  0
 17 18  1  0  0  0  0
 17 19  1  0  0  0  0
 17 20  1  0  0  0  0
 20 21  1  0  0  0  0
 20 22  1  0  0  0  0
 20 23  1  0  0  0  0
M  END
> <VConfSearch Rank>
263

> <Conf_Id>
50

> <Delta U+W>
1.252

> <U+W>
-7.130

> <U>
48.727

> <W>
-55.857

> <W(PB)>
-57.937

> <W(SA)>
2.080

> <Valence>
2.671

> <Coulomb>
45.371

> <VdW>
0.684

> <VdW6>
-6.511

> <VdW12>
7.196

> <Bond>
0.203

> <Angle>
0.915

> <Pdih>
1.554

> <Idih>
0.000

> <Tether>
0.000

$$$$
VeraChem MOL file


 23 22  0  0  0  0  0  0  0  0999 V2000     
   16.9355   18.6564   21.2920 N   0  3  0  0  0  0  0  0  0  0  0  0
   17.5733   18.4970   20.5063 H   0  0  0  0  0  0  0  0  0  0  0  0
   16.0976   19.1084   20.9106 H   0  0  0  0  0  0  0  0  0  0  0  0
   16.6467   17.7364   21.6395 H   0  0  0  0  0  0  0  0  0  0  0  0
   17.5805   19.4930   22.3798 C   0  0  0  0  0  0  0  0  0  0  0  0
   16.8322   19.6553   23.1604 H   0  0  0  0  0  0  0  0  0  0  0  0
   17.8414   20.4644   21.9511 H   0  0  0  0  0  0  0  0  0  0  0  0
   18.8342   18.8471   23.0009 C   0  0  0  0  0  0  0  0  0  0  0  0
   19.1588   19.4690   23.8426 H   0  0  0  0  0  0  0  0  0  0  0  0
   18.5683   17.8699   23.4253 H   0  0  0  0  0  0  0  0  0  0  0  0
   19.9885   18.6810   21.9797 C   0  0  0  0  0  0  0  0  0  0  0  0
   20.1978   19.6370   21.4801 H   0  0  0  0  0  0  0  0  0  0  0  0
   19.6600   17.9908   21.1913 H   0  0  0  0  0  0  0  0  0  0  0  0
   21.2886   18.1139   22.6076 C   0  0  0  0  0  0  0  0  0  0  0  0
   21.0490   17.4696   23.4648 H   0  0  0  0  0  0  0  0  0  0  0  0
   21.7671   17.4564   21.8686 H   0  0  0  0  0  0  0  0  0  0  0  0
   22.3300   19.1854   23.0205 C   0  0  0  0  0  0  0  0  0  0  0  0
   22.6394   19.7586   22.1354 H   0  0  0  0  0  0  0  0  0  0  0  0
   23.2328   18.6731   23.3813 H   0  0  0  0  0  0  0  0  0  0  0  0
   21.8423   20.1587   24.1159 C   0  0  0  0  0  0  0  0  0  0  0  0
   21.4710   19.6139   24.9935 H   0  0  0  0  0  0  0  0  0  0  0  0
   21.0421   20.8099   23.7432 H   0  0  0  0  0  0  0  0  0  0  0  0
   22.6643   20.8067   24.4465 H   0  0  0  0  0  0  0  0  0  0  0  0
  1  2  1  0  0  0  0
  1  3  1  0  0  0  0
  1  4  1  0  0  0  0
  1  5  1  0  0  0  0
  5  6  1  0  0  0  0
  5  7  1  0  0  0  0
  5  8  1  0  0  0  0
  8  9  1  0  0  0  0
  8 10  1  0  0  0  0
  8 11  1  0  0  0  0
 11 12  1  0  0  0  0
 11 13  1  0  0  0  0
 11 14  1  0  0  0  0
 14 15  1  0  0  0  0
 14 16  1  0  0  0  0
 14 17  1  0  0  0  0
 17 18  1  0  0  0  0
 17 19  1  0  0  0  0
 17 20  1  0  0  0  0
 20 21  1  0  0  0  0
 20 22  1  0  0  0  0
 20 23  1  0  0  0  0
M  END
> <VConfSearch Rank>
264

> <Conf_Id>
55

> <Delta U+W>
3.232

> <U+W>
-5.150

> <U>
50.625

> <W>
-55.776

> <W(PB)>
-57.839

> <W(SA)>
2.064

> <Valence>
4.837

> <Coulomb>
45.097

> <VdW>
0.692

> <VdW6>
-6.655

> <VdW12>
7.347

> <Bond>
0.223

> <Angle>
1.167

> <Pdih>
3.447

> <Idih>
0.000

> <Tether>
0.000

$$$$
VeraChem MOL file


 23 22  0  0  0  0  0  0  0  0999 V2000     
   17.8559   16.7724   21.7018 N   0  3  0  0  0  0  0  0  0  0  0  0
   16.9246   16.6690   22.1175 H   0  0  0  0  0  0  0  0  0  0  0  0
   18.1949   15.8273   21.4923 H   0  0  0  0  0  0  0  0  0  0  0  0
   17.7335   17.2511   20.8037 H   0  0  0  0  0  0  0  0  0  0  0  0
   18.8035   17.5206   22.6172 C   0  0  0  0  0  0  0  0  0  0  0  0
   19.7783   17.5599   22.1277 H   0  0  0  0  0  0  0  0  0  0  0  0
   18.9081   16.9412   23.5385 H   0  0  0  0  0  0  0  0  0  0  0  0
   18.3164   18.9433   22.9556 C   0  0  0  0  0  0  0  0  0  0  0  0
   18.1620   19.5233   22.0361 H   0  0  0  0  0  0  0  0  0  0  0  0
   17.3336   18.8605   23.4386 H   0  0  0  0  0  0  0  0  0  0  0  0
   19.2722   19.7023   23.9105 C   0  0  0  0  0  0  0  0  0  0  0  0
   19.6882   19.0099   24.6555 H   0  0  0  0  0  0  0  0  0  0  0  0
   18.6782   20.4300   24.4808 H   0  0  0  0  0  0  0  0  0  0  0  0
   20.4157   20.4807   23.2090 C   0  0  0  0  0  0  0  0  0  0  0  0
   19.9857   21.2422   22.5439 H   0  0  0  0  0  0  0  0  0  0  0  0
   20.9765   21.0301   23.9779 H   0  0  0  0  0  0  0  0  0  0  0  0
   21.3996   19.5969   22.4080 C   0  0  0  0  0  0  0  0  0  0  0  0
   20.8889   19.1618   21.5392 H   0  0  0  0  0  0  0  0  0  0  0  0
   21.7477   18.7632   23.0336 H   0  0  0  0  0  0  0  0  0  0  0  0
   22.6162   20.4063   21.9106 C   0  0  0  0  0  0  0  0  0  0  0  0
   23.1809   20.8288   22.7519 H   0  0  0  0  0  0  0  0  0  0  0  0
   22.3009   21.2332   21.2608 H   0  0  0  0  0  0  0  0  0  0  0  0
   23.2981   19.7668   21.3352 H   0  0  0  0  0  0  0  0  0  0  0  0
  1  2  1  0  0  0  0
  1  3  1  0  0  0  0
  1  4  1  0  0  0  0
  1  5  1  0  0  0  0
  5  6  1  0  0  0  0
  5  7  1  0  0  0  0
  5  8  1  0  0  0  0
  8  9  1  0  0  0  0
  8 10  1  0  0  0  0
  8 11  1  0  0  0  0
 11 12  1  0  0  0  0
 11 13  1  0  0  0  0
 11 14  1  0  0  0  0
 14 15  1  0  0  0  0
 14 16  1  0  0  0  0
 14 17  1  0  0  0  0
 17 18  1  0  0  0  0
 17 19  1  0  0  0  0
 17 20  1  0  0  0  0
 20 21  1  0  0  0  0
 20 22  1  0  0  0  0
 20 23  1  0  0  0  0
M  END
> <VConfSearch Rank>
265

> <Conf_Id>
93

> <Delta U+W>
2.589

> <U+W>
-5.793

> <U>
50.122

> <W>
-55.915

> <W(PB)>
-58.031

> <W(SA)>
2.115

> <Valence>
4.132

> <Coulomb>
45.536

> <VdW>
0.454

> <VdW6>
-6.262

> <VdW12>
6.715

> <Bond>
0.182

> <Angle>
1.157

> <Pdih>
2.794

> <Idih>
0.000

> <Tether>
0.000

$$$$
VeraChem MOL file


 23 22  0  0  0  0  0  0  0  0999 V2000     
   20.2533   16.2368   24.0422 N   0  3  0  0  0  0  0  0  0  0  0  0
   19.2469   16.0421   24.0366 H   0  0  0  0  0  0  0  0  0  0  0  0
   20.5559   16.2152   25.0219 H   0  0  0  0  0  0  0  0  0  0  0  0
   20.7146   15.4519   23.5710 H   0  0  0  0  0  0  0  0  0  0  0  0
   20.5770   17.5614   23.3817 C   0  0  0  0  0  0  0  0  0  0  0  0
   21.6573   17.7156   23.4496 H   0  0  0  0  0  0  0  0  0  0  0  0
   20.0845   18.3489   23.9550 H   0  0  0  0  0  0  0  0  0  0  0  0
   20.1399   17.6209   21.9048 C   0  0  0  0  0  0  0  0  0  0  0  0
   20.6503   16.8115   21.3660 H   0  0  0  0  0  0  0  0  0  0  0  0
   19.0636   17.4215   21.8164 H   0  0  0  0  0  0  0  0  0  0  0  0
   20.4907   18.9662   21.2204 C   0  0  0  0  0  0  0  0  0  0  0  0
   20.6237   18.7782   20.1459 H   0  0  0  0  0  0  0  0  0  0  0  0
   21.4633   19.3295   21.5807 H   0  0  0  0  0  0  0  0  0  0  0  0
   19.4180   20.0763   21.3707 C   0  0  0  0  0  0  0  0  0  0  0  0
   19.7455   20.9487   20.7884 H   0  0  0  0  0  0  0  0  0  0  0  0
   18.4774   19.7406   20.9126 H   0  0  0  0  0  0  0  0  0  0  0  0
   19.1492   20.5192   22.8274 C   0  0  0  0  0  0  0  0  0  0  0  0
   20.0993   20.7480   23.3301 H   0  0  0  0  0  0  0  0  0  0  0  0
   18.6737   19.7020   23.3851 H   0  0  0  0  0  0  0  0  0  0  0  0
   18.2286   21.7568   22.8854 C   0  0  0  0  0  0  0  0  0  0  0  0
   18.0395   22.0508   23.9260 H   0  0  0  0  0  0  0  0  0  0  0  0
   17.2597   21.5503   22.4122 H   0  0  0  0  0  0  0  0  0  0  0  0
   18.6844   22.6133   22.3716 H   0  0  0  0  0  0  0  0  0  0  0  0
  1  2  1  0  0  0  0
  1  3  1  0  0  0  0
  1  4  1  0  0  0  0
  1  5  1  0  0  0  0
  5  6  1  0  0  0  0
  5  7  1  0  0  0  0
  5  8  1  0  0  0  0
  8  9  1  0  0  0  0
  8 10  1  0  0  0  0
  8 11  1  0  0  0  0
 11 12  1  0  0  0  0
 11 13  1  0  0  0  0
 11 14  1  0  0  0  0
 14 15  1  0  0  0  0
 14 16  1  0  0  0  0
 14 17  1  0  0  0  0
 17 18  1  0  0  0  0
 17 19  1  0  0  0  0
 17 20  1  0  0  0  0
 20 21  1  0  0  0  0
 20 22  1  0  0  0  0
 20 23  1  0  0  0  0
M  END
> <VConfSearch Rank>
266

> <Conf_Id>
70

> <Delta U+W>
2.599

> <U+W>
-5.783

> <U>
50.122

> <W>
-55.906

> <W(PB)>
-58.010

> <W(SA)>
2.105

> <Valence>
4.132

> <Coulomb>
45.536

> <VdW>
0.454

> <VdW6>
-6.262

> <VdW12>
6.715

> <Bond>
0.182

> <Angle>
1.157

> <Pdih>
2.794

> <Idih>
0.000

> <Tether>
0.000

$$$$
VeraChem MOL file


 23 22  0  0  0  0  0  0  0  0999 V2000     
   17.9202   18.1100   24.5191 N   0  3  0  0  0  0  0  0  0  0  0  0
   16.9101   18.0477   24.3567 H   0  0  0  0  0  0  0  0  0  0  0  0
   18.0682   18.0042   25.5283 H   0  0  0  0  0  0  0  0  0  0  0  0
   18.3505   17.2989   24.0647 H   0  0  0  0  0  0  0  0  0  0  0  0
   18.4946   19.4128   23.9985 C   0  0  0  0  0  0  0  0  0  0  0  0
   19.5624   19.4306   24.2319 H   0  0  0  0  0  0  0  0  0  0  0  0
   18.0142   20.2299   24.5435 H   0  0  0  0  0  0  0  0  0  0  0  0
   18.2897   19.6170   22.4839 C   0  0  0  0  0  0  0  0  0  0  0  0
   17.2135   19.6321   22.2661 H   0  0  0  0  0  0  0  0  0  0  0  0
   18.6644   20.6105   22.2066 H   0  0  0  0  0  0  0  0  0  0  0  0
   18.9726   18.5369   21.6042 C   0  0  0  0  0  0  0  0  0  0  0  0
   18.8077   18.7856   20.5467 H   0  0  0  0  0  0  0  0  0  0  0  0
   18.4730   17.5718   21.7629 H   0  0  0  0  0  0  0  0  0  0  0  0
   20.4933   18.3596   21.8508 C   0  0  0  0  0  0  0  0  0  0  0  0
   20.6712   18.0187   22.8794 H   0  0  0  0  0  0  0  0  0  0  0  0
   20.8582   17.5545   21.1982 H   0  0  0  0  0  0  0  0  0  0  0  0
   21.3172   19.6399   21.5769 C   0  0  0  0  0  0  0  0  0  0  0  0
   21.0171   20.4386   22.2681 H   0  0  0  0  0  0  0  0  0  0  0  0
   21.1108   20.0035   20.5605 H   0  0  0  0  0  0  0  0  0  0  0  0
   22.8317   19.3862   21.7322 C   0  0  0  0  0  0  0  0  0  0  0  0
   23.4006   20.3045   21.5370 H   0  0  0  0  0  0  0  0  0  0  0  0
   23.1784   18.6194   21.0271 H   0  0  0  0  0  0  0  0  0  0  0  0
   23.0732   19.0500   22.7490 H   0  0  0  0  0  0  0  0  0  0  0  0
  1  2  1  0  0  0  0
  1  3  1  0  0  0  0
  1  4  1  0  0  0  0
  1  5  1  0  0  0  0
  5  6  1  0  0  0  0
  5  7  1  0  0  0  0
  5  8  1  0  0  0  0
  8  9  1  0  0  0  0
  8 10  1  0  0  0  0
  8 11  1  0  0  0  0
 11 12  1  0  0  0  0
 11 13  1  0  0  0  0
 11 14  1  0  0  0  0
 14 15  1  0  0  0  0
 14 16  1  0  0  0  0
 14 17  1  0  0  0  0
 17 18  1  0  0  0  0
 17 19  1  0  0  0  0
 17 20  1  0  0  0  0
 20 21  1  0  0  0  0
 20 22  1  0  0  0  0
 20 23  1  0  0  0  0
M  END
> <VConfSearch Rank>
267

> <Conf_Id>
72

> <Delta U+W>
1.051

> <U+W>
-7.331

> <U>
48.590

> <W>
-55.922

> <W(PB)>
-58.012

> <W(SA)>
2.090

> <Valence>
2.601

> <Coulomb>
45.520

> <VdW>
0.469

> <VdW6>
-6.867

> <VdW12>
7.336

> <Bond>
0.205

> <Angle>
0.962

> <Pdih>
1.434

> <Idih>
0.000

> <Tether>
0.000

$$$$
VeraChem MOL file


 23 22  0  0  0  0  0  0  0  0999 V2000     
   20.3872   15.9379   23.1121 N   0  3  0  0  0  0  0  0  0  0  0  0
   20.1430   15.1125   22.5545 H   0  0  0  0  0  0  0  0  0  0  0  0
   20.3735   15.6477   24.0951 H   0  0  0  0  0  0  0  0  0  0  0  0
   21.3569   16.1771   22.8818 H   0  0  0  0  0  0  0  0  0  0  0  0
   19.4423   17.0932   22.8510 C   0  0  0  0  0  0  0  0  0  0  0  0
   18.4283   16.7611   23.0893 H   0  0  0  0  0  0  0  0  0  0  0  0
   19.4858   17.3283   21.7844 H   0  0  0  0  0  0  0  0  0  0  0  0
   19.7825   18.3497   23.6740 C   0  0  0  0  0  0  0  0  0  0  0  0
   19.7726   18.0934   24.7417 H   0  0  0  0  0  0  0  0  0  0  0  0
   20.8049   18.6765   23.4452 H   0  0  0  0  0  0  0  0  0  0  0  0
   18.7878   19.5116   23.4296 C   0  0  0  0  0  0  0  0  0  0  0  0
   19.0713   20.3654   24.0594 H   0  0  0  0  0  0  0  0  0  0  0  0
   17.7919   19.2050   23.7780 H   0  0  0  0  0  0  0  0  0  0  0  0
   18.6746   19.9723   21.9512 C   0  0  0  0  0  0  0  0  0  0  0  0
   18.2333   19.1657   21.3504 H   0  0  0  0  0  0  0  0  0  0  0  0
   17.9596   20.8048   21.8973 H   0  0  0  0  0  0  0  0  0  0  0  0
   20.0070   20.4148   21.2946 C   0  0  0  0  0  0  0  0  0  0  0  0
   19.8052   20.7043   20.2538 H   0  0  0  0  0  0  0  0  0  0  0  0
   20.7038   19.5676   21.2409 H   0  0  0  0  0  0  0  0  0  0  0  0
   20.6827   21.6013   22.0186 C   0  0  0  0  0  0  0  0  0  0  0  0
   19.9996   22.4571   22.0955 H   0  0  0  0  0  0  0  0  0  0  0  0
   21.5734   21.9309   21.4683 H   0  0  0  0  0  0  0  0  0  0  0  0
   21.0030   21.3252   23.0309 H   0  0  0  0  0  0  0  0  0  0  0  0
  1  2  1  0  0  0  0
  1  3  1  0  0  0  0
  1  4  1  0  0  0  0
  1  5  1  0  0  0  0
  5  6  1  0  0  0  0
  5  7  1  0  0  0  0
  5  8  1  0  0  0  0
  8  9  1  0  0  0  0
  8 10  1  0  0  0  0
  8 11  1  0  0  0  0
 11 12  1  0  0  0  0
 11 13  1  0  0  0  0
 11 14  1  0  0  0  0
 14 15  1  0  0  0  0
 14 16  1  0  0  0  0
 14 17  1  0  0  0  0
 17 18  1  0  0  0  0
 17 19  1  0  0  0  0
 17 20  1  0  0  0  0
 20 21  1  0  0  0  0
 20 22  1  0  0  0  0
 20 23  1  0  0  0  0
M  END
> <VConfSearch Rank>
268

> <Conf_Id>
26

> <Delta U+W>
1.076

> <U+W>
-7.306

> <U>
48.641

> <W>
-55.947

> <W(PB)>
-58.031

> <W(SA)>
2.084

> <Valence>
2.922

> <Coulomb>
45.269

> <VdW>
0.449

> <VdW6>
-7.045

> <VdW12>
7.494

> <Bond>
0.220

> <Angle>
1.205

> <Pdih>
1.497

> <Idih>
0.000

> <Tether>
0.000

$$$$
VeraChem MOL file


 23 22  0  0  0  0  0  0  0  0999 V2000     
   20.5155   18.9389   19.5621 N   0  3  0  0  0  0  0  0  0  0  0  0
   20.2575   18.0762   19.0723 H   0  0  0  0  0  0  0  0  0  0  0  0
   21.3192   19.3355   19.0633 H   0  0  0  0  0  0  0  0  0  0  0  0
   19.7379   19.5963   19.4450 H   0  0  0  0  0  0  0  0  0  0  0  0
   20.8283   18.6871   21.0231 C   0  0  0  0  0  0  0  0  0  0  0  0
   21.1229   19.6390   21.4724 H   0  0  0  0  0  0  0  0  0  0  0  0
   21.6806   18.0041   21.0735 H   0  0  0  0  0  0  0  0  0  0  0  0
   19.6404   18.0911   21.8012 C   0  0  0  0  0  0  0  0  0  0  0  0
   18.7801   18.7698   21.7403 H   0  0  0  0  0  0  0  0  0  0  0  0
   19.3289   17.1548   21.3195 H   0  0  0  0  0  0  0  0  0  0  0  0
   19.9823   17.8009   23.2837 C   0  0  0  0  0  0  0  0  0  0  0  0
   20.7633   17.0290   23.3230 H   0  0  0  0  0  0  0  0  0  0  0  0
   19.1050   17.3589   23.7746 H   0  0  0  0  0  0  0  0  0  0  0  0
   20.4643   19.0341   24.0947 C   0  0  0  0  0  0  0  0  0  0  0  0
   20.6614   18.7185   25.1284 H   0  0  0  0  0  0  0  0  0  0  0  0
   21.4316   19.3742   23.7011 H   0  0  0  0  0  0  0  0  0  0  0  0
   19.4826   20.2333   24.1170 C   0  0  0  0  0  0  0  0  0  0  0  0
   19.3509   20.6352   23.1035 H   0  0  0  0  0  0  0  0  0  0  0  0
   19.9339   21.0442   24.7055 H   0  0  0  0  0  0  0  0  0  0  0  0
   18.1044   19.8859   24.7239 C   0  0  0  0  0  0  0  0  0  0  0  0
   17.5656   19.1561   24.1071 H   0  0  0  0  0  0  0  0  0  0  0  0
   17.4782   20.7846   24.7958 H   0  0  0  0  0  0  0  0  0  0  0  0
   18.2120   19.4697   25.7340 H   0  0  0  0  0  0  0  0  0  0  0  0
  1  2  1  0  0  0  0
  1  3  1  0  0  0  0
  1  4  1  0  0  0  0
  1  5  1  0  0  0  0
  5  6  1  0  0  0  0
  5  7  1  0  0  0  0
  5  8  1  0  0  0  0
  8  9  1  0  0  0  0
  8 10  1  0  0  0  0
  8 11  1  0  0  0  0
 11 12  1  0  0  0  0
 11 13  1  0  0  0  0
 11 14  1  0  0  0  0
 14 15  1  0  0  0  0
 14 16  1  0  0  0  0
 14 17  1  0  0  0  0
 17 18  1  0  0  0  0
 17 19  1  0  0  0  0
 17 20  1  0  0  0  0
 20 21  1  0  0  0  0
 20 22  1  0  0  0  0
 20 23  1  0  0  0  0
M  END
> <VConfSearch Rank>
269

> <Conf_Id>
90

> <Delta U+W>
1.131

> <U+W>
-7.251

> <U>
48.641

> <W>
-55.892

> <W(PB)>
-57.962

> <W(SA)>
2.070

> <Valence>
2.922

> <Coulomb>
45.269

> <VdW>
0.450

> <VdW6>
-7.045

> <VdW12>
7.495

> <Bond>
0.220

> <Angle>
1.205

> <Pdih>
1.497

> <Idih>
0.000

> <Tether>
0.000

$$$$
VeraChem MOL file


 23 22  0  0  0  0  0  0  0  0999 V2000     
   20.8259   20.4674   20.6817 N   0  3  0  0  0  0  0  0  0  0  0  0
   20.8574   21.4701   20.4686 H   0  0  0  0  0  0  0  0  0  0  0  0
   19.8401   20.2154   20.8006 H   0  0  0  0  0  0  0  0  0  0  0  0
   21.1675   19.9742   19.8507 H   0  0  0  0  0  0  0  0  0  0  0  0
   21.6422   20.1273   21.9132 C   0  0  0  0  0  0  0  0  0  0  0  0
   21.2477   20.7067   22.7519 H   0  0  0  0  0  0  0  0  0  0  0  0
   22.6704   20.4516   21.7312 H   0  0  0  0  0  0  0  0  0  0  0  0
   21.6341   18.6261   22.2669 C   0  0  0  0  0  0  0  0  0  0  0  0
   22.0758   18.0586   21.4370 H   0  0  0  0  0  0  0  0  0  0  0  0
   22.2915   18.4646   23.1315 H   0  0  0  0  0  0  0  0  0  0  0  0
   20.2264   18.0609   22.5824 C   0  0  0  0  0  0  0  0  0  0  0  0
   20.3215   16.9894   22.8057 H   0  0  0  0  0  0  0  0  0  0  0  0
   19.5946   18.1320   21.6881 H   0  0  0  0  0  0  0  0  0  0  0  0
   19.5420   18.7702   23.7782 C   0  0  0  0  0  0  0  0  0  0  0  0
   20.2256   18.7625   24.6383 H   0  0  0  0  0  0  0  0  0  0  0  0
   19.3583   19.8259   23.5382 H   0  0  0  0  0  0  0  0  0  0  0  0
   18.2095   18.1076   24.2036 C   0  0  0  0  0  0  0  0  0  0  0  0
   17.8463   18.6001   25.1164 H   0  0  0  0  0  0  0  0  0  0  0  0
   18.3853   17.0563   24.4711 H   0  0  0  0  0  0  0  0  0  0  0  0
   17.1096   18.1918   23.1208 C   0  0  0  0  0  0  0  0  0  0  0  0
   16.9334   19.2317   22.8167 H   0  0  0  0  0  0  0  0  0  0  0  0
   16.1627   17.7896   23.5036 H   0  0  0  0  0  0  0  0  0  0  0  0
   17.3767   17.6123   22.2285 H   0  0  0  0  0  0  0  0  0  0  0  0
  1  2  1  0  0  0  0
  1  3  1  0  0  0  0
  1  4  1  0  0  0  0
  1  5  1  0  0  0  0
  5  6  1  0  0  0  0
  5  7  1  0  0  0  0
  5  8  1  0  0  0  0
  8  9  1  0  0  0  0
  8 10  1  0  0  0  0
  8 11  1  0  0  0  0
 11 12  1  0  0  0  0
 11 13  1  0  0  0  0
 11 14  1  0  0  0  0
 14 15  1  0  0  0  0
 14 16  1  0  0  0  0
 14 17  1  0  0  0  0
 17 18  1  0  0  0  0
 17 19  1  0  0  0  0
 17 20  1  0  0  0  0
 20 21  1  0  0  0  0
 20 22  1  0  0  0  0
 20 23  1  0  0  0  0
M  END
> <VConfSearch Rank>
270

> <Conf_Id>
85

> <Delta U+W>
1.193

> <U+W>
-7.189

> <U>
48.775

> <W>
-55.965

> <W(PB)>
-58.038

> <W(SA)>
2.073

> <Valence>
2.602

> <Coulomb>
45.581

> <VdW>
0.592

> <VdW6>
-6.616

> <VdW12>
7.208

> <Bond>
0.196

> <Angle>
0.832

> <Pdih>
1.574

> <Idih>
0.000

> <Tether>
0.000

$$$$
VeraChem MOL file


 23 22  0  0  0  0  0  0  0  0999 V2000     
   18.7101   17.3638   21.6565 N   0  3  0  0  0  0  0  0  0  0  0  0
   19.2383   17.4929   22.5254 H   0  0  0  0  0  0  0  0  0  0  0  0
   19.0292   16.4871   21.2301 H   0  0  0  0  0  0  0  0  0  0  0  0
   17.7265   17.2303   21.9132 H   0  0  0  0  0  0  0  0  0  0  0  0
   18.8902   18.5434   20.7207 C   0  0  0  0  0  0  0  0  0  0  0  0
   18.2998   18.3332   19.8247 H   0  0  0  0  0  0  0  0  0  0  0  0
   19.9420   18.6009   20.4280 H   0  0  0  0  0  0  0  0  0  0  0  0
   18.4376   19.8918   21.3169 C   0  0  0  0  0  0  0  0  0  0  0  0
   18.2295   20.5731   20.4812 H   0  0  0  0  0  0  0  0  0  0  0  0
   17.4817   19.7632   21.8420 H   0  0  0  0  0  0  0  0  0  0  0  0
   19.4696   20.5846   22.2470 C   0  0  0  0  0  0  0  0  0  0  0  0
   19.0417   21.5502   22.5506 H   0  0  0  0  0  0  0  0  0  0  0  0
   20.3783   20.8316   21.6808 H   0  0  0  0  0  0  0  0  0  0  0  0
   19.8377   19.7981   23.5312 C   0  0  0  0  0  0  0  0  0  0  0  0
   19.9863   20.5163   24.3496 H   0  0  0  0  0  0  0  0  0  0  0  0
   18.9960   19.1656   23.8429 H   0  0  0  0  0  0  0  0  0  0  0  0
   21.1365   18.9679   23.3862 C   0  0  0  0  0  0  0  0  0  0  0  0
   21.9871   19.6488   23.2411 H   0  0  0  0  0  0  0  0  0  0  0  0
   21.1024   18.3331   22.4929 H   0  0  0  0  0  0  0  0  0  0  0  0
   21.3955   18.0916   24.6299 C   0  0  0  0  0  0  0  0  0  0  0  0
   21.4877   18.7081   25.5336 H   0  0  0  0  0  0  0  0  0  0  0  0
   22.3272   17.5223   24.5155 H   0  0  0  0  0  0  0  0  0  0  0  0
   20.5801   17.3742   24.7888 H   0  0  0  0  0  0  0  0  0  0  0  0
  1  2  1  0  0  0  0
  1  3  1  0  0  0  0
  1  4  1  0  0  0  0
  1  5  1  0  0  0  0
  5  6  1  0  0  0  0
  5  7  1  0  0  0  0
  5  8  1  0  0  0  0
  8  9  1  0  0  0  0
  8 10  1  0  0  0  0
  8 11  1  0  0  0  0
 11 12  1  0  0  0  0
 11 13  1  0  0  0  0
 11 14  1  0  0  0  0
 14 15  1  0  0  0  0
 14 16  1  0  0  0  0
 14 17  1  0  0  0  0
 17 18  1  0  0  0  0
 17 19  1  0  0  0  0
 17 20  1  0  0  0  0
 20 21  1  0  0  0  0
 20 22  1  0  0  0  0
 20 23  1  0  0  0  0
M  END
> <VConfSearch Rank>
271

> <Conf_Id>
82

> <Delta U+W>
5.994

> <U+W>
-2.388

> <U>
52.836

> <W>
-55.224

> <W(PB)>
-57.261

> <W(SA)>
2.037

> <Valence>
5.785

> <Coulomb>
46.744

> <VdW>
0.307

> <VdW6>
-7.672

> <VdW12>
7.979

> <Bond>
0.217

> <Angle>
1.470

> <Pdih>
4.098

> <Idih>
0.000

> <Tether>
0.000

$$$$
VeraChem MOL file


 23 22  0  0  0  0  0  0  0  0999 V2000     
   20.8103   18.3317   20.8387 N   0  3  0  0  0  0  0  0  0  0  0  0
   20.2178   18.0450   20.0528 H   0  0  0  0  0  0  0  0  0  0  0  0
   21.7481   18.5019   20.4594 H   0  0  0  0  0  0  0  0  0  0  0  0
   20.4505   19.2279   21.1822 H   0  0  0  0  0  0  0  0  0  0  0  0
   20.8287   17.2867   21.9376 C   0  0  0  0  0  0  0  0  0  0  0  0
   21.5227   17.6108   22.7176 H   0  0  0  0  0  0  0  0  0  0  0  0
   21.2203   16.3662   21.4963 H   0  0  0  0  0  0  0  0  0  0  0  0
   19.4442   17.0001   22.5537 C   0  0  0  0  0  0  0  0  0  0  0  0
   18.6911   16.9300   21.7576 H   0  0  0  0  0  0  0  0  0  0  0  0
   19.4840   16.0046   23.0153 H   0  0  0  0  0  0  0  0  0  0  0  0
   18.9813   18.0078   23.6402 C   0  0  0  0  0  0  0  0  0  0  0  0
   19.6690   17.9780   24.4968 H   0  0  0  0  0  0  0  0  0  0  0  0
   18.0158   17.6532   24.0269 H   0  0  0  0  0  0  0  0  0  0  0  0
   18.7963   19.4683   23.1544 C   0  0  0  0  0  0  0  0  0  0  0  0
   18.5264   19.4826   22.0902 H   0  0  0  0  0  0  0  0  0  0  0  0
   17.9376   19.9056   23.6828 H   0  0  0  0  0  0  0  0  0  0  0  0
   20.0293   20.3632   23.4302 C   0  0  0  0  0  0  0  0  0  0  0  0
   20.9471   19.9002   23.0487 H   0  0  0  0  0  0  0  0  0  0  0  0
   20.1692   20.4622   24.5159 H   0  0  0  0  0  0  0  0  0  0  0  0
   19.8657   21.7670   22.8102 C   0  0  0  0  0  0  0  0  0  0  0  0
   19.7560   21.7107   21.7195 H   0  0  0  0  0  0  0  0  0  0  0  0
   20.7418   22.3914   23.0285 H   0  0  0  0  0  0  0  0  0  0  0  0
   18.9814   22.2757   23.2157 H   0  0  0  0  0  0  0  0  0  0  0  0
  1  2  1  0  0  0  0
  1  3  1  0  0  0  0
  1  4  1  0  0  0  0
  1  5  1  0  0  0  0
  5  6  1  0  0  0  0
  5  7  1  0  0  0  0
  5  8  1  0  0  0  0
  8  9  1  0  0  0  0
  8 10  1  0  0  0  0
  8 11  1  0  0  0  0
 11 12  1  0  0  0  0
 11 13  1  0  0  0  0
 11 14  1  0  0  0  0
 14 15  1  0  0  0  0
 14 16  1  0  0  0  0
 14 17  1  0  0  0  0
 17 18  1  0  0  0  0
 17 19  1  0  0  0  0
 17 20  1  0  0  0  0
 20 21  1  0  0  0  0
 20 22  1  0  0  0  0
 20 23  1  0  0  0  0
M  END
> <VConfSearch Rank>
272

> <Conf_Id>
5

> <Delta U+W>
6.087

> <U+W>
-2.295

> <U>
52.836

> <W>
-55.131

> <W(PB)>
-57.202

> <W(SA)>
2.071

> <Valence>
5.785

> <Coulomb>
46.744

> <VdW>
0.307

> <VdW6>
-7.672

> <VdW12>
7.980

> <Bond>
0.217

> <Angle>
1.470

> <Pdih>
4.098

> <Idih>
0.000

> <Tether>
0.000

$$$$
VeraChem MOL file


 23 22  0  0  0  0  0  0  0  0999 V2000     
   20.5048   21.1075   25.7354 N   0  3  0  0  0  0  0  0  0  0  0  0
   19.7331   21.7710   25.6125 H   0  0  0  0  0  0  0  0  0  0  0  0
   21.2765   21.6253   26.1696 H   0  0  0  0  0  0  0  0  0  0  0  0
   20.1951   20.4076   26.4173 H   0  0  0  0  0  0  0  0  0  0  0  0
   20.9203   20.4738   24.4233 C   0  0  0  0  0  0  0  0  0  0  0  0
   21.7616   19.8047   24.6231 H   0  0  0  0  0  0  0  0  0  0  0  0
   21.2651   21.2702   23.7581 H   0  0  0  0  0  0  0  0  0  0  0  0
   19.7835   19.6885   23.7454 C   0  0  0  0  0  0  0  0  0  0  0  0
   19.4295   18.9004   24.4234 H   0  0  0  0  0  0  0  0  0  0  0  0
   18.9347   20.3607   23.5615 H   0  0  0  0  0  0  0  0  0  0  0  0
   20.2472   19.0592   22.4130 C   0  0  0  0  0  0  0  0  0  0  0  0
   21.0997   18.3916   22.6005 H   0  0  0  0  0  0  0  0  0  0  0  0
   20.6054   19.8504   21.7395 H   0  0  0  0  0  0  0  0  0  0  0  0
   19.1128   18.2677   21.7233 C   0  0  0  0  0  0  0  0  0  0  0  0
   18.7546   17.4765   22.3965 H   0  0  0  0  0  0  0  0  0  0  0  0
   18.2602   18.9351   21.5357 H   0  0  0  0  0  0  0  0  0  0  0  0
   19.5768   17.6386   20.3907 C   0  0  0  0  0  0  0  0  0  0  0  0
   20.4282   16.9680   20.5734 H   0  0  0  0  0  0  0  0  0  0  0  0
   19.9339   18.4265   19.7127 H   0  0  0  0  0  0  0  0  0  0  0  0
   18.4415   16.8491   19.7050 C   0  0  0  0  0  0  0  0  0  0  0  0
   18.7898   16.4101   18.7611 H   0  0  0  0  0  0  0  0  0  0  0  0
   17.5880   17.5014   19.4783 H   0  0  0  0  0  0  0  0  0  0  0  0
   18.0862   16.0316   20.3458 H   0  0  0  0  0  0  0  0  0  0  0  0
  1  2  1  0  0  0  0
  1  3  1  0  0  0  0
  1  4  1  0  0  0  0
  1  5  1  0  0  0  0
  5  6  1  0  0  0  0
  5  7  1  0  0  0  0
  5  8  1  0  0  0  0
  8  9  1  0  0  0  0
  8 10  1  0  0  0  0
  8 11  1  0  0  0  0
 11 12  1  0  0  0  0
 11 13  1  0  0  0  0
 11 14  1  0  0  0  0
 14 15  1  0  0  0  0
 14 16  1  0  0  0  0
 14 17  1  0  0  0  0
 17 18  1  0  0  0  0
 17 19  1  0  0  0  0
 17 20  1  0  0  0  0
 20 21  1  0  0  0  0
 20 22  1  0  0  0  0
 20 23  1  0  0  0  0
M  END
> <VConfSearch Rank>
273

> <Conf_Id>
40

> <Delta U+W>
0.000

> <U+W>
-8.382

> <U>
46.604

> <W>
-54.986

> <W(PB)>
-57.162

> <W(SA)>
2.176

> <Valence>
1.727

> <Coulomb>
44.434

> <VdW>
0.443

> <VdW6>
-4.623

> <VdW12>
5.066

> <Bond>
0.112

> <Angle>
0.386

> <Pdih>
1.228

> <Idih>
0.000

> <Tether>
0.000

$$$$
VeraChem MOL file


 23 22  0  0  0  0  0  0  0  0999 V2000     
   21.6838   16.5587   20.8687 N   0  3  0  0  0  0  0  0  0  0  0  0
   22.6654   16.5996   21.1614 H   0  0  0  0  0  0  0  0  0  0  0  0
   21.6278   16.9905   19.9406 H   0  0  0  0  0  0  0  0  0  0  0  0
   21.4491   15.5672   20.7509 H   0  0  0  0  0  0  0  0  0  0  0  0
   20.7679   17.2396   21.8653 C   0  0  0  0  0  0  0  0  0  0  0  0
   20.8564   16.7131   22.8195 H   0  0  0  0  0  0  0  0  0  0  0  0
   19.7416   17.1302   21.5057 H   0  0  0  0  0  0  0  0  0  0  0  0
   21.0957   18.7315   22.0646 C   0  0  0  0  0  0  0  0  0  0  0  0
   22.1432   18.8282   22.3797 H   0  0  0  0  0  0  0  0  0  0  0  0
   21.0057   19.2611   21.1068 H   0  0  0  0  0  0  0  0  0  0  0  0
   20.1907   19.4093   23.1206 C   0  0  0  0  0  0  0  0  0  0  0  0
   20.5601   20.4298   23.2852 H   0  0  0  0  0  0  0  0  0  0  0  0
   20.2902   18.8833   24.0802 H   0  0  0  0  0  0  0  0  0  0  0  0
   18.6990   19.4577   22.7022 C   0  0  0  0  0  0  0  0  0  0  0  0
   18.5978   20.0019   21.7531 H   0  0  0  0  0  0  0  0  0  0  0  0
   18.3369   18.4384   22.5139 H   0  0  0  0  0  0  0  0  0  0  0  0
   17.7811   20.1045   23.7678 C   0  0  0  0  0  0  0  0  0  0  0  0
   17.8702   19.5576   24.7169 H   0  0  0  0  0  0  0  0  0  0  0  0
   16.7360   19.9929   23.4464 H   0  0  0  0  0  0  0  0  0  0  0  0
   18.0702   21.6047   24.0026 C   0  0  0  0  0  0  0  0  0  0  0  0
   19.0618   21.7607   24.4449 H   0  0  0  0  0  0  0  0  0  0  0  0
   17.3316   22.0347   24.6914 H   0  0  0  0  0  0  0  0  0  0  0  0
   18.0197   22.1687   23.0622 H   0  0  0  0  0  0  0  0  0  0  0  0
  1  2  1  0  0  0  0
  1  3  1  0  0  0  0
  1  4  1  0  0  0  0
  1  5  1  0  0  0  0
  5  6  1  0  0  0  0
  5  7  1  0  0  0  0
  5  8  1  0  0  0  0
  8  9  1  0  0  0  0
  8 10  1  0  0  0  0
  8 11  1  0  0  0  0
 11 12  1  0  0  0  0
 11 13  1  0  0  0  0
 11 14  1  0  0  0  0
 14 15  1  0  0  0  0
 14 16  1  0  0  0  0
 14 17  1  0  0  0  0
 17 18  1  0  0  0  0
 17 19  1  0  0  0  0
 17 20  1  0  0  0  0
 20 21  1  0  0  0  0
 20 22  1  0  0  0  0
 20 23  1  0  0  0  0
M  END
> <VConfSearch Rank>
274

> <Conf_Id>
65

> <Delta U+W>
1.004

> <U+W>
-7.378

> <U>
48.047

> <W>
-55.425

> <W(PB)>
-57.542

> <W(SA)>
2.116

> <Valence>
2.583

> <Coulomb>
44.791

> <VdW>
0.673

> <VdW6>
-5.788

> <VdW12>
6.462

> <Bond>
0.177

> <Angle>
0.787

> <Pdih>
1.619

> <Idih>
0.000

> <Tether>
0.000

$$$$
VeraChem MOL file


 23 22  0  0  0  0  0  0  0  0999 V2000     
   16.3853   17.9715   22.1212 N   0  3  0  0  0  0  0  0  0  0  0  0
   15.7644   18.7851   22.0633 H   0  0  0  0  0  0  0  0  0  0  0  0
   15.8831   17.2508   22.6508 H   0  0  0  0  0  0  0  0  0  0  0  0
   16.5025   17.6133   21.1679 H   0  0  0  0  0  0  0  0  0  0  0  0
   17.7136   18.3184   22.7623 C   0  0  0  0  0  0  0  0  0  0  0  0
   18.3074   17.4025   22.8186 H   0  0  0  0  0  0  0  0  0  0  0  0
   17.5168   18.6644   23.7806 H   0  0  0  0  0  0  0  0  0  0  0  0
   18.4925   19.3996   21.9893 C   0  0  0  0  0  0  0  0  0  0  0  0
   18.6915   19.0521   20.9667 H   0  0  0  0  0  0  0  0  0  0  0  0
   17.8652   20.2965   21.8997 H   0  0  0  0  0  0  0  0  0  0  0  0
   19.8240   19.7864   22.6755 C   0  0  0  0  0  0  0  0  0  0  0  0
   19.6208   20.1429   23.6948 H   0  0  0  0  0  0  0  0  0  0  0  0
   20.2577   20.6344   22.1298 H   0  0  0  0  0  0  0  0  0  0  0  0
   20.8452   18.6213   22.7221 C   0  0  0  0  0  0  0  0  0  0  0  0
   20.4016   17.7647   23.2466 H   0  0  0  0  0  0  0  0  0  0  0  0
   21.0637   18.2791   21.7012 H   0  0  0  0  0  0  0  0  0  0  0  0
   22.1680   18.9899   23.4367 C   0  0  0  0  0  0  0  0  0  0  0  0
   22.7823   18.0832   23.5292 H   0  0  0  0  0  0  0  0  0  0  0  0
   21.9564   19.3230   24.4624 H   0  0  0  0  0  0  0  0  0  0  0  0
   22.9882   20.0714   22.6971 C   0  0  0  0  0  0  0  0  0  0  0  0
   22.4684   21.0372   22.6883 H   0  0  0  0  0  0  0  0  0  0  0  0
   23.1849   19.7764   21.6581 H   0  0  0  0  0  0  0  0  0  0  0  0
   23.9565   20.2235   23.1913 H   0  0  0  0  0  0  0  0  0  0  0  0
  1  2  1  0  0  0  0
  1  3  1  0  0  0  0
  1  4  1  0  0  0  0
  1  5  1  0  0  0  0
  5  6  1  0  0  0  0
  5  7  1  0  0  0  0
  5  8  1  0  0  0  0
  8  9  1  0  0  0  0
  8 10  1  0  0  0  0
  8 11  1  0  0  0  0
 11 12  1  0  0  0  0
 11 13  1  0  0  0  0
 11 14  1  0  0  0  0
 14 15  1  0  0  0  0
 14 16  1  0  0  0  0
 14 17  1  0  0  0  0
 17 18  1  0  0  0  0
 17 19  1  0  0  0  0
 17 20  1  0  0  0  0
 20 21  1  0  0  0  0
 20 22  1  0  0  0  0
 20 23  1  0  0  0  0
M  END
> <VConfSearch Rank>
275

> <Conf_Id>
92

> <Delta U+W>
0.973

> <U+W>
-7.409

> <U>
48.047

> <W>
-55.456

> <W(PB)>
-57.595

> <W(SA)>
2.138

> <Valence>
2.583

> <Coulomb>
44.791

> <VdW>
0.674

> <VdW6>
-5.789

> <VdW12>
6.462

> <Bond>
0.177

> <Angle>
0.787

> <Pdih>
1.619

> <Idih>
0.000

> <Tether>
0.000

$$$$
VeraChem MOL file


 23 22  0  0  0  0  0  0  0  0999 V2000     
   21.4964   21.9253   21.7685 N   0  3  0  0  0  0  0  0  0  0  0  0
   21.3740   22.7868   22.3116 H   0  0  0  0  0  0  0  0  0  0  0  0
   21.4908   22.1939   20.7792 H   0  0  0  0  0  0  0  0  0  0  0  0
   22.4350   21.5711   21.9793 H   0  0  0  0  0  0  0  0  0  0  0  0
   20.4225   20.9039   22.0831 C   0  0  0  0  0  0  0  0  0  0  0  0
   19.4516   21.3561   21.8631 H   0  0  0  0  0  0  0  0  0  0  0  0
   20.4675   20.6893   23.1539 H   0  0  0  0  0  0  0  0  0  0  0  0
   20.5790   19.5975   21.2821 C   0  0  0  0  0  0  0  0  0  0  0  0
   20.5768   19.8321   20.2093 H   0  0  0  0  0  0  0  0  0  0  0  0
   21.5545   19.1438   21.5026 H   0  0  0  0  0  0  0  0  0  0  0  0
   19.4532   18.5778   21.5751 C   0  0  0  0  0  0  0  0  0  0  0  0
   19.5760   17.7155   20.9051 H   0  0  0  0  0  0  0  0  0  0  0  0
   18.4802   19.0256   21.3293 H   0  0  0  0  0  0  0  0  0  0  0  0
   19.4457   18.0850   23.0422 C   0  0  0  0  0  0  0  0  0  0  0  0
   20.4305   17.6679   23.2946 H   0  0  0  0  0  0  0  0  0  0  0  0
   19.2746   18.9306   23.7217 H   0  0  0  0  0  0  0  0  0  0  0  0
   18.3578   17.0147   23.2824 C   0  0  0  0  0  0  0  0  0  0  0  0
   18.5241   16.1590   22.6130 H   0  0  0  0  0  0  0  0  0  0  0  0
   17.3703   17.4265   23.0308 H   0  0  0  0  0  0  0  0  0  0  0  0
   18.3503   16.5250   24.7462 C   0  0  0  0  0  0  0  0  0  0  0  0
   19.3151   16.0768   25.0175 H   0  0  0  0  0  0  0  0  0  0  0  0
   17.5720   15.7657   24.8969 H   0  0  0  0  0  0  0  0  0  0  0  0
   18.1513   17.3533   25.4387 H   0  0  0  0  0  0  0  0  0  0  0  0
  1  2  1  0  0  0  0
  1  3  1  0  0  0  0
  1  4  1  0  0  0  0
  1  5  1  0  0  0  0
  5  6  1  0  0  0  0
  5  7  1  0  0  0  0
  5  8  1  0  0  0  0
  8  9  1  0  0  0  0
  8 10  1  0  0  0  0
  8 11  1  0  0  0  0
 11 12  1  0  0  0  0
 11 13  1  0  0  0  0
 11 14  1  0  0  0  0
 14 15  1  0  0  0  0
 14 16  1  0  0  0  0
 14 17  1  0  0  0  0
 17 18  1  0  0  0  0
 17 19  1  0  0  0  0
 17 20  1  0  0  0  0
 20 21  1  0  0  0  0
 20 22  1  0  0  0  0
 20 23  1  0  0  0  0
M  END
> <VConfSearch Rank>
276

> <Conf_Id>
42

> <Delta U+W>
0.365

> <U+W>
-8.017

> <U>
47.375

> <W>
-55.392

> <W(PB)>
-57.543

> <W(SA)>
2.152

> <Valence>
2.032

> <Coulomb>
44.843

> <VdW>
0.499

> <VdW6>
-5.218

> <VdW12>
5.717

> <Bond>
0.135

> <Angle>
0.514

> <Pdih>
1.383

> <Idih>
0.000

> <Tether>
0.000

$$$$
VeraChem MOL file


 23 22  0  0  0  0  0  0  0  0999 V2000     
   16.8892   18.0949   21.5821 N   0  3  0  0  0  0  0  0  0  0  0  0
   16.4128   18.8735   22.0485 H   0  0  0  0  0  0  0  0  0  0  0  0
   16.1692   17.4055   21.3409 H   0  0  0  0  0  0  0  0  0  0  0  0
   17.2658   18.4550   20.7000 H   0  0  0  0  0  0  0  0  0  0  0  0
   17.9739   17.4936   22.4547 C   0  0  0  0  0  0  0  0  0  0  0  0
   18.4237   16.6582   21.9113 H   0  0  0  0  0  0  0  0  0  0  0  0
   17.4926   17.0959   23.3523 H   0  0  0  0  0  0  0  0  0  0  0  0
   19.0703   18.4956   22.8661 C   0  0  0  0  0  0  0  0  0  0  0  0
   18.6131   19.3470   23.3874 H   0  0  0  0  0  0  0  0  0  0  0  0
   19.7285   17.9948   23.5866 H   0  0  0  0  0  0  0  0  0  0  0  0
   19.9083   18.9933   21.6633 C   0  0  0  0  0  0  0  0  0  0  0  0
   19.2383   19.4010   20.8951 H   0  0  0  0  0  0  0  0  0  0  0  0
   20.4213   18.1396   21.1992 H   0  0  0  0  0  0  0  0  0  0  0  0
   20.9482   20.0878   22.0178 C   0  0  0  0  0  0  0  0  0  0  0  0
   21.4431   20.3876   21.0835 H   0  0  0  0  0  0  0  0  0  0  0  0
   20.4378   20.9894   22.3834 H   0  0  0  0  0  0  0  0  0  0  0  0
   22.0435   19.6466   23.0228 C   0  0  0  0  0  0  0  0  0  0  0  0
   22.9905   20.1291   22.7427 H   0  0  0  0  0  0  0  0  0  0  0  0
   22.2216   18.5651   22.9442 H   0  0  0  0  0  0  0  0  0  0  0  0
   21.7263   20.0351   24.4859 C   0  0  0  0  0  0  0  0  0  0  0  0
   21.6215   21.1231   24.5881 H   0  0  0  0  0  0  0  0  0  0  0  0
   22.5376   19.7153   25.1526 H   0  0  0  0  0  0  0  0  0  0  0  0
   20.8002   19.5727   24.8447 H   0  0  0  0  0  0  0  0  0  0  0  0
  1  2  1  0  0  0  0
  1  3  1  0  0  0  0
  1  4  1  0  0  0  0
  1  5  1  0  0  0  0
  5  6  1  0  0  0  0
  5  7  1  0  0  0  0
  5  8  1  0  0  0  0
  8  9  1  0  0  0  0
  8 10  1  0  0  0  0
  8 11  1  0  0  0  0
 11 12  1  0  0  0  0
 11 13  1  0  0  0  0
 11 14  1  0  0  0  0
 14 15  1  0  0  0  0
 14 16  1  0  0  0  0
 14 17  1  0  0  0  0
 17 18  1  0  0  0  0
 17 19  1  0  0  0  0
 17 20  1  0  0  0  0
 20 21  1  0  0  0  0
 20 22  1  0  0  0  0
 20 23  1  0  0  0  0
M  END
> <VConfSearch Rank>
277

> <Conf_Id>
3

> <Delta U+W>
3.283

> <U+W>
-5.099

> <U>
50.701

> <W>
-55.800

> <W(PB)>
-57.867

> <W(SA)>
2.067

> <Valence>
4.880

> <Coulomb>
45.095

> <VdW>
0.726

> <VdW6>
-6.620

> <VdW12>
7.346

> <Bond>
0.222

> <Angle>
1.260

> <Pdih>
3.398

> <Idih>
0.000

> <Tether>
0.000

$$$$
VeraChem MOL file


 23 22  0  0  0  0  0  0  0  0999 V2000     
   21.3233   16.6578   23.1632 N   0  3  0  0  0  0  0  0  0  0  0  0
   21.0160   15.8391   22.6286 H   0  0  0  0  0  0  0  0  0  0  0  0
   22.1298   16.3635   23.7242 H   0  0  0  0  0  0  0  0  0  0  0  0
   21.6625   17.3505   22.4889 H   0  0  0  0  0  0  0  0  0  0  0  0
   20.2098   17.2166   24.0270 C   0  0  0  0  0  0  0  0  0  0  0  0
   20.6100   18.0633   24.5905 H   0  0  0  0  0  0  0  0  0  0  0  0
   19.9220   16.4407   24.7417 H   0  0  0  0  0  0  0  0  0  0  0  0
   18.9678   17.6606   23.2273 C   0  0  0  0  0  0  0  0  0  0  0  0
   18.5467   16.7896   22.7079 H   0  0  0  0  0  0  0  0  0  0  0  0
   18.1967   17.9978   23.9326 H   0  0  0  0  0  0  0  0  0  0  0  0
   19.2443   18.7851   22.1973 C   0  0  0  0  0  0  0  0  0  0  0  0
   18.3092   18.9919   21.6610 H   0  0  0  0  0  0  0  0  0  0  0  0
   19.9585   18.4327   21.4414 H   0  0  0  0  0  0  0  0  0  0  0  0
   19.7690   20.0912   22.8463 C   0  0  0  0  0  0  0  0  0  0  0  0
   19.0403   20.4575   23.5826 H   0  0  0  0  0  0  0  0  0  0  0  0
   20.6914   19.8805   23.4032 H   0  0  0  0  0  0  0  0  0  0  0  0
   20.0726   21.2100   21.8204 C   0  0  0  0  0  0  0  0  0  0  0  0
   20.8094   20.8529   21.0874 H   0  0  0  0  0  0  0  0  0  0  0  0
   20.5461   22.0507   22.3467 H   0  0  0  0  0  0  0  0  0  0  0  0
   18.8165   21.7298   21.0845 C   0  0  0  0  0  0  0  0  0  0  0  0
   18.0505   22.0622   21.7971 H   0  0  0  0  0  0  0  0  0  0  0  0
   18.3767   20.9579   20.4412 H   0  0  0  0  0  0  0  0  0  0  0  0
   19.0727   22.5843   20.4448 H   0  0  0  0  0  0  0  0  0  0  0  0
  1  2  1  0  0  0  0
  1  3  1  0  0  0  0
  1  4  1  0  0  0  0
  1  5  1  0  0  0  0
  5  6  1  0  0  0  0
  5  7  1  0  0  0  0
  5  8  1  0  0  0  0
  8  9  1  0  0  0  0
  8 10  1  0  0  0  0
  8 11  1  0  0  0  0
 11 12  1  0  0  0  0
 11 13  1  0  0  0  0
 11 14  1  0  0  0  0
 14 15  1  0  0  0  0
 14 16  1  0  0  0  0
 14 17  1  0  0  0  0
 17 18  1  0  0  0  0
 17 19  1  0  0  0  0
 17 20  1  0  0  0  0
 20 21  1  0  0  0  0
 20 22  1  0  0  0  0
 20 23  1  0  0  0  0
M  END
> <VConfSearch Rank>
278

> <Conf_Id>
83

> <Delta U+W>
1.229

> <U+W>
-7.154

> <U>
48.727

> <W>
-55.880

> <W(PB)>
-57.960

> <W(SA)>
2.080

> <Valence>
2.671

> <Coulomb>
45.371

> <VdW>
0.684

> <VdW6>
-6.511

> <VdW12>
7.195

> <Bond>
0.203

> <Angle>
0.915

> <Pdih>
1.554

> <Idih>
0.000

> <Tether>
0.000

$$$$
VeraChem MOL file


 23 22  0  0  0  0  0  0  0  0999 V2000     
   22.5657   19.0395   22.0060 N   0  3  0  0  0  0  0  0  0  0  0  0
   22.9144   19.9461   21.6790 H   0  0  0  0  0  0  0  0  0  0  0  0
   21.8873   18.7077   21.3137 H   0  0  0  0  0  0  0  0  0  0  0  0
   23.3586   18.3892   21.9865 H   0  0  0  0  0  0  0  0  0  0  0  0
   21.9516   19.1378   23.3886 C   0  0  0  0  0  0  0  0  0  0  0  0
   22.7355   19.4621   24.0784 H   0  0  0  0  0  0  0  0  0  0  0  0
   21.6299   18.1374   23.6888 H   0  0  0  0  0  0  0  0  0  0  0  0
   20.7621   20.1164   23.4706 C   0  0  0  0  0  0  0  0  0  0  0  0
   20.4174   20.1655   24.5120 H   0  0  0  0  0  0  0  0  0  0  0  0
   21.1114   21.1261   23.2166 H   0  0  0  0  0  0  0  0  0  0  0  0
   19.5686   19.7435   22.5551 C   0  0  0  0  0  0  0  0  0  0  0  0
   19.8830   19.7653   21.5032 H   0  0  0  0  0  0  0  0  0  0  0  0
   18.8027   20.5226   22.6611 H   0  0  0  0  0  0  0  0  0  0  0  0
   18.9516   18.3615   22.8897 C   0  0  0  0  0  0  0  0  0  0  0  0
   19.7229   17.5846   22.8076 H   0  0  0  0  0  0  0  0  0  0  0  0
   18.6123   18.3508   23.9347 H   0  0  0  0  0  0  0  0  0  0  0  0
   17.7759   17.9708   21.9616 C   0  0  0  0  0  0  0  0  0  0  0  0
   17.4766   16.9380   22.1890 H   0  0  0  0  0  0  0  0  0  0  0  0
   18.1123   17.9693   20.9154 H   0  0  0  0  0  0  0  0  0  0  0  0
   16.5413   18.8890   22.1098 C   0  0  0  0  0  0  0  0  0  0  0  0
   16.2053   18.9336   23.1539 H   0  0  0  0  0  0  0  0  0  0  0  0
   15.7069   18.5107   21.5051 H   0  0  0  0  0  0  0  0  0  0  0  0
   16.7547   19.9108   21.7727 H   0  0  0  0  0  0  0  0  0  0  0  0
  1  2  1  0  0  0  0
  1  3  1  0  0  0  0
  1  4  1  0  0  0  0
  1  5  1  0  0  0  0
  5  6  1  0  0  0  0
  5  7  1  0  0  0  0
  5  8  1  0  0  0  0
  8  9  1  0  0  0  0
  8 10  1  0  0  0  0
  8 11  1  0  0  0  0
 11 12  1  0  0  0  0
 11 13  1  0  0  0  0
 11 14  1  0  0  0  0
 14 15  1  0  0  0  0
 14 16  1  0  0  0  0
 14 17  1  0  0  0  0
 17 18  1  0  0  0  0
 17 19  1  0  0  0  0
 17 20  1  0  0  0  0
 20 21  1  0  0  0  0
 20 22  1  0  0  0  0
 20 23  1  0  0  0  0
M  END
> <VConfSearch Rank>
279

> <Conf_Id>
50

> <Delta U+W>
1.252

> <U+W>
-7.130

> <U>
48.727

> <W>
-55.857

> <W(PB)>
-57.937

> <W(SA)>
2.080

> <Valence>
2.671

> <Coulomb>
45.371

> <VdW>
0.684

> <VdW6>
-6.511

> <VdW12>
7.196

> <Bond>
0.203

> <Angle>
0.915

> <Pdih>
1.554

> <Idih>
0.000

> <Tether>
0.000

$$$$
VeraChem MOL file


 23 22  0  0  0  0  0  0  0  0999 V2000     
   17.4072   17.0425   23.2597 N   0  3  0  0  0  0  0  0  0  0  0  0
   17.2250   17.8142   23.9085 H   0  0  0  0  0  0  0  0  0  0  0  0
   17.1137   16.1798   23.7304 H   0  0  0  0  0  0  0  0  0  0  0  0
   16.7856   17.1700   22.4548 H   0  0  0  0  0  0  0  0  0  0  0  0
   18.8645   16.9890   22.8440 C   0  0  0  0  0  0  0  0  0  0  0  0
   18.9905   16.1222   22.1894 H   0  0  0  0  0  0  0  0  0  0  0  0
   19.4678   16.8283   23.7415 H   0  0  0  0  0  0  0  0  0  0  0  0
   19.3502   18.2557   22.1130 C   0  0  0  0  0  0  0  0  0  0  0  0
   20.3719   18.0768   21.7597 H   0  0  0  0  0  0  0  0  0  0  0  0
   18.7381   18.4156   21.2155 H   0  0  0  0  0  0  0  0  0  0  0  0
   19.3063   19.5177   23.0119 C   0  0  0  0  0  0  0  0  0  0  0  0
   19.8374   19.3336   23.9560 H   0  0  0  0  0  0  0  0  0  0  0  0
   18.2610   19.7158   23.2840 H   0  0  0  0  0  0  0  0  0  0  0  0
   19.8744   20.7851   22.3211 C   0  0  0  0  0  0  0  0  0  0  0  0
   19.7260   20.7263   21.2340 H   0  0  0  0  0  0  0  0  0  0  0  0
   19.2836   21.6500   22.6535 H   0  0  0  0  0  0  0  0  0  0  0  0
   21.3610   21.0864   22.6409 C   0  0  0  0  0  0  0  0  0  0  0  0
   21.4805   21.2443   23.7219 H   0  0  0  0  0  0  0  0  0  0  0  0
   21.6345   22.0375   22.1630 H   0  0  0  0  0  0  0  0  0  0  0  0
   22.3475   19.9950   22.1709 C   0  0  0  0  0  0  0  0  0  0  0  0
   22.2130   19.7718   21.1047 H   0  0  0  0  0  0  0  0  0  0  0  0
   22.2178   19.0676   22.7422 H   0  0  0  0  0  0  0  0  0  0  0  0
   23.3837   20.3267   22.3162 H   0  0  0  0  0  0  0  0  0  0  0  0
  1  2  1  0  0  0  0
  1  3  1  0  0  0  0
  1  4  1  0  0  0  0
  1  5  1  0  0  0  0
  5  6  1  0  0  0  0
  5  7  1  0  0  0  0
  5  8  1  0  0  0  0
  8  9  1  0  0  0  0
  8 10  1  0  0  0  0
  8 11  1  0  0  0  0
 11 12  1  0  0  0  0
 11 13  1  0  0  0  0
 11 14  1  0  0  0  0
 14 15  1  0  0  0  0
 14 16  1  0  0  0  0
 14 17  1  0  0  0  0
 17 18  1  0  0  0  0
 17 19  1  0  0  0  0
 17 20  1  0  0  0  0
 20 21  1  0  0  0  0
 20 22  1  0  0  0  0
 20 23  1  0  0  0  0
M  END
> <VConfSearch Rank>
280

> <Conf_Id>
55

> <Delta U+W>
3.232

> <U+W>
-5.150

> <U>
50.625

> <W>
-55.776

> <W(PB)>
-57.839

> <W(SA)>
2.064

> <Valence>
4.837

> <Coulomb>
45.097

> <VdW>
0.692

> <VdW6>
-6.655

> <VdW12>
7.347

> <Bond>
0.223

> <Angle>
1.167

> <Pdih>
3.447

> <Idih>
0.000

> <Tether>
0.000

$$$$
VeraChem MOL file


 23 22  0  0  0  0  0  0  0  0999 V2000     
   22.5845   20.4893   22.1726 N   0  3  0  0  0  0  0  0  0  0  0  0
   23.4840   20.0168   22.3086 H   0  0  0  0  0  0  0  0  0  0  0  0
   22.7104   21.4614   22.4746 H   0  0  0  0  0  0  0  0  0  0  0  0
   22.4054   20.5114   21.1636 H   0  0  0  0  0  0  0  0  0  0  0  0
   21.4660   19.8042   22.9311 C   0  0  0  0  0  0  0  0  0  0  0  0
   20.5527   20.3797   22.7698 H   0  0  0  0  0  0  0  0  0  0  0  0
   21.7094   19.8431   23.9963 H   0  0  0  0  0  0  0  0  0  0  0  0
   21.2578   18.3382   22.5032 C   0  0  0  0  0  0  0  0  0  0  0  0
   21.0581   18.2793   21.4250 H   0  0  0  0  0  0  0  0  0  0  0  0
   22.1979   17.7970   22.6742 H   0  0  0  0  0  0  0  0  0  0  0  0
   20.1298   17.6282   23.2937 C   0  0  0  0  0  0  0  0  0  0  0  0
   20.1385   17.9593   24.3414 H   0  0  0  0  0  0  0  0  0  0  0  0
   20.3560   16.5532   23.3203 H   0  0  0  0  0  0  0  0  0  0  0  0
   18.7084   17.7914   22.6948 C   0  0  0  0  0  0  0  0  0  0  0  0
   18.6856   17.3614   21.6839 H   0  0  0  0  0  0  0  0  0  0  0  0
   18.0131   17.1900   23.2968 H   0  0  0  0  0  0  0  0  0  0  0  0
   18.1944   19.2487   22.6436 C   0  0  0  0  0  0  0  0  0  0  0  0
   18.7852   19.8284   21.9226 H   0  0  0  0  0  0  0  0  0  0  0  0
   18.3202   19.7243   23.6263 H   0  0  0  0  0  0  0  0  0  0  0  0
   16.7088   19.3141   22.2297 C   0  0  0  0  0  0  0  0  0  0  0  0
   16.0743   18.7781   22.9476 H   0  0  0  0  0  0  0  0  0  0  0  0
   16.5555   18.8681   21.2383 H   0  0  0  0  0  0  0  0  0  0  0  0
   16.3636   20.3553   22.1878 H   0  0  0  0  0  0  0  0  0  0  0  0
  1  2  1  0  0  0  0
  1  3  1  0  0  0  0
  1  4  1  0  0  0  0
  1  5  1  0  0  0  0
  5  6  1  0  0  0  0
  5  7  1  0  0  0  0
  5  8  1  0  0  0  0
  8  9  1  0  0  0  0
  8 10  1  0  0  0  0
  8 11  1  0  0  0  0
 11 12  1  0  0  0  0
 11 13  1  0  0  0  0
 11 14  1  0  0  0  0
 14 15  1  0  0  0  0
 14 16  1  0  0  0  0
 14 17  1  0  0  0  0
 17 18  1  0  0  0  0
 17 19  1  0  0  0  0
 17 20  1  0  0  0  0
 20 21  1  0  0  0  0
 20 22  1  0  0  0  0
 20 23  1  0  0  0  0
M  END
> <VConfSearch Rank>
281

> <Conf_Id>
93

> <Delta U+W>
2.589

> <U+W>
-5.793

> <U>
50.122

> <W>
-55.915

> <W(PB)>
-58.031

> <W(SA)>
2.115

> <Valence>
4.132

> <Coulomb>
45.536

> <VdW>
0.454

> <VdW6>
-6.262

> <VdW12>
6.715

> <Bond>
0.182

> <Angle>
1.157

> <Pdih>
2.794

> <Idih>
0.000

> <Tether>
0.000

$$$$
VeraChem MOL file


 23 22  0  0  0  0  0  0  0  0999 V2000     
   20.1851   21.8308   21.4135 N   0  3  0  0  0  0  0  0  0  0  0  0
   20.3745   21.4124   20.4971 H   0  0  0  0  0  0  0  0  0  0  0  0
   21.0172   22.3718   21.6722 H   0  0  0  0  0  0  0  0  0  0  0  0
   19.4214   22.5025   21.2860 H   0  0  0  0  0  0  0  0  0  0  0  0
   19.8482   20.7832   22.4550 C   0  0  0  0  0  0  0  0  0  0  0  0
   19.6878   21.2957   23.4074 H   0  0  0  0  0  0  0  0  0  0  0  0
   20.7154   20.1292   22.5626 H   0  0  0  0  0  0  0  0  0  0  0  0
   18.5965   19.9582   22.0966 C   0  0  0  0  0  0  0  0  0  0  0  0
   17.7511   20.6511   21.9909 H   0  0  0  0  0  0  0  0  0  0  0  0
   18.7246   19.4742   21.1192 H   0  0  0  0  0  0  0  0  0  0  0  0
   18.2362   18.9016   23.1714 C   0  0  0  0  0  0  0  0  0  0  0  0
   17.1524   18.7256   23.1274 H   0  0  0  0  0  0  0  0  0  0  0  0
   18.4309   19.3042   24.1752 H   0  0  0  0  0  0  0  0  0  0  0  0
   18.9391   17.5295   23.0017 C   0  0  0  0  0  0  0  0  0  0  0  0
   18.5520   16.8498   23.7735 H   0  0  0  0  0  0  0  0  0  0  0  0
   18.6529   17.0885   22.0369 H   0  0  0  0  0  0  0  0  0  0  0  0
   20.4809   17.5784   23.1058 C   0  0  0  0  0  0  0  0  0  0  0  0
   20.7774   18.1206   24.0146 H   0  0  0  0  0  0  0  0  0  0  0  0
   20.8963   18.1254   22.2495 H   0  0  0  0  0  0  0  0  0  0  0  0
   21.0949   16.1624   23.1314 C   0  0  0  0  0  0  0  0  0  0  0  0
   22.1895   16.2157   23.1943 H   0  0  0  0  0  0  0  0  0  0  0  0
   20.8365   15.6039   22.2222 H   0  0  0  0  0  0  0  0  0  0  0  0
   20.7357   15.5911   23.9973 H   0  0  0  0  0  0  0  0  0  0  0  0
  1  2  1  0  0  0  0
  1  3  1  0  0  0  0
  1  4  1  0  0  0  0
  1  5  1  0  0  0  0
  5  6  1  0  0  0  0
  5  7  1  0  0  0  0
  5  8  1  0  0  0  0
  8  9  1  0  0  0  0
  8 10  1  0  0  0  0
  8 11  1  0  0  0  0
 11 12  1  0  0  0  0
 11 13  1  0  0  0  0
 11 14  1  0  0  0  0
 14 15  1  0  0  0  0
 14 16  1  0  0  0  0
 14 17  1  0  0  0  0
 17 18  1  0  0  0  0
 17 19  1  0  0  0  0
 17 20  1  0  0  0  0
 20 21  1  0  0  0  0
 20 22  1  0  0  0  0
 20 23  1  0  0  0  0
M  END
> <VConfSearch Rank>
282

> <Conf_Id>
70

> <Delta U+W>
2.599

> <U+W>
-5.783

> <U>
50.122

> <W>
-55.906

> <W(PB)>
-58.010

> <W(SA)>
2.105

> <Valence>
4.132

> <Coulomb>
45.536

> <VdW>
0.454

> <VdW6>
-6.262

> <VdW12>
6.715

> <Bond>
0.182

> <Angle>
1.157

> <Pdih>
2.794

> <Idih>
0.000

> <Tether>
0.000

$$$$
VeraChem MOL file


 23 22  0  0  0  0  0  0  0  0999 V2000     
   17.5177   20.4275   21.7291 N   0  3  0  0  0  0  0  0  0  0  0  0
   16.7194   20.0114   21.2390 H   0  0  0  0  0  0  0  0  0  0  0  0
   17.4166   21.4454   21.6556 H   0  0  0  0  0  0  0  0  0  0  0  0
   17.4238   20.1861   22.7203 H   0  0  0  0  0  0  0  0  0  0  0  0
   18.8389   19.9495   21.1598 C   0  0  0  0  0  0  0  0  0  0  0  0
   19.6441   20.4533   21.7009 H   0  0  0  0  0  0  0  0  0  0  0  0
   18.8841   20.2640   20.1136 H   0  0  0  0  0  0  0  0  0  0  0  0
   19.0317   18.4219   21.2443 C   0  0  0  0  0  0  0  0  0  0  0  0
   18.2377   17.9276   20.6690 H   0  0  0  0  0  0  0  0  0  0  0  0
   19.9721   18.1554   20.7453 H   0  0  0  0  0  0  0  0  0  0  0  0
   19.0331   17.8659   22.6927 C   0  0  0  0  0  0  0  0  0  0  0  0
   19.2157   16.7831   22.6560 H   0  0  0  0  0  0  0  0  0  0  0  0
   18.0308   17.9828   23.1263 H   0  0  0  0  0  0  0  0  0  0  0  0
   20.0688   18.5214   23.6428 C   0  0  0  0  0  0  0  0  0  0  0  0
   19.8442   19.5893   23.7662 H   0  0  0  0  0  0  0  0  0  0  0  0
   19.9574   18.0720   24.6392 H   0  0  0  0  0  0  0  0  0  0  0  0
   21.5330   18.3481   23.1749 C   0  0  0  0  0  0  0  0  0  0  0  0
   21.6850   18.8523   22.2113 H   0  0  0  0  0  0  0  0  0  0  0  0
   21.7474   17.2823   23.0144 H   0  0  0  0  0  0  0  0  0  0  0  0
   22.5308   18.9220   24.2032 C   0  0  0  0  0  0  0  0  0  0  0  0
   23.5637   18.7931   23.8546 H   0  0  0  0  0  0  0  0  0  0  0  0
   22.4366   18.4136   25.1716 H   0  0  0  0  0  0  0  0  0  0  0  0
   22.3603   19.9948   24.3621 H   0  0  0  0  0  0  0  0  0  0  0  0
  1  2  1  0  0  0  0
  1  3  1  0  0  0  0
  1  4  1  0  0  0  0
  1  5  1  0  0  0  0
  5  6  1  0  0  0  0
  5  7  1  0  0  0  0
  5  8  1  0  0  0  0
  8  9  1  0  0  0  0
  8 10  1  0  0  0  0
  8 11  1  0  0  0  0
 11 12  1  0  0  0  0
 11 13  1  0  0  0  0
 11 14  1  0  0  0  0
 14 15  1  0  0  0  0
 14 16  1  0  0  0  0
 14 17  1  0  0  0  0
 17 18  1  0  0  0  0
 17 19  1  0  0  0  0
 17 20  1  0  0  0  0
 20 21  1  0  0  0  0
 20 22  1  0  0  0  0
 20 23  1  0  0  0  0
M  END
> <VConfSearch Rank>
283

> <Conf_Id>
72

> <Delta U+W>
1.051

> <U+W>
-7.331

> <U>
48.590

> <W>
-55.922

> <W(PB)>
-58.012

> <W(SA)>
2.090

> <Valence>
2.601

> <Coulomb>
45.520

> <VdW>
0.469

> <VdW6>
-6.867

> <VdW12>
7.336

> <Bond>
0.205

> <Angle>
0.962

> <Pdih>
1.434

> <Idih>
0.000

> <Tether>
0.000

$$$$
VeraChem MOL file


 23 22  0  0  0  0  0  0  0  0999 V2000     
   20.6623   20.6136   20.1086 N   0  3  0  0  0  0  0  0  0  0  0  0
   20.2973   20.6120   19.1500 H   0  0  0  0  0  0  0  0  0  0  0  0
   21.6715   20.7807   20.0424 H   0  0  0  0  0  0  0  0  0  0  0  0
   20.2526   21.4251   20.5822 H   0  0  0  0  0  0  0  0  0  0  0  0
   20.3502   19.3194   20.8318 C   0  0  0  0  0  0  0  0  0  0  0  0
   20.7901   18.4979   20.2599 H   0  0  0  0  0  0  0  0  0  0  0  0
   19.2645   19.1916   20.8384 H   0  0  0  0  0  0  0  0  0  0  0  0
   20.8852   19.2900   22.2756 C   0  0  0  0  0  0  0  0  0  0  0  0
   21.9705   19.4565   22.2601 H   0  0  0  0  0  0  0  0  0  0  0  0
   20.4543   20.1219   22.8472 H   0  0  0  0  0  0  0  0  0  0  0  0
   20.5956   17.9482   22.9931 C   0  0  0  0  0  0  0  0  0  0  0  0
   21.0201   17.9834   24.0053 H   0  0  0  0  0  0  0  0  0  0  0  0
   21.1357   17.1445   22.4738 H   0  0  0  0  0  0  0  0  0  0  0  0
   19.0936   17.5632   23.0735 C   0  0  0  0  0  0  0  0  0  0  0  0
   18.7127   17.3666   22.0623 H   0  0  0  0  0  0  0  0  0  0  0  0
   19.0045   16.6099   23.6124 H   0  0  0  0  0  0  0  0  0  0  0  0
   18.1800   18.6114   23.7582 C   0  0  0  0  0  0  0  0  0  0  0  0
   17.1467   18.2373   23.7447 H   0  0  0  0  0  0  0  0  0  0  0  0
   18.1695   19.5434   23.1773 H   0  0  0  0  0  0  0  0  0  0  0  0
   18.5808   18.9121   25.2202 C   0  0  0  0  0  0  0  0  0  0  0  0
   18.6103   17.9920   25.8181 H   0  0  0  0  0  0  0  0  0  0  0  0
   17.8558   19.5921   25.6858 H   0  0  0  0  0  0  0  0  0  0  0  0
   19.5664   19.3906   25.2769 H   0  0  0  0  0  0  0  0  0  0  0  0
  1  2  1  0  0  0  0
  1  3  1  0  0  0  0
  1  4  1  0  0  0  0
  1  5  1  0  0  0  0
  5  6  1  0  0  0  0
  5  7  1  0  0  0  0
  5  8  1  0  0  0  0
  8  9  1  0  0  0  0
  8 10  1  0  0  0  0
  8 11  1  0  0  0  0
 11 12  1  0  0  0  0
 11 13  1  0  0  0  0
 11 14  1  0  0  0  0
 14 15  1  0  0  0  0
 14 16  1  0  0  0  0
 14 17  1  0  0  0  0
 17 18  1  0  0  0  0
 17 19  1  0  0  0  0
 17 20  1  0  0  0  0
 20 21  1  0  0  0  0
 20 22  1  0  0  0  0
 20 23  1  0  0  0  0
M  END
> <VConfSearch Rank>
284

> <Conf_Id>
26

> <Delta U+W>
1.076

> <U+W>
-7.306

> <U>
48.641

> <W>
-55.947

> <W(PB)>
-58.031

> <W(SA)>
2.084

> <Valence>
2.922

> <Coulomb>
45.269

> <VdW>
0.449

> <VdW6>
-7.045

> <VdW12>
7.494

> <Bond>
0.220

> <Angle>
1.205

> <Pdih>
1.497

> <Idih>
0.000

> <Tether>
0.000

$$$$
VeraChem MOL file


 23 22  0  0  0  0  0  0  0  0999 V2000     
   20.1103   15.9285   22.0274 N   0  3  0  0  0  0  0  0  0  0  0  0
   19.2575   15.3760   22.1631 H   0  0  0  0  0  0  0  0  0  0  0  0
   20.9026   15.2988   22.1937 H   0  0  0  0  0  0  0  0  0  0  0  0
   20.1432   16.1942   21.0379 H   0  0  0  0  0  0  0  0  0  0  0  0
   20.1511   17.1376   22.9395 C   0  0  0  0  0  0  0  0  0  0  0  0
   21.0953   17.6595   22.7634 H   0  0  0  0  0  0  0  0  0  0  0  0
   20.1421   16.7817   23.9733 H   0  0  0  0  0  0  0  0  0  0  0  0
   18.9736   18.1043   22.7143 C   0  0  0  0  0  0  0  0  0  0  0  0
   18.9740   18.4521   21.6735 H   0  0  0  0  0  0  0  0  0  0  0  0
   18.0302   17.5608   22.8572 H   0  0  0  0  0  0  0  0  0  0  0  0
   19.0029   19.3166   23.6779 C   0  0  0  0  0  0  0  0  0  0  0  0
   18.8797   18.9541   24.7078 H   0  0  0  0  0  0  0  0  0  0  0  0
   18.1292   19.9523   23.4819 H   0  0  0  0  0  0  0  0  0  0  0  0
   20.2952   20.1743   23.6067 C   0  0  0  0  0  0  0  0  0  0  0  0
   20.2011   21.0092   24.3148 H   0  0  0  0  0  0  0  0  0  0  0  0
   21.1475   19.5804   23.9633 H   0  0  0  0  0  0  0  0  0  0  0  0
   20.6324   20.7435   22.2051 C   0  0  0  0  0  0  0  0  0  0  0  0
   20.8353   19.9251   21.5015 H   0  0  0  0  0  0  0  0  0  0  0  0
   21.5669   21.3176   22.2759 H   0  0  0  0  0  0  0  0  0  0  0  0
   19.5274   21.6609   21.6341 C   0  0  0  0  0  0  0  0  0  0  0  0
   18.6018   21.1042   21.4422 H   0  0  0  0  0  0  0  0  0  0  0  0
   19.8494   22.1050   20.6833 H   0  0  0  0  0  0  0  0  0  0  0  0
   19.2983   22.4807   22.3272 H   0  0  0  0  0  0  0  0  0  0  0  0
  1  2  1  0  0  0  0
  1  3  1  0  0  0  0
  1  4  1  0  0  0  0
  1  5  1  0  0  0  0
  5  6  1  0  0  0  0
  5  7  1  0  0  0  0
  5  8  1  0  0  0  0
  8  9  1  0  0  0  0
  8 10  1  0  0  0  0
  8 11  1  0  0  0  0
 11 12  1  0  0  0  0
 11 13  1  0  0  0  0
 11 14  1  0  0  0  0
 14 15  1  0  0  0  0
 14 16  1  0  0  0  0
 14 17  1  0  0  0  0
 17 18  1  0  0  0  0
 17 19  1  0  0  0  0
 17 20  1  0  0  0  0
 20 21  1  0  0  0  0
 20 22  1  0  0  0  0
 20 23  1  0  0  0  0
M  END
> <VConfSearch Rank>
285

> <Conf_Id>
90

> <Delta U+W>
1.131

> <U+W>
-7.251

> <U>
48.641

> <W>
-55.892

> <W(PB)>
-57.962

> <W(SA)>
2.070

> <Valence>
2.922

> <Coulomb>
45.269

> <VdW>
0.450

> <VdW6>
-7.045

> <VdW12>
7.495

> <Bond>
0.220

> <Angle>
1.205

> <Pdih>
1.497

> <Idih>
0.000

> <Tether>
0.000

$$$$
VeraChem MOL file


 23 22  0  0  0  0  0  0  0  0999 V2000     
   22.1002   17.8575   23.3340 N   0  3  0  0  0  0  0  0  0  0  0  0
   22.3945   17.0133   23.8366 H   0  0  0  0  0  0  0  0  0  0  0  0
   21.4326   18.3491   23.9359 H   0  0  0  0  0  0  0  0  0  0  0  0
   22.9273   18.4563   23.2450 H   0  0  0  0  0  0  0  0  0  0  0  0
   21.4965   17.5270   21.9831 C   0  0  0  0  0  0  0  0  0  0  0  0
   20.6426   16.8646   22.1464 H   0  0  0  0  0  0  0  0  0  0  0  0
   22.2469   16.9772   21.4086 H   0  0  0  0  0  0  0  0  0  0  0  0
   21.0486   18.7680   21.1842 C   0  0  0  0  0  0  0  0  0  0  0  0
   21.9225   19.4025   20.9854 H   0  0  0  0  0  0  0  0  0  0  0  0
   20.6790   18.4407   20.2034 H   0  0  0  0  0  0  0  0  0  0  0  0
   19.9542   19.6090   21.8883 C   0  0  0  0  0  0  0  0  0  0  0  0
   19.7142   20.4729   21.2534 H   0  0  0  0  0  0  0  0  0  0  0  0
   20.3534   20.0190   22.8246 H   0  0  0  0  0  0  0  0  0  0  0  0
   18.6576   18.8069   22.1658 C   0  0  0  0  0  0  0  0  0  0  0  0
   18.3217   18.3347   21.2323 H   0  0  0  0  0  0  0  0  0  0  0  0
   18.8609   17.9896   22.8705 H   0  0  0  0  0  0  0  0  0  0  0  0
   17.5040   19.6780   22.7189 C   0  0  0  0  0  0  0  0  0  0  0  0
   16.5971   19.0608   22.7863 H   0  0  0  0  0  0  0  0  0  0  0  0
   17.2739   20.4851   22.0094 H   0  0  0  0  0  0  0  0  0  0  0  0
   17.8023   20.2787   24.1114 C   0  0  0  0  0  0  0  0  0  0  0  0
   18.0613   19.4934   24.8333 H   0  0  0  0  0  0  0  0  0  0  0  0
   16.9227   20.8109   24.4963 H   0  0  0  0  0  0  0  0  0  0  0  0
   18.6304   20.9972   24.0718 H   0  0  0  0  0  0  0  0  0  0  0  0
  1  2  1  0  0  0  0
  1  3  1  0  0  0  0
  1  4  1  0  0  0  0
  1  5  1  0  0  0  0
  5  6  1  0  0  0  0
  5  7  1  0  0  0  0
  5  8  1  0  0  0  0
  8  9  1  0  0  0  0
  8 10  1  0  0  0  0
  8 11  1  0  0  0  0
 11 12  1  0  0  0  0
 11 13  1  0  0  0  0
 11 14  1  0  0  0  0
 14 15  1  0  0  0  0
 14 16  1  0  0  0  0
 14 17  1  0  0  0  0
 17 18  1  0  0  0  0
 17 19  1  0  0  0  0
 17 20  1  0  0  0  0
 20 21  1  0  0  0  0
 20 22  1  0  0  0  0
 20 23  1  0  0  0  0
M  END
> <VConfSearch Rank>
286

> <Conf_Id>
85

> <Delta U+W>
1.193

> <U+W>
-7.189

> <U>
48.775

> <W>
-55.965

> <W(PB)>
-58.038

> <W(SA)>
2.073

> <Valence>
2.602

> <Coulomb>
45.581

> <VdW>
0.592

> <VdW6>
-6.616

> <VdW12>
7.208

> <Bond>
0.196

> <Angle>
0.832

> <Pdih>
1.574

> <Idih>
0.000

> <Tether>
0.000

$$$$
VeraChem MOL file


 23 22  0  0  0  0  0  0  0  0999 V2000     
   20.2591   17.7509   20.9360 N   0  3  0  0  0  0  0  0  0  0  0  0
   19.8962   18.7010   21.0630 H   0  0  0  0  0  0  0  0  0  0  0  0
   19.7080   17.3079   20.1928 H   0  0  0  0  0  0  0  0  0  0  0  0
   21.2193   17.8342   20.5864 H   0  0  0  0  0  0  0  0  0  0  0  0
   20.1996   16.9600   22.2285 C   0  0  0  0  0  0  0  0  0  0  0  0
   20.6021   15.9663   22.0137 H   0  0  0  0  0  0  0  0  0  0  0  0
   19.1525   16.8457   22.5214 H   0  0  0  0  0  0  0  0  0  0  0  0
   21.0019   17.5885   23.3860 C   0  0  0  0  0  0  0  0  0  0  0  0
   21.2284   16.7914   24.1065 H   0  0  0  0  0  0  0  0  0  0  0  0
   21.9738   17.9407   23.0155 H   0  0  0  0  0  0  0  0  0  0  0  0
   20.2773   18.7277   24.1523 C   0  0  0  0  0  0  0  0  0  0  0  0
   20.9350   19.0399   24.9754 H   0  0  0  0  0  0  0  0  0  0  0  0
   19.3699   18.3377   24.6338 H   0  0  0  0  0  0  0  0  0  0  0  0
   19.9366   19.9826   23.3081 C   0  0  0  0  0  0  0  0  0  0  0  0
   20.0568   20.8724   23.9418 H   0  0  0  0  0  0  0  0  0  0  0  0
   20.6633   20.1002   22.4934 H   0  0  0  0  0  0  0  0  0  0  0  0
   18.4862   19.9775   22.7666 C   0  0  0  0  0  0  0  0  0  0  0  0
   17.7843   20.0292   23.6110 H   0  0  0  0  0  0  0  0  0  0  0  0
   18.2621   19.0395   22.2450 H   0  0  0  0  0  0  0  0  0  0  0  0
   18.2268   21.1674   21.8186 C   0  0  0  0  0  0  0  0  0  0  0  0
   18.3924   22.1234   22.3324 H   0  0  0  0  0  0  0  0  0  0  0  0
   17.1904   21.1558   21.4569 H   0  0  0  0  0  0  0  0  0  0  0  0
   18.8889   21.1318   20.9439 H   0  0  0  0  0  0  0  0  0  0  0  0
  1  2  1  0  0  0  0
  1  3  1  0  0  0  0
  1  4  1  0  0  0  0
  1  5  1  0  0  0  0
  5  6  1  0  0  0  0
  5  7  1  0  0  0  0
  5  8  1  0  0  0  0
  8  9  1  0  0  0  0
  8 10  1  0  0  0  0
  8 11  1  0  0  0  0
 11 12  1  0  0  0  0
 11 13  1  0  0  0  0
 11 14  1  0  0  0  0
 14 15  1  0  0  0  0
 14 16  1  0  0  0  0
 14 17  1  0  0  0  0
 17 18  1  0  0  0  0
 17 19  1  0  0  0  0
 17 20  1  0  0  0  0
 20 21  1  0  0  0  0
 20 22  1  0  0  0  0
 20 23  1  0  0  0  0
M  END
> <VConfSearch Rank>
287

> <Conf_Id>
82

> <Delta U+W>
5.994

> <U+W>
-2.388

> <U>
52.836

> <W>
-55.224

> <W(PB)>
-57.261

> <W(SA)>
2.037

> <Valence>
5.785

> <Coulomb>
46.744

> <VdW>
0.307

> <VdW6>
-7.672

> <VdW12>
7.979

> <Bond>
0.217

> <Angle>
1.470

> <Pdih>
4.098

> <Idih>
0.000

> <Tether>
0.000

$$$$
VeraChem MOL file


 23 22  0  0  0  0  0  0  0  0999 V2000     
   20.1414   16.9357   22.6457 N   0  3  0  0  0  0  0  0  0  0  0  0
   19.4316   16.3432   22.2028 H   0  0  0  0  0  0  0  0  0  0  0  0
   20.9797   16.3571   22.7677 H   0  0  0  0  0  0  0  0  0  0  0  0
   20.3761   17.6804   21.9816 H   0  0  0  0  0  0  0  0  0  0  0  0
   19.6536   17.5052   23.9638 C   0  0  0  0  0  0  0  0  0  0  0  0
   20.4675   18.0725   24.4229 H   0  0  0  0  0  0  0  0  0  0  0  0
   19.4238   16.6559   24.6130 H   0  0  0  0  0  0  0  0  0  0  0  0
   18.4005   18.3953   23.8370 C   0  0  0  0  0  0  0  0  0  0  0  0
   17.6795   17.9261   23.1544 H   0  0  0  0  0  0  0  0  0  0  0  0
   17.9088   18.4211   24.8185 H   0  0  0  0  0  0  0  0  0  0  0  0
   18.6706   19.8615   23.4040 C   0  0  0  0  0  0  0  0  0  0  0  0
   19.2861   20.3685   24.1600 H   0  0  0  0  0  0  0  0  0  0  0  0
   17.7063   20.3884   23.4095 H   0  0  0  0  0  0  0  0  0  0  0  0
   19.3025   20.0322   21.9987 C   0  0  0  0  0  0  0  0  0  0  0  0
   19.0061   19.2004   21.3460 H   0  0  0  0  0  0  0  0  0  0  0  0
   18.8827   20.9357   21.5348 H   0  0  0  0  0  0  0  0  0  0  0  0
   20.8422   20.1902   22.0379 C   0  0  0  0  0  0  0  0  0  0  0  0
   21.3076   19.3856   22.6195 H   0  0  0  0  0  0  0  0  0  0  0  0
   21.0972   21.1250   22.5569 H   0  0  0  0  0  0  0  0  0  0  0  0
   21.4495   20.2163   20.6193 C   0  0  0  0  0  0  0  0  0  0  0  0
   21.2430   19.2828   20.0801 H   0  0  0  0  0  0  0  0  0  0  0  0
   22.5388   20.3440   20.6664 H   0  0  0  0  0  0  0  0  0  0  0  0
   21.0393   21.0475   20.0308 H   0  0  0  0  0  0  0  0  0  0  0  0
  1  2  1  0  0  0  0
  1  3  1  0  0  0  0
  1  4  1  0  0  0  0
  1  5  1  0  0  0  0
  5  6  1  0  0  0  0
  5  7  1  0  0  0  0
  5  8  1  0  0  0  0
  8  9  1  0  0  0  0
  8 10  1  0  0  0  0
  8 11  1  0  0  0  0
 11 12  1  0  0  0  0
 11 13  1  0  0  0  0
 11 14  1  0  0  0  0
 14 15  1  0  0  0  0
 14 16  1  0  0  0  0
 14 17  1  0  0  0  0
 17 18  1  0  0  0  0
 17 19  1  0  0  0  0
 17 20  1  0  0  0  0
 20 21  1  0  0  0  0
 20 22  1  0  0  0  0
 20 23  1  0  0  0  0
M  END
> <VConfSearch Rank>
288

> <Conf_Id>
5

> <Delta U+W>
6.087

> <U+W>
-2.295

> <U>
52.836

> <W>
-55.131

> <W(PB)>
-57.202

> <W(SA)>
2.071

> <Valence>
5.785

> <Coulomb>
46.744

> <VdW>
0.307

> <VdW6>
-7.672

> <VdW12>
7.980

> <Bond>
0.217

> <Angle>
1.470

> <Pdih>
4.098

> <Idih>
0.000

> <Tether>
0.000

$$$$
VeraChem MOL file


 23 22  0  0  0  0  0  0  0  0999 V2000     
   21.5510   19.8677   25.8965 N   0  3  0  0  0  0  0  0  0  0  0  0
   20.9003   20.6034   26.1901 H   0  0  0  0  0  0  0  0  0  0  0  0
   22.4794   20.1370   26.2393 H   0  0  0  0  0  0  0  0  0  0  0  0
   21.2854   19.0131   26.3964 H   0  0  0  0  0  0  0  0  0  0  0  0
   21.5411   19.6704   24.3942 C   0  0  0  0  0  0  0  0  0  0  0  0
   22.2749   18.8973   24.1505 H   0  0  0  0  0  0  0  0  0  0  0  0
   21.8610   20.6067   23.9287 H   0  0  0  0  0  0  0  0  0  0  0  0
   20.1607   19.2653   23.8475 C   0  0  0  0  0  0  0  0  0  0  0  0
   19.8364   18.3333   24.3295 H   0  0  0  0  0  0  0  0  0  0  0  0
   19.4240   20.0367   24.1087 H   0  0  0  0  0  0  0  0  0  0  0  0
   20.1933   19.0744   22.3149 C   0  0  0  0  0  0  0  0  0  0  0  0
   20.9353   18.3058   22.0573 H   0  0  0  0  0  0  0  0  0  0  0  0
   20.5232   20.0073   21.8367 H   0  0  0  0  0  0  0  0  0  0  0  0
   18.8114   18.6672   21.7549 C   0  0  0  0  0  0  0  0  0  0  0  0
   18.4814   17.7343   22.2328 H   0  0  0  0  0  0  0  0  0  0  0  0
   18.0694   19.4356   22.0123 H   0  0  0  0  0  0  0  0  0  0  0  0
   18.8443   18.4765   20.2221 C   0  0  0  0  0  0  0  0  0  0  0  0
   19.5836   17.7067   19.9596 H   0  0  0  0  0  0  0  0  0  0  0  0
   19.1715   19.4079   19.7391 H   0  0  0  0  0  0  0  0  0  0  0  0
   17.4628   18.0699   19.6666 C   0  0  0  0  0  0  0  0  0  0  0  0
   17.5061   17.9392   18.5775 H   0  0  0  0  0  0  0  0  0  0  0  0
   16.7084   18.8372   19.8840 H   0  0  0  0  0  0  0  0  0  0  0  0
   17.1236   17.1228   20.1062 H   0  0  0  0  0  0  0  0  0  0  0  0
  1  2  1  0  0  0  0
  1  3  1  0  0  0  0
  1  4  1  0  0  0  0
  1  5  1  0  0  0  0
  5  6  1  0  0  0  0
  5  7  1  0  0  0  0
  5  8  1  0  0  0  0
  8  9  1  0  0  0  0
  8 10  1  0  0  0  0
  8 11  1  0  0  0  0
 11 12  1  0  0  0  0
 11 13  1  0  0  0  0
 11 14  1  0  0  0  0
 14 15  1  0  0  0  0
 14 16  1  0  0  0  0
 14 17  1  0  0  0  0
 17 18  1  0  0  0  0
 17 19  1  0  0  0  0
 17 20  1  0  0  0  0
 20 21  1  0  0  0  0
 20 22  1  0  0  0  0
 20 23  1  0  0  0  0
M  END
> <VConfSearch Rank>
289

> <Conf_Id>
40

> <Delta U+W>
0.000

> <U+W>
-8.382

> <U>
46.604

> <W>
-54.986

> <W(PB)>
-57.162

> <W(SA)>
2.176

> <Valence>
1.727

> <Coulomb>
44.434

> <VdW>
0.443

> <VdW6>
-4.623

> <VdW12>
5.066

> <Bond>
0.112

> <Angle>
0.386

> <Pdih>
1.228

> <Idih>
0.000

> <Tether>
0.000

$$$$
VeraChem MOL file


 23 22  0  0  0  0  0  0  0  0999 V2000     
   20.7038   22.4478   22.2281 N   0  3  0  0  0  0  0  0  0  0  0  0
   19.8726   23.0320   22.0916 H   0  0  0  0  0  0  0  0  0  0  0  0
   21.1581   22.3516   21.3143 H   0  0  0  0  0  0  0  0  0  0  0  0
   21.3461   22.9790   22.8259 H   0  0  0  0  0  0  0  0  0  0  0  0
   20.3562   21.1021   22.8314 C   0  0  0  0  0  0  0  0  0  0  0  0
   19.9043   21.2781   23.8113 H   0  0  0  0  0  0  0  0  0  0  0  0
   21.2880   20.5496   22.9763 H   0  0  0  0  0  0  0  0  0  0  0  0
   19.3915   20.2796   21.9562 C   0  0  0  0  0  0  0  0  0  0  0  0
   18.4803   20.8667   21.7800 H   0  0  0  0  0  0  0  0  0  0  0  0
   19.8455   20.1015   20.9722 H   0  0  0  0  0  0  0  0  0  0  0  0
   19.0000   18.9287   22.6005 C   0  0  0  0  0  0  0  0  0  0  0  0
   18.2294   18.4604   21.9745 H   0  0  0  0  0  0  0  0  0  0  0  0
   18.5373   19.1106   23.5804 H   0  0  0  0  0  0  0  0  0  0  0  0
   20.1997   17.9603   22.7596 C   0  0  0  0  0  0  0  0  0  0  0  0
   20.6490   17.7623   21.7766 H   0  0  0  0  0  0  0  0  0  0  0  0
   20.9804   18.4389   23.3653 H   0  0  0  0  0  0  0  0  0  0  0  0
   19.8231   16.6186   23.4340 C   0  0  0  0  0  0  0  0  0  0  0  0
   19.3826   16.8100   24.4225 H   0  0  0  0  0  0  0  0  0  0  0  0
   20.7431   16.0450   23.6139 H   0  0  0  0  0  0  0  0  0  0  0  0
   18.8566   15.7548   22.5919 C   0  0  0  0  0  0  0  0  0  0  0  0
   17.8738   16.2311   22.4895 H   0  0  0  0  0  0  0  0  0  0  0  0
   18.7007   14.7782   23.0684 H   0  0  0  0  0  0  0  0  0  0  0  0
   19.2598   15.5767   21.5866 H   0  0  0  0  0  0  0  0  0  0  0  0
  1  2  1  0  0  0  0
  1  3  1  0  0  0  0
  1  4  1  0  0  0  0
  1  5  1  0  0  0  0
  5  6  1  0  0  0  0
  5  7  1  0  0  0  0
  5  8  1  0  0  0  0
  8  9  1  0  0  0  0
  8 10  1  0  0  0  0
  8 11  1  0  0  0  0
 11 12  1  0  0  0  0
 11 13  1  0  0  0  0
 11 14  1  0  0  0  0
 14 15  1  0  0  0  0
 14 16  1  0  0  0  0
 14 17  1  0  0  0  0
 17 18  1  0  0  0  0
 17 19  1  0  0  0  0
 17 20  1  0  0  0  0
 20 21  1  0  0  0  0
 20 22  1  0  0  0  0
 20 23  1  0  0  0  0
M  END
> <VConfSearch Rank>
290

> <Conf_Id>
65

> <Delta U+W>
1.004

> <U+W>
-7.378

> <U>
48.047

> <W>
-55.425

> <W(PB)>
-57.542

> <W(SA)>
2.116

> <Valence>
2.583

> <Coulomb>
44.791

> <VdW>
0.673

> <VdW6>
-5.788

> <VdW12>
6.462

> <Bond>
0.177

> <Angle>
0.787

> <Pdih>
1.619

> <Idih>
0.000

> <Tether>
0.000

$$$$
VeraChem MOL file


 23 22  0  0  0  0  0  0  0  0999 V2000     
   22.1920   19.4229   25.2062 N   0  3  0  0  0  0  0  0  0  0  0  0
   21.9996   18.7752   25.9771 H   0  0  0  0  0  0  0  0  0  0  0  0
   22.4990   20.3057   25.6286 H   0  0  0  0  0  0  0  0  0  0  0  0
   22.9926   19.0461   24.6886 H   0  0  0  0  0  0  0  0  0  0  0  0
   20.9823   19.6159   24.3147 C   0  0  0  0  0  0  0  0  0  0  0  0
   21.2500   20.3377   23.5389 H   0  0  0  0  0  0  0  0  0  0  0  0
   20.1804   20.0446   24.9219 H   0  0  0  0  0  0  0  0  0  0  0  0
   20.4965   18.3063   23.6650 C   0  0  0  0  0  0  0  0  0  0  0  0
   21.3011   17.8759   23.0539 H   0  0  0  0  0  0  0  0  0  0  0  0
   20.2768   17.5757   24.4548 H   0  0  0  0  0  0  0  0  0  0  0  0
   19.2309   18.5004   22.7965 C   0  0  0  0  0  0  0  0  0  0  0  0
   18.4248   18.9219   23.4128 H   0  0  0  0  0  0  0  0  0  0  0  0
   18.8862   17.5118   22.4665 H   0  0  0  0  0  0  0  0  0  0  0  0
   19.4736   19.4052   21.5616 C   0  0  0  0  0  0  0  0  0  0  0  0
   19.8419   20.3856   21.8911 H   0  0  0  0  0  0  0  0  0  0  0  0
   20.2655   18.9722   20.9349 H   0  0  0  0  0  0  0  0  0  0  0  0
   18.2041   19.6317   20.7050 C   0  0  0  0  0  0  0  0  0  0  0  0
   18.4334   20.3714   19.9251 H   0  0  0  0  0  0  0  0  0  0  0  0
   17.4117   20.0746   21.3244 H   0  0  0  0  0  0  0  0  0  0  0  0
   17.6783   18.3449   20.0290 C   0  0  0  0  0  0  0  0  0  0  0  0
   17.3165   17.6192   20.7677 H   0  0  0  0  0  0  0  0  0  0  0  0
   18.4626   17.8647   19.4296 H   0  0  0  0  0  0  0  0  0  0  0  0
   16.8403   18.5782   19.3594 H   0  0  0  0  0  0  0  0  0  0  0  0
  1  2  1  0  0  0  0
  1  3  1  0  0  0  0
  1  4  1  0  0  0  0
  1  5  1  0  0  0  0
  5  6  1  0  0  0  0
  5  7  1  0  0  0  0
  5  8  1  0  0  0  0
  8  9  1  0  0  0  0
  8 10  1  0  0  0  0
  8 11  1  0  0  0  0
 11 12  1  0  0  0  0
 11 13  1  0  0  0  0
 11 14  1  0  0  0  0
 14 15  1  0  0  0  0
 14 16  1  0  0  0  0
 14 17  1  0  0  0  0
 17 18  1  0  0  0  0
 17 19  1  0  0  0  0
 17 20  1  0  0  0  0
 20 21  1  0  0  0  0
 20 22  1  0  0  0  0
 20 23  1  0  0  0  0
M  END
> <VConfSearch Rank>
291

> <Conf_Id>
92

> <Delta U+W>
0.973

> <U+W>
-7.409

> <U>
48.047

> <W>
-55.456

> <W(PB)>
-57.595

> <W(SA)>
2.138

> <Valence>
2.583

> <Coulomb>
44.791

> <VdW>
0.674

> <VdW6>
-5.789

> <VdW12>
6.462

> <Bond>
0.177

> <Angle>
0.787

> <Pdih>
1.619

> <Idih>
0.000

> <Tether>
0.000

$$$$
VeraChem MOL file


 23 22  0  0  0  0  0  0  0  0999 V2000     
   19.8882   19.7710   26.0404 N   0  3  0  0  0  0  0  0  0  0  0  0
   19.0355   19.9616   26.5776 H   0  0  0  0  0  0  0  0  0  0  0  0
   20.5771   20.4789   26.3145 H   0  0  0  0  0  0  0  0  0  0  0  0
   20.2446   18.8642   26.3590 H   0  0  0  0  0  0  0  0  0  0  0  0
   19.6279   19.7835   24.5478 C   0  0  0  0  0  0  0  0  0  0  0  0
   19.2248   20.7649   24.2836 H   0  0  0  0  0  0  0  0  0  0  0  0
   18.8659   19.0295   24.3341 H   0  0  0  0  0  0  0  0  0  0  0  0
   20.8908   19.5003   23.7126 C   0  0  0  0  0  0  0  0  0  0  0  0
   21.6632   20.2375   23.9692 H   0  0  0  0  0  0  0  0  0  0  0  0
   21.2961   18.5149   23.9785 H   0  0  0  0  0  0  0  0  0  0  0  0
   20.6265   19.5599   22.1895 C   0  0  0  0  0  0  0  0  0  0  0  0
   21.5827   19.4419   21.6613 H   0  0  0  0  0  0  0  0  0  0  0  0
   20.2452   20.5555   21.9226 H   0  0  0  0  0  0  0  0  0  0  0  0
   19.6380   18.4738   21.7009 C   0  0  0  0  0  0  0  0  0  0  0  0
   20.0058   17.4820   21.9984 H   0  0  0  0  0  0  0  0  0  0  0  0
   18.6615   18.6095   22.1847 H   0  0  0  0  0  0  0  0  0  0  0  0
   19.4531   18.5144   20.1676 C   0  0  0  0  0  0  0  0  0  0  0  0
   20.4237   18.3710   19.6724 H   0  0  0  0  0  0  0  0  0  0  0  0
   19.0859   19.5049   19.8644 H   0  0  0  0  0  0  0  0  0  0  0  0
   18.4661   17.4317   19.6816 C   0  0  0  0  0  0  0  0  0  0  0  0
   18.8235   16.4266   19.9411 H   0  0  0  0  0  0  0  0  0  0  0  0
   18.3483   17.4760   18.5911 H   0  0  0  0  0  0  0  0  0  0  0  0
   17.4750   17.5694   20.1333 H   0  0  0  0  0  0  0  0  0  0  0  0
  1  2  1  0  0  0  0
  1  3  1  0  0  0  0
  1  4  1  0  0  0  0
  1  5  1  0  0  0  0
  5  6  1  0  0  0  0
  5  7  1  0  0  0  0
  5  8  1  0  0  0  0
  8  9  1  0  0  0  0
  8 10  1  0  0  0  0
  8 11  1  0  0  0  0
 11 12  1  0  0  0  0
 11 13  1  0  0  0  0
 11 14  1  0  0  0  0
 14 15  1  0  0  0  0
 14 16  1  0  0  0  0
 14 17  1  0  0  0  0
 17 18  1  0  0  0  0
 17 19  1  0  0  0  0
 17 20  1  0  0  0  0
 20 21  1  0  0  0  0
 20 22  1  0  0  0  0
 20 23  1  0  0  0  0
M  END
> <VConfSearch Rank>
292

> <Conf_Id>
42

> <Delta U+W>
0.365

> <U+W>
-8.017

> <U>
47.375

> <W>
-55.392

> <W(PB)>
-57.543

> <W(SA)>
2.152

> <Valence>
2.032

> <Coulomb>
44.843

> <VdW>
0.499

> <VdW6>
-5.218

> <VdW12>
5.717

> <Bond>
0.135

> <Angle>
0.514

> <Pdih>
1.383

> <Idih>
0.000

> <Tether>
0.000

$$$$
VeraChem MOL file


 23 22  0  0  0  0  0  0  0  0999 V2000     
   21.8286   21.3933   22.6045 N   0  3  0  0  0  0  0  0  0  0  0  0
   21.7904   21.4974   21.5855 H   0  0  0  0  0  0  0  0  0  0  0  0
   22.6665   21.8907   22.9245 H   0  0  0  0  0  0  0  0  0  0  0  0
   21.0202   21.8905   22.9902 H   0  0  0  0  0  0  0  0  0  0  0  0
   21.8459   19.9355   23.0220 C   0  0  0  0  0  0  0  0  0  0  0  0
   21.9109   19.8947   24.1126 H   0  0  0  0  0  0  0  0  0  0  0  0
   22.7531   19.4851   22.6100 H   0  0  0  0  0  0  0  0  0  0  0  0
   20.6181   19.1354   22.5449 C   0  0  0  0  0  0  0  0  0  0  0  0
   20.5392   19.2008   21.4517 H   0  0  0  0  0  0  0  0  0  0  0  0
   20.7894   18.0804   22.7912 H   0  0  0  0  0  0  0  0  0  0  0  0
   19.3007   19.6106   23.2048 C   0  0  0  0  0  0  0  0  0  0  0  0
   19.1816   20.6904   23.0465 H   0  0  0  0  0  0  0  0  0  0  0  0
   19.3660   19.4667   24.2922 H   0  0  0  0  0  0  0  0  0  0  0  0
   18.0269   18.9072   22.6683 C   0  0  0  0  0  0  0  0  0  0  0  0
   17.1628   19.3572   23.1765 H   0  0  0  0  0  0  0  0  0  0  0  0
   17.8919   19.1330   21.6015 H   0  0  0  0  0  0  0  0  0  0  0  0
   17.9794   17.3751   22.9026 C   0  0  0  0  0  0  0  0  0  0  0  0
   16.9405   17.0855   23.1142 H   0  0  0  0  0  0  0  0  0  0  0  0
   18.5555   17.1072   23.7992 H   0  0  0  0  0  0  0  0  0  0  0  0
   18.4641   16.5528   21.6856 C   0  0  0  0  0  0  0  0  0  0  0  0
   17.8448   16.7582   20.8028 H   0  0  0  0  0  0  0  0  0  0  0  0
   18.3956   15.4778   21.8968 H   0  0  0  0  0  0  0  0  0  0  0  0
   19.5050   16.7743   21.4254 H   0  0  0  0  0  0  0  0  0  0  0  0
  1  2  1  0  0  0  0
  1  3  1  0  0  0  0
  1  4  1  0  0  0  0
  1  5  1  0  0  0  0
  5  6  1  0  0  0  0
  5  7  1  0  0  0  0
  5  8  1  0  0  0  0
  8  9  1  0  0  0  0
  8 10  1  0  0  0  0
  8 11  1  0  0  0  0
 11 12  1  0  0  0  0
 11 13  1  0  0  0  0
 11 14  1  0  0  0  0
 14 15  1  0  0  0  0
 14 16  1  0  0  0  0
 14 17  1  0  0  0  0
 17 18  1  0  0  0  0
 17 19  1  0  0  0  0
 17 20  1  0  0  0  0
 20 21  1  0  0  0  0
 20 22  1  0  0  0  0
 20 23  1  0  0  0  0
M  END
> <VConfSearch Rank>
293

> <Conf_Id>
3

> <Delta U+W>
3.283

> <U+W>
-5.099

> <U>
50.701

> <W>
-55.800

> <W(PB)>
-57.867

> <W(SA)>
2.067

> <Valence>
4.880

> <Coulomb>
45.095

> <VdW>
0.726

> <VdW6>
-6.620

> <VdW12>
7.346

> <Bond>
0.222

> <Angle>
1.260

> <Pdih>
3.398

> <Idih>
0.000

> <Tether>
0.000

$$$$
VeraChem MOL file


 23 22  0  0  0  0  0  0  0  0999 V2000     
   19.8978   18.0102   19.8738 N   0  3  0  0  0  0  0  0  0  0  0  0
   18.9836   17.7178   19.5142 H   0  0  0  0  0  0  0  0  0  0  0  0
   20.5759   17.8697   19.1173 H   0  0  0  0  0  0  0  0  0  0  0  0
   19.8467   19.0184   20.0487 H   0  0  0  0  0  0  0  0  0  0  0  0
   20.2821   17.2443   21.1244 C   0  0  0  0  0  0  0  0  0  0  0  0
   21.2743   17.5800   21.4363 H   0  0  0  0  0  0  0  0  0  0  0  0
   20.3516   16.1861   20.8581 H   0  0  0  0  0  0  0  0  0  0  0  0
   19.2829   17.4140   22.2871 C   0  0  0  0  0  0  0  0  0  0  0  0
   18.3038   17.0253   21.9770 H   0  0  0  0  0  0  0  0  0  0  0  0
   19.6089   16.7854   23.1264 H   0  0  0  0  0  0  0  0  0  0  0  0
   19.1206   18.8753   22.7769 C   0  0  0  0  0  0  0  0  0  0  0  0
   18.3624   18.8854   23.5706 H   0  0  0  0  0  0  0  0  0  0  0  0
   18.7224   19.4995   21.9660 H   0  0  0  0  0  0  0  0  0  0  0  0
   20.4393   19.4892   23.3124 C   0  0  0  0  0  0  0  0  0  0  0  0
   20.8218   18.8787   24.1419 H   0  0  0  0  0  0  0  0  0  0  0  0
   21.2055   19.4574   22.5268 H   0  0  0  0  0  0  0  0  0  0  0  0
   20.2903   20.9578   23.7786 C   0  0  0  0  0  0  0  0  0  0  0  0
   19.9182   21.5756   22.9493 H   0  0  0  0  0  0  0  0  0  0  0  0
   21.2859   21.3495   24.0302 H   0  0  0  0  0  0  0  0  0  0  0  0
   19.3668   21.1246   25.0068 C   0  0  0  0  0  0  0  0  0  0  0  0
   19.6987   20.4911   25.8395 H   0  0  0  0  0  0  0  0  0  0  0  0
   18.3278   20.8651   24.7694 H   0  0  0  0  0  0  0  0  0  0  0  0
   19.3745   22.1659   25.3541 H   0  0  0  0  0  0  0  0  0  0  0  0
  1  2  1  0  0  0  0
  1  3  1  0  0  0  0
  1  4  1  0  0  0  0
  1  5  1  0  0  0  0
  5  6  1  0  0  0  0
  5  7  1  0  0  0  0
  5  8  1  0  0  0  0
  8  9  1  0  0  0  0
  8 10  1  0  0  0  0
  8 11  1  0  0  0  0
 11 12  1  0  0  0  0
 11 13  1  0  0  0  0
 11 14  1  0  0  0  0
 14 15  1  0  0  0  0
 14 16  1  0  0  0  0
 14 17  1  0  0  0  0
 17 18  1  0  0  0  0
 17 19  1  0  0  0  0
 17 20  1  0  0  0  0
 20 21  1  0  0  0  0
 20 22  1  0  0  0  0
 20 23  1  0  0  0  0
M  END
> <VConfSearch Rank>
294

> <Conf_Id>
83

> <Delta U+W>
1.229

> <U+W>
-7.154

> <U>
48.727

> <W>
-55.880

> <W(PB)>
-57.960

> <W(SA)>
2.080

> <Valence>
2.671

> <Coulomb>
45.371

> <VdW>
0.684

> <VdW6>
-6.511

> <VdW12>
7.195

> <Bond>
0.203

> <Angle>
0.915

> <Pdih>
1.554

> <Idih>
0.000

> <Tether>
0.000

$$$$
VeraChem MOL file


 23 22  0  0  0  0  0  0  0  0999 V2000     
   17.7226   16.9753   23.0916 N   0  3  0  0  0  0  0  0  0  0  0  0
   17.5420   16.3695   22.2847 H   0  0  0  0  0  0  0  0  0  0  0  0
   17.4477   17.9256   22.8250 H   0  0  0  0  0  0  0  0  0  0  0  0
   17.0868   16.6762   23.8387 H   0  0  0  0  0  0  0  0  0  0  0  0
   19.1731   16.9143   23.5281 C   0  0  0  0  0  0  0  0  0  0  0  0
   19.3867   15.8852   23.8295 H   0  0  0  0  0  0  0  0  0  0  0  0
   19.2904   17.5547   24.4059 H   0  0  0  0  0  0  0  0  0  0  0  0
   20.1694   17.3425   22.4311 C   0  0  0  0  0  0  0  0  0  0  0  0
   21.1908   17.2156   22.8138 H   0  0  0  0  0  0  0  0  0  0  0  0
   20.0762   16.6590   21.5767 H   0  0  0  0  0  0  0  0  0  0  0  0
   19.9857   18.8011   21.9407 C   0  0  0  0  0  0  0  0  0  0  0  0
   18.9933   18.9208   21.4862 H   0  0  0  0  0  0  0  0  0  0  0  0
   20.7129   18.9841   21.1391 H   0  0  0  0  0  0  0  0  0  0  0  0
   20.1783   19.8513   23.0644 C   0  0  0  0  0  0  0  0  0  0  0  0
   19.4677   19.6543   23.8777 H   0  0  0  0  0  0  0  0  0  0  0  0
   21.1820   19.7483   23.4993 H   0  0  0  0  0  0  0  0  0  0  0  0
   19.9699   21.3091   22.5873 C   0  0  0  0  0  0  0  0  0  0  0  0
   20.0082   21.9740   23.4615 H   0  0  0  0  0  0  0  0  0  0  0  0
   18.9632   21.4209   22.1609 H   0  0  0  0  0  0  0  0  0  0  0  0
   21.0251   21.7790   21.5601 C   0  0  0  0  0  0  0  0  0  0  0  0
   22.0425   21.6464   21.9502 H   0  0  0  0  0  0  0  0  0  0  0  0
   20.8900   22.8441   21.3311 H   0  0  0  0  0  0  0  0  0  0  0  0
   20.9436   21.2270   20.6157 H   0  0  0  0  0  0  0  0  0  0  0  0
  1  2  1  0  0  0  0
  1  3  1  0  0  0  0
  1  4  1  0  0  0  0
  1  5  1  0  0  0  0
  5  6  1  0  0  0  0
  5  7  1  0  0  0  0
  5  8  1  0  0  0  0
  8  9  1  0  0  0  0
  8 10  1  0  0  0  0
  8 11  1  0  0  0  0
 11 12  1  0  0  0  0
 11 13  1  0  0  0  0
 11 14  1  0  0  0  0
 14 15  1  0  0  0  0
 14 16  1  0  0  0  0
 14 17  1  0  0  0  0
 17 18  1  0  0  0  0
 17 19  1  0  0  0  0
 17 20  1  0  0  0  0
 20 21  1  0  0  0  0
 20 22  1  0  0  0  0
 20 23  1  0  0  0  0
M  END
> <VConfSearch Rank>
295

> <Conf_Id>
50

> <Delta U+W>
1.252

> <U+W>
-7.130

> <U>
48.727

> <W>
-55.857

> <W(PB)>
-57.937

> <W(SA)>
2.080

> <Valence>
2.671

> <Coulomb>
45.371

> <VdW>
0.684

> <VdW6>
-6.511

> <VdW12>
7.196

> <Bond>
0.203

> <Angle>
0.915

> <Pdih>
1.554

> <Idih>
0.000

> <Tether>
0.000

$$$$
VeraChem MOL file


 23 22  0  0  0  0  0  0  0  0999 V2000     
   22.8917   18.3381   22.5421 N   0  3  0  0  0  0  0  0  0  0  0  0
   22.8665   19.2740   22.1260 H   0  0  0  0  0  0  0  0  0  0  0  0
   23.6391   17.8197   22.0682 H   0  0  0  0  0  0  0  0  0  0  0  0
   23.1785   18.4487   23.5199 H   0  0  0  0  0  0  0  0  0  0  0  0
   21.5547   17.6329   22.4229 C   0  0  0  0  0  0  0  0  0  0  0  0
   21.6690   16.6321   22.8483 H   0  0  0  0  0  0  0  0  0  0  0  0
   21.3208   17.5264   21.3602 H   0  0  0  0  0  0  0  0  0  0  0  0
   20.4003   18.3624   23.1370 C   0  0  0  0  0  0  0  0  0  0  0  0
   19.5102   17.7253   23.0882 H   0  0  0  0  0  0  0  0  0  0  0  0
   20.6422   18.4715   24.2026 H   0  0  0  0  0  0  0  0  0  0  0  0
   20.1000   19.7524   22.5203 C   0  0  0  0  0  0  0  0  0  0  0  0
   19.9501   19.6652   21.4353 H   0  0  0  0  0  0  0  0  0  0  0  0
   20.9825   20.3919   22.6555 H   0  0  0  0  0  0  0  0  0  0  0  0
   18.8838   20.4636   23.1693 C   0  0  0  0  0  0  0  0  0  0  0  0
   18.7751   20.1537   24.2178 H   0  0  0  0  0  0  0  0  0  0  0  0
   19.0943   21.5417   23.2003 H   0  0  0  0  0  0  0  0  0  0  0  0
   17.5430   20.2727   22.4150 C   0  0  0  0  0  0  0  0  0  0  0  0
   17.6315   20.6793   21.3978 H   0  0  0  0  0  0  0  0  0  0  0  0
   16.7723   20.8746   22.9166 H   0  0  0  0  0  0  0  0  0  0  0  0
   17.0568   18.8088   22.3407 C   0  0  0  0  0  0  0  0  0  0  0  0
   17.0136   18.3544   23.3390 H   0  0  0  0  0  0  0  0  0  0  0  0
   17.7153   18.2016   21.7075 H   0  0  0  0  0  0  0  0  0  0  0  0
   16.0498   18.7609   21.9064 H   0  0  0  0  0  0  0  0  0  0  0  0
  1  2  1  0  0  0  0
  1  3  1  0  0  0  0
  1  4  1  0  0  0  0
  1  5  1  0  0  0  0
  5  6  1  0  0  0  0
  5  7  1  0  0  0  0
  5  8  1  0  0  0  0
  8  9  1  0  0  0  0
  8 10  1  0  0  0  0
  8 11  1  0  0  0  0
 11 12  1  0  0  0  0
 11 13  1  0  0  0  0
 11 14  1  0  0  0  0
 14 15  1  0  0  0  0
 14 16  1  0  0  0  0
 14 17  1  0  0  0  0
 17 18  1  0  0  0  0
 17 19  1  0  0  0  0
 17 20  1  0  0  0  0
 20 21  1  0  0  0  0
 20 22  1  0  0  0  0
 20 23  1  0  0  0  0
M  END
> <VConfSearch Rank>
296

> <Conf_Id>
55

> <Delta U+W>
3.232

> <U+W>
-5.150

> <U>
50.625

> <W>
-55.776

> <W(PB)>
-57.839

> <W(SA)>
2.064

> <Valence>
4.837

> <Coulomb>
45.097

> <VdW>
0.692

> <VdW6>
-6.655

> <VdW12>
7.347

> <Bond>
0.223

> <Angle>
1.167

> <Pdih>
3.447

> <Idih>
0.000

> <Tether>
0.000

$$$$
VeraChem MOL file


 23 22  0  0  0  0  0  0  0  0999 V2000     
   19.6398   17.2747   20.0064 N   0  3  0  0  0  0  0  0  0  0  0  0
   19.5181   17.6898   19.0771 H   0  0  0  0  0  0  0  0  0  0  0  0
   19.1156   16.3931   20.0096 H   0  0  0  0  0  0  0  0  0  0  0  0
   20.6314   17.0323   20.1006 H   0  0  0  0  0  0  0  0  0  0  0  0
   19.1786   18.2083   21.1071 C   0  0  0  0  0  0  0  0  0  0  0  0
   19.3033   17.6887   22.0589 H   0  0  0  0  0  0  0  0  0  0  0  0
   18.1122   18.3995   20.9605 H   0  0  0  0  0  0  0  0  0  0  0  0
   19.9446   19.5458   21.1229 C   0  0  0  0  0  0  0  0  0  0  0  0
   21.0235   19.3673   21.2229 H   0  0  0  0  0  0  0  0  0  0  0  0
   19.7999   20.0322   20.1490 H   0  0  0  0  0  0  0  0  0  0  0  0
   19.4590   20.5118   22.2330 C   0  0  0  0  0  0  0  0  0  0  0  0
   18.3688   20.4351   22.3482 H   0  0  0  0  0  0  0  0  0  0  0  0
   19.6504   21.5407   21.8981 H   0  0  0  0  0  0  0  0  0  0  0  0
   20.1543   20.3313   23.6076 C   0  0  0  0  0  0  0  0  0  0  0  0
   21.2324   20.5135   23.4991 H   0  0  0  0  0  0  0  0  0  0  0  0
   19.7806   21.1122   24.2844 H   0  0  0  0  0  0  0  0  0  0  0  0
   19.9316   18.9501   24.2658 C   0  0  0  0  0  0  0  0  0  0  0  0
   20.4366   18.1711   23.6802 H   0  0  0  0  0  0  0  0  0  0  0  0
   18.8595   18.7086   24.2747 H   0  0  0  0  0  0  0  0  0  0  0  0
   20.4766   18.9130   25.7095 C   0  0  0  0  0  0  0  0  0  0  0  0
   19.9694   19.6526   26.3428 H   0  0  0  0  0  0  0  0  0  0  0  0
   21.5534   19.1260   25.7303 H   0  0  0  0  0  0  0  0  0  0  0  0
   20.3202   17.9231   26.1574 H   0  0  0  0  0  0  0  0  0  0  0  0
  1  2  1  0  0  0  0
  1  3  1  0  0  0  0
  1  4  1  0  0  0  0
  1  5  1  0  0  0  0
  5  6  1  0  0  0  0
  5  7  1  0  0  0  0
  5  8  1  0  0  0  0
  8  9  1  0  0  0  0
  8 10  1  0  0  0  0
  8 11  1  0  0  0  0
 11 12  1  0  0  0  0
 11 13  1  0  0  0  0
 11 14  1  0  0  0  0
 14 15  1  0  0  0  0
 14 16  1  0  0  0  0
 14 17  1  0  0  0  0
 17 18  1  0  0  0  0
 17 19  1  0  0  0  0
 17 20  1  0  0  0  0
 20 21  1  0  0  0  0
 20 22  1  0  0  0  0
 20 23  1  0  0  0  0
M  END
> <VConfSearch Rank>
297

> <Conf_Id>
93

> <Delta U+W>
2.589

> <U+W>
-5.793

> <U>
50.122

> <W>
-55.915

> <W(PB)>
-58.031

> <W(SA)>
2.115

> <Valence>
4.132

> <Coulomb>
45.536

> <VdW>
0.454

> <VdW6>
-6.262

> <VdW12>
6.715

> <Bond>
0.182

> <Angle>
1.157

> <Pdih>
2.794

> <Idih>
0.000

> <Tether>
0.000

$$$$
VeraChem MOL file


 23 22  0  0  0  0  0  0  0  0999 V2000     
   19.9928   16.3745   24.3396 N   0  3  0  0  0  0  0  0  0  0  0  0
   20.7216   16.0359   23.7033 H   0  0  0  0  0  0  0  0  0  0  0  0
   19.2515   15.6657   24.3483 H   0  0  0  0  0  0  0  0  0  0  0  0
   20.3988   16.3919   25.2807 H   0  0  0  0  0  0  0  0  0  0  0  0
   19.4674   17.7341   23.9257 C   0  0  0  0  0  0  0  0  0  0  0  0
   18.6785   18.0173   24.6277 H   0  0  0  0  0  0  0  0  0  0  0  0
   19.0203   17.6312   22.9353 H   0  0  0  0  0  0  0  0  0  0  0  0
   20.5586   18.8225   23.9103 C   0  0  0  0  0  0  0  0  0  0  0  0
   20.9864   18.8897   24.9195 H   0  0  0  0  0  0  0  0  0  0  0  0
   21.3810   18.5299   23.2440 H   0  0  0  0  0  0  0  0  0  0  0  0
   20.0193   20.2190   23.5098 C   0  0  0  0  0  0  0  0  0  0  0  0
   20.6580   20.9794   23.9802 H   0  0  0  0  0  0  0  0  0  0  0  0
   19.0165   20.3707   23.9330 H   0  0  0  0  0  0  0  0  0  0  0  0
   20.0028   20.5014   21.9849 C   0  0  0  0  0  0  0  0  0  0  0  0
   19.6712   21.5380   21.8332 H   0  0  0  0  0  0  0  0  0  0  0  0
   21.0276   20.4494   21.5920 H   0  0  0  0  0  0  0  0  0  0  0  0
   19.0911   19.5595   21.1651 C   0  0  0  0  0  0  0  0  0  0  0  0
   18.0918   19.5167   21.6203 H   0  0  0  0  0  0  0  0  0  0  0  0
   19.4989   18.5404   21.1774 H   0  0  0  0  0  0  0  0  0  0  0  0
   18.9659   20.0230   19.6981 C   0  0  0  0  0  0  0  0  0  0  0  0
   18.3249   19.3377   19.1285 H   0  0  0  0  0  0  0  0  0  0  0  0
   19.9480   20.0514   19.2082 H   0  0  0  0  0  0  0  0  0  0  0  0
   18.5240   21.0261   19.6366 H   0  0  0  0  0  0  0  0  0  0  0  0
  1  2  1  0  0  0  0
  1  3  1  0  0  0  0
  1  4  1  0  0  0  0
  1  5  1  0  0  0  0
  5  6  1  0  0  0  0
  5  7  1  0  0  0  0
  5  8  1  0  0  0  0
  8  9  1  0  0  0  0
  8 10  1  0  0  0  0
  8 11  1  0  0  0  0
 11 12  1  0  0  0  0
 11 13  1  0  0  0  0
 11 14  1  0  0  0  0
 14 15  1  0  0  0  0
 14 16  1  0  0  0  0
 14 17  1  0  0  0  0
 17 18  1  0  0  0  0
 17 19  1  0  0  0  0
 17 20  1  0  0  0  0
 20 21  1  0  0  0  0
 20 22  1  0  0  0  0
 20 23  1  0  0  0  0
M  END
> <VConfSearch Rank>
298

> <Conf_Id>
70

> <Delta U+W>
2.599

> <U+W>
-5.783

> <U>
50.122

> <W>
-55.906

> <W(PB)>
-58.010

> <W(SA)>
2.105

> <Valence>
4.132

> <Coulomb>
45.536

> <VdW>
0.454

> <VdW6>
-6.262

> <VdW12>
6.715

> <Bond>
0.182

> <Angle>
1.157

> <Pdih>
2.794

> <Idih>
0.000

> <Tether>
0.000

$$$$
VeraChem MOL file


 23 22  0  0  0  0  0  0  0  0999 V2000     
   19.8283   21.4259   24.0447 N   0  3  0  0  0  0  0  0  0  0  0  0
   20.5655   22.1352   23.9827 H   0  0  0  0  0  0  0  0  0  0  0  0
   19.2466   21.6686   24.8537 H   0  0  0  0  0  0  0  0  0  0  0  0
   19.2415   21.5252   23.2109 H   0  0  0  0  0  0  0  0  0  0  0  0
   20.4016   20.0273   24.1618 C   0  0  0  0  0  0  0  0  0  0  0  0
   19.5688   19.3257   24.2577 H   0  0  0  0  0  0  0  0  0  0  0  0
   20.9895   19.9844   25.0827 H   0  0  0  0  0  0  0  0  0  0  0  0
   21.2890   19.6213   22.9679 C   0  0  0  0  0  0  0  0  0  0  0  0
   22.1404   20.3117   22.9024 H   0  0  0  0  0  0  0  0  0  0  0  0
   21.7211   18.6325   23.1680 H   0  0  0  0  0  0  0  0  0  0  0  0
   20.5440   19.6002   21.6072 C   0  0  0  0  0  0  0  0  0  0  0  0
   21.2408   19.2629   20.8275 H   0  0  0  0  0  0  0  0  0  0  0  0
   20.2648   20.6260   21.3315 H   0  0  0  0  0  0  0  0  0  0  0  0
   19.2752   18.7095   21.5712 C   0  0  0  0  0  0  0  0  0  0  0  0
   18.5274   19.0896   22.2798 H   0  0  0  0  0  0  0  0  0  0  0  0
   18.8194   18.7965   20.5752 H   0  0  0  0  0  0  0  0  0  0  0  0
   19.5590   17.2174   21.8645 C   0  0  0  0  0  0  0  0  0  0  0  0
   19.9498   17.0994   22.8840 H   0  0  0  0  0  0  0  0  0  0  0  0
   20.3349   16.8459   21.1806 H   0  0  0  0  0  0  0  0  0  0  0  0
   18.2875   16.3556   21.7129 C   0  0  0  0  0  0  0  0  0  0  0  0
   18.5061   15.3013   21.9269 H   0  0  0  0  0  0  0  0  0  0  0  0
   17.8886   16.4160   20.6919 H   0  0  0  0  0  0  0  0  0  0  0  0
   17.5029   16.6846   22.4067 H   0  0  0  0  0  0  0  0  0  0  0  0
  1  2  1  0  0  0  0
  1  3  1  0  0  0  0
  1  4  1  0  0  0  0
  1  5  1  0  0  0  0
  5  6  1  0  0  0  0
  5  7  1  0  0  0  0
  5  8  1  0  0  0  0
  8  9  1  0  0  0  0
  8 10  1  0  0  0  0
  8 11  1  0  0  0  0
 11 12  1  0  0  0  0
 11 13  1  0  0  0  0
 11 14  1  0  0  0  0
 14 15  1  0  0  0  0
 14 16  1  0  0  0  0
 14 17  1  0  0  0  0
 17 18  1  0  0  0  0
 17 19  1  0  0  0  0
 17 20  1  0  0  0  0
 20 21  1  0  0  0  0
 20 22  1  0  0  0  0
 20 23  1  0  0  0  0
M  END
> <VConfSearch Rank>
299

> <Conf_Id>
72

> <Delta U+W>
1.051

> <U+W>
-7.331

> <U>
48.590

> <W>
-55.922

> <W(PB)>
-58.012

> <W(SA)>
2.090

> <Valence>
2.601

> <Coulomb>
45.520

> <VdW>
0.469

> <VdW6>
-6.867

> <VdW12>
7.336

> <Bond>
0.205

> <Angle>
0.962

> <Pdih>
1.434

> <Idih>
0.000

> <Tether>
0.000

$$$$
VeraChem MOL file


 23 22  0  0  0  0  0  0  0  0999 V2000     
   22.0851   21.0517   22.4787 N   0  3  0  0  0  0  0  0  0  0  0  0
   22.9554   21.0330   21.9364 H   0  0  0  0  0  0  0  0  0  0  0  0
   22.2958   21.5251   23.3632 H   0  0  0  0  0  0  0  0  0  0  0  0
   21.4274   21.6482   21.9666 H   0  0  0  0  0  0  0  0  0  0  0  0
   21.5306   19.6594   22.7013 C   0  0  0  0  0  0  0  0  0  0  0  0
   22.2906   19.0724   23.2240 H   0  0  0  0  0  0  0  0  0  0  0  0
   21.3586   19.2057   21.7218 H   0  0  0  0  0  0  0  0  0  0  0  0
   20.2221   19.6529   23.5135 C   0  0  0  0  0  0  0  0  0  0  0  0
   20.3967   20.1441   24.4800 H   0  0  0  0  0  0  0  0  0  0  0  0
   19.4623   20.2526   22.9962 H   0  0  0  0  0  0  0  0  0  0  0  0
   19.6845   18.2230   23.7694 C   0  0  0  0  0  0  0  0  0  0  0  0
   18.7670   18.2865   24.3694 H   0  0  0  0  0  0  0  0  0  0  0  0
   20.4078   17.6783   24.3919 H   0  0  0  0  0  0  0  0  0  0  0  0
   19.4098   17.3912   22.4875 C   0  0  0  0  0  0  0  0  0  0  0  0
   20.3592   17.1881   21.9739 H   0  0  0  0  0  0  0  0  0  0  0  0
   19.0195   16.4081   22.7846 H   0  0  0  0  0  0  0  0  0  0  0  0
   18.4236   18.0369   21.4811 C   0  0  0  0  0  0  0  0  0  0  0  0
   18.3187   17.3680   20.6156 H   0  0  0  0  0  0  0  0  0  0  0  0
   18.8411   18.9735   21.0879 H   0  0  0  0  0  0  0  0  0  0  0  0
   17.0229   18.3002   22.0788 C   0  0  0  0  0  0  0  0  0  0  0  0
   16.5902   17.3790   22.4901 H   0  0  0  0  0  0  0  0  0  0  0  0
   16.3397   18.6765   21.3065 H   0  0  0  0  0  0  0  0  0  0  0  0
   17.0614   19.0492   22.8794 H   0  0  0  0  0  0  0  0  0  0  0  0
  1  2  1  0  0  0  0
  1  3  1  0  0  0  0
  1  4  1  0  0  0  0
  1  5  1  0  0  0  0
  5  6  1  0  0  0  0
  5  7  1  0  0  0  0
  5  8  1  0  0  0  0
  8  9  1  0  0  0  0
  8 10  1  0  0  0  0
  8 11  1  0  0  0  0
 11 12  1  0  0  0  0
 11 13  1  0  0  0  0
 11 14  1  0  0  0  0
 14 15  1  0  0  0  0
 14 16  1  0  0  0  0
 14 17  1  0  0  0  0
 17 18  1  0  0  0  0
 17 19  1  0  0  0  0
 17 20  1  0  0  0  0
 20 21  1  0  0  0  0
 20 22  1  0  0  0  0
 20 23  1  0  0  0  0
M  END
> <VConfSearch Rank>
300

> <Conf_Id>
26

> <Delta U+W>
1.076

> <U+W>
-7.306

> <U>
48.641

> <W>
-55.947

> <W(PB)>
-58.031

> <W(SA)>
2.084

> <Valence>
2.922

> <Coulomb>
45.269

> <VdW>
0.449

> <VdW6>
-7.045

> <VdW12>
7.494

> <Bond>
0.220

> <Angle>
1.205

> <Pdih>
1.497

> <Idih>
0.000

> <Tether>
0.000

$$$$
VeraChem MOL file


 23 22  0  0  0  0  0  0  0  0999 V2000     
   21.9366   21.2242   22.0365 N   0  3  0  0  0  0  0  0  0  0  0  0
   22.3644   21.6433   22.8684 H   0  0  0  0  0  0  0  0  0  0  0  0
   21.9589   21.9368   21.2992 H   0  0  0  0  0  0  0  0  0  0  0  0
   22.5511   20.4619   21.7329 H   0  0  0  0  0  0  0  0  0  0  0  0
   20.5270   20.7401   22.3090 C   0  0  0  0  0  0  0  0  0  0  0  0
   20.1246   20.3356   21.3767 H   0  0  0  0  0  0  0  0  0  0  0  0
   19.9229   21.6042   22.5986 H   0  0  0  0  0  0  0  0  0  0  0  0
   20.4592   19.6678   23.4124 C   0  0  0  0  0  0  0  0  0  0  0  0
   21.0758   18.8053   23.1287 H   0  0  0  0  0  0  0  0  0  0  0  0
   20.8997   20.0717   24.3335 H   0  0  0  0  0  0  0  0  0  0  0  0
   19.0106   19.2081   23.7108 C   0  0  0  0  0  0  0  0  0  0  0  0
   18.4428   20.0607   24.1084 H   0  0  0  0  0  0  0  0  0  0  0  0
   19.0292   18.4635   24.5178 H   0  0  0  0  0  0  0  0  0  0  0  0
   18.2456   18.6306   22.4894 C   0  0  0  0  0  0  0  0  0  0  0  0
   17.2427   18.3239   22.8170 H   0  0  0  0  0  0  0  0  0  0  0  0
   18.0832   19.4270   21.7507 H   0  0  0  0  0  0  0  0  0  0  0  0
   18.9314   17.4298   21.7894 C   0  0  0  0  0  0  0  0  0  0  0  0
   19.8934   17.7396   21.3595 H   0  0  0  0  0  0  0  0  0  0  0  0
   18.3089   17.1180   20.9392 H   0  0  0  0  0  0  0  0  0  0  0  0
   19.1433   16.2160   22.7222 C   0  0  0  0  0  0  0  0  0  0  0  0
   19.8485   16.4476   23.5300 H   0  0  0  0  0  0  0  0  0  0  0  0
   19.5516   15.3658   22.1605 H   0  0  0  0  0  0  0  0  0  0  0  0
   18.1956   15.8959   23.1742 H   0  0  0  0  0  0  0  0  0  0  0  0
  1  2  1  0  0  0  0
  1  3  1  0  0  0  0
  1  4  1  0  0  0  0
  1  5  1  0  0  0  0
  5  6  1  0  0  0  0
  5  7  1  0  0  0  0
  5  8  1  0  0  0  0
  8  9  1  0  0  0  0
  8 10  1  0  0  0  0
  8 11  1  0  0  0  0
 11 12  1  0  0  0  0
 11 13  1  0  0  0  0
 11 14  1  0  0  0  0
 14 15  1  0  0  0  0
 14 16  1  0  0  0  0
 14 17  1  0  0  0  0
 17 18  1  0  0  0  0
 17 19  1  0  0  0  0
 17 20  1  0  0  0  0
 20 21  1  0  0  0  0
 20 22  1  0  0  0  0
 20 23  1  0  0  0  0
M  END
> <VConfSearch Rank>
301

> <Conf_Id>
90

> <Delta U+W>
1.131

> <U+W>
-7.251

> <U>
48.641

> <W>
-55.892

> <W(PB)>
-57.962

> <W(SA)>
2.070

> <Valence>
2.922

> <Coulomb>
45.269

> <VdW>
0.450

> <VdW6>
-7.045

> <VdW12>
7.495

> <Bond>
0.220

> <Angle>
1.205

> <Pdih>
1.497

> <Idih>
0.000

> <Tether>
0.000

$$$$
VeraChem MOL file


 23 22  0  0  0  0  0  0  0  0999 V2000     
   20.7357   16.5274   22.0425 N   0  3  0  0  0  0  0  0  0  0  0  0
   21.6096   16.1314   21.6802 H   0  0  0  0  0  0  0  0  0  0  0  0
   20.4183   17.2273   21.3649 H   0  0  0  0  0  0  0  0  0  0  0  0
   20.0433   15.7716   22.0454 H   0  0  0  0  0  0  0  0  0  0  0  0
   20.9189   17.1282   23.4223 C   0  0  0  0  0  0  0  0  0  0  0  0
   21.6881   17.9019   23.3556 H   0  0  0  0  0  0  0  0  0  0  0  0
   21.2886   16.3390   24.0827 H   0  0  0  0  0  0  0  0  0  0  0  0
   19.6267   17.7271   24.0141 C   0  0  0  0  0  0  0  0  0  0  0  0
   18.8773   16.9315   24.1205 H   0  0  0  0  0  0  0  0  0  0  0  0
   19.8380   18.0857   25.0303 H   0  0  0  0  0  0  0  0  0  0  0  0
   19.0288   18.8858   23.1772 C   0  0  0  0  0  0  0  0  0  0  0  0
   18.1092   19.2335   23.6676 H   0  0  0  0  0  0  0  0  0  0  0  0
   18.7261   18.5079   22.1925 H   0  0  0  0  0  0  0  0  0  0  0  0
   20.0011   20.0816   23.0150 C   0  0  0  0  0  0  0  0  0  0  0  0
   20.3583   20.3900   24.0073 H   0  0  0  0  0  0  0  0  0  0  0  0
   20.8897   19.7735   22.4481 H   0  0  0  0  0  0  0  0  0  0  0  0
   19.3570   21.3064   22.3220 C   0  0  0  0  0  0  0  0  0  0  0  0
   20.0727   22.1401   22.3424 H   0  0  0  0  0  0  0  0  0  0  0  0
   18.4806   21.6401   22.8950 H   0  0  0  0  0  0  0  0  0  0  0  0
   18.9480   21.0369   20.8559 C   0  0  0  0  0  0  0  0  0  0  0  0
   19.8017   20.6764   20.2675 H   0  0  0  0  0  0  0  0  0  0  0  0
   18.5809   21.9576   20.3844 H   0  0  0  0  0  0  0  0  0  0  0  0
   18.1457   20.2916   20.7915 H   0  0  0  0  0  0  0  0  0  0  0  0
  1  2  1  0  0  0  0
  1  3  1  0  0  0  0
  1  4  1  0  0  0  0
  1  5  1  0  0  0  0
  5  6  1  0  0  0  0
  5  7  1  0  0  0  0
  5  8  1  0  0  0  0
  8  9  1  0  0  0  0
  8 10  1  0  0  0  0
  8 11  1  0  0  0  0
 11 12  1  0  0  0  0
 11 13  1  0  0  0  0
 11 14  1  0  0  0  0
 14 15  1  0  0  0  0
 14 16  1  0  0  0  0
 14 17  1  0  0  0  0
 17 18  1  0  0  0  0
 17 19  1  0  0  0  0
 17 20  1  0  0  0  0
 20 21  1  0  0  0  0
 20 22  1  0  0  0  0
 20 23  1  0  0  0  0
M  END
> <VConfSearch Rank>
302

> <Conf_Id>
85

> <Delta U+W>
1.193

> <U+W>
-7.189

> <U>
48.775

> <W>
-55.965

> <W(PB)>
-58.038

> <W(SA)>
2.073

> <Valence>
2.602

> <Coulomb>
45.581

> <VdW>
0.592

> <VdW6>
-6.616

> <VdW12>
7.208

> <Bond>
0.196

> <Angle>
0.832

> <Pdih>
1.574

> <Idih>
0.000

> <Tether>
0.000

$$$$
VeraChem MOL file


 23 22  0  0  0  0  0  0  0  0999 V2000     
   19.2198   19.1424   24.5499 N   0  3  0  0  0  0  0  0  0  0  0  0
   18.7048   19.0371   23.6699 H   0  0  0  0  0  0  0  0  0  0  0  0
   18.7810   19.9078   25.0733 H   0  0  0  0  0  0  0  0  0  0  0  0
   19.0736   18.2861   25.0944 H   0  0  0  0  0  0  0  0  0  0  0  0
   20.6925   19.4032   24.2997 C   0  0  0  0  0  0  0  0  0  0  0  0
   21.1702   19.5016   25.2783 H   0  0  0  0  0  0  0  0  0  0  0  0
   20.7952   20.3567   23.7748 H   0  0  0  0  0  0  0  0  0  0  0  0
   21.4007   18.2880   23.5038 C   0  0  0  0  0  0  0  0  0  0  0  0
   22.4758   18.3574   23.7165 H   0  0  0  0  0  0  0  0  0  0  0  0
   21.0850   17.3058   23.8802 H   0  0  0  0  0  0  0  0  0  0  0  0
   21.2172   18.3545   21.9637 C   0  0  0  0  0  0  0  0  0  0  0  0
   21.8149   17.5426   21.5265 H   0  0  0  0  0  0  0  0  0  0  0  0
   21.6552   19.2838   21.5737 H   0  0  0  0  0  0  0  0  0  0  0  0
   19.7585   18.2000   21.4623 C   0  0  0  0  0  0  0  0  0  0  0  0
   19.7716   17.6356   20.5194 H   0  0  0  0  0  0  0  0  0  0  0  0
   19.1789   17.5870   22.1651 H   0  0  0  0  0  0  0  0  0  0  0  0
   19.0591   19.5552   21.1948 C   0  0  0  0  0  0  0  0  0  0  0  0
   19.5693   20.0688   20.3678 H   0  0  0  0  0  0  0  0  0  0  0  0
   19.1434   20.2215   22.0616 H   0  0  0  0  0  0  0  0  0  0  0  0
   17.5705   19.3676   20.8336 C   0  0  0  0  0  0  0  0  0  0  0  0
   17.4587   18.7465   19.9352 H   0  0  0  0  0  0  0  0  0  0  0  0
   17.0954   20.3367   20.6329 H   0  0  0  0  0  0  0  0  0  0  0  0
   17.0195   18.8857   21.6515 H   0  0  0  0  0  0  0  0  0  0  0  0
  1  2  1  0  0  0  0
  1  3  1  0  0  0  0
  1  4  1  0  0  0  0
  1  5  1  0  0  0  0
  5  6  1  0  0  0  0
  5  7  1  0  0  0  0
  5  8  1  0  0  0  0
  8  9  1  0  0  0  0
  8 10  1  0  0  0  0
  8 11  1  0  0  0  0
 11 12  1  0  0  0  0
 11 13  1  0  0  0  0
 11 14  1  0  0  0  0
 14 15  1  0  0  0  0
 14 16  1  0  0  0  0
 14 17  1  0  0  0  0
 17 18  1  0  0  0  0
 17 19  1  0  0  0  0
 17 20  1  0  0  0  0
 20 21  1  0  0  0  0
 20 22  1  0  0  0  0
 20 23  1  0  0  0  0
M  END
> <VConfSearch Rank>
303

> <Conf_Id>
82

> <Delta U+W>
5.994

> <U+W>
-2.388

> <U>
52.836

> <W>
-55.224

> <W(PB)>
-57.261

> <W(SA)>
2.037

> <Valence>
5.785

> <Coulomb>
46.744

> <VdW>
0.307

> <VdW6>
-7.672

> <VdW12>
7.979

> <Bond>
0.217

> <Angle>
1.470

> <Pdih>
4.098

> <Idih>
0.000

> <Tether>
0.000

$$$$
VeraChem MOL file


 23 22  0  0  0  0  0  0  0  0999 V2000     
   19.5291   20.7499   23.5912 N   0  3  0  0  0  0  0  0  0  0  0  0
   18.6151   20.8695   24.0399 H   0  0  0  0  0  0  0  0  0  0  0  0
   20.1657   21.4275   24.0248 H   0  0  0  0  0  0  0  0  0  0  0  0
   19.8677   19.8128   23.8315 H   0  0  0  0  0  0  0  0  0  0  0  0
   19.4451   20.9379   22.0888 C   0  0  0  0  0  0  0  0  0  0  0  0
   20.4522   20.8651   21.6697 H   0  0  0  0  0  0  0  0  0  0  0  0
   19.0776   21.9528   21.9140 H   0  0  0  0  0  0  0  0  0  0  0  0
   18.5097   19.9354   21.3825 C   0  0  0  0  0  0  0  0  0  0  0  0
   17.5844   19.8195   21.9624 H   0  0  0  0  0  0  0  0  0  0  0  0
   18.2078   20.3788   20.4244 H   0  0  0  0  0  0  0  0  0  0  0  0
   19.1324   18.5447   21.0856 C   0  0  0  0  0  0  0  0  0  0  0  0
   19.9811   18.6533   20.3961 H   0  0  0  0  0  0  0  0  0  0  0  0
   18.3816   17.9593   20.5366 H   0  0  0  0  0  0  0  0  0  0  0  0
   19.5585   17.7289   22.3330 C   0  0  0  0  0  0  0  0  0  0  0  0
   18.9299   17.9950   23.1931 H   0  0  0  0  0  0  0  0  0  0  0  0
   19.3592   16.6656   22.1392 H   0  0  0  0  0  0  0  0  0  0  0  0
   21.0618   17.8759   22.6730 C   0  0  0  0  0  0  0  0  0  0  0  0
   21.3519   18.9315   22.7347 H   0  0  0  0  0  0  0  0  0  0  0  0
   21.6611   17.4447   21.8587 H   0  0  0  0  0  0  0  0  0  0  0  0
   21.4197   17.1664   23.9960 C   0  0  0  0  0  0  0  0  0  0  0  0
   20.8634   17.5933   24.8404 H   0  0  0  0  0  0  0  0  0  0  0  0
   22.4911   17.2683   24.2128 H   0  0  0  0  0  0  0  0  0  0  0  0
   21.1884   16.0945   23.9429 H   0  0  0  0  0  0  0  0  0  0  0  0
  1  2  1  0  0  0  0
  1  3  1  0  0  0  0
  1  4  1  0  0  0  0
  1  5  1  0  0  0  0
  5  6  1  0  0  0  0
  5  7  1  0  0  0  0
  5  8  1  0  0  0  0
  8  9  1  0  0  0  0
  8 10  1  0  0  0  0
  8 11  1  0  0  0  0
 11 12  1  0  0  0  0
 11 13  1  0  0  0  0
 11 14  1  0  0  0  0
 14 15  1  0  0  0  0
 14 16  1  0  0  0  0
 14 17  1  0  0  0  0
 17 18  1  0  0  0  0
 17 19  1  0  0  0  0
 17 20  1  0  0  0  0
 20 21  1  0  0  0  0
 20 22  1  0  0  0  0
 20 23  1  0  0  0  0
M  END
> <VConfSearch Rank>
304

> <Conf_Id>
5

> <Delta U+W>
6.087

> <U+W>
-2.295

> <U>
52.836

> <W>
-55.131

> <W(PB)>
-57.202

> <W(SA)>
2.071

> <Valence>
5.785

> <Coulomb>
46.744

> <VdW>
0.307

> <VdW6>
-7.672

> <VdW12>
7.980

> <Bond>
0.217

> <Angle>
1.470

> <Pdih>
4.098

> <Idih>
0.000

> <Tether>
0.000

$$$$
VeraChem MOL file


 23 22  0  0  0  0  0  0  0  0999 V2000     
   16.8820   21.1815   21.2995 N   0  3  0  0  0  0  0  0  0  0  0  0
   17.1018   21.0793   20.3035 H   0  0  0  0  0  0  0  0  0  0  0  0
   16.4896   22.1211   21.4232 H   0  0  0  0  0  0  0  0  0  0  0  0
   16.1325   20.5154   21.5128 H   0  0  0  0  0  0  0  0  0  0  0  0
   18.1002   20.9609   22.1731 C   0  0  0  0  0  0  0  0  0  0  0  0
   17.8014   21.1137   23.2137 H   0  0  0  0  0  0  0  0  0  0  0  0
   18.8433   21.7199   21.9139 H   0  0  0  0  0  0  0  0  0  0  0  0
   18.7136   19.5587   22.0109 C   0  0  0  0  0  0  0  0  0  0  0  0
   17.9590   18.7996   22.2566 H   0  0  0  0  0  0  0  0  0  0  0  0
   18.9971   19.4036   20.9613 H   0  0  0  0  0  0  0  0  0  0  0  0
   19.9512   19.3746   22.9169 C   0  0  0  0  0  0  0  0  0  0  0  0
   19.6645   19.5359   23.9655 H   0  0  0  0  0  0  0  0  0  0  0  0
   20.7015   20.1392   22.6716 H   0  0  0  0  0  0  0  0  0  0  0  0
   20.5755   17.9692   22.7619 C   0  0  0  0  0  0  0  0  0  0  0  0
   19.8254   17.2046   23.0073 H   0  0  0  0  0  0  0  0  0  0  0  0
   20.8622   17.8078   21.7135 H   0  0  0  0  0  0  0  0  0  0  0  0
   21.8132   17.7854   23.6681 C   0  0  0  0  0  0  0  0  0  0  0  0
   21.5310   17.9435   24.7185 H   0  0  0  0  0  0  0  0  0  0  0  0
   22.5677   18.5467   23.4247 H   0  0  0  0  0  0  0  0  0  0  0  0
   22.4339   16.3810   23.5107 C   0  0  0  0  0  0  0  0  0  0  0  0
   23.3109   16.2696   24.1615 H   0  0  0  0  0  0  0  0  0  0  0  0
   22.7577   16.2061   22.4763 H   0  0  0  0  0  0  0  0  0  0  0  0
   21.7129   15.5982   23.7802 H   0  0  0  0  0  0  0  0  0  0  0  0
  1  2  1  0  0  0  0
  1  3  1  0  0  0  0
  1  4  1  0  0  0  0
  1  5  1  0  0  0  0
  5  6  1  0  0  0  0
  5  7  1  0  0  0  0
  5  8  1  0  0  0  0
  8  9  1  0  0  0  0
  8 10  1  0  0  0  0
  8 11  1  0  0  0  0
 11 12  1  0  0  0  0
 11 13  1  0  0  0  0
 11 14  1  0  0  0  0
 14 15  1  0  0  0  0
 14 16  1  0  0  0  0
 14 17  1  0  0  0  0
 17 18  1  0  0  0  0
 17 19  1  0  0  0  0
 17 20  1  0  0  0  0
 20 21  1  0  0  0  0
 20 22  1  0  0  0  0
 20 23  1  0  0  0  0
M  END
> <VConfSearch Rank>
305

> <Conf_Id>
40

> <Delta U+W>
0.000

> <U+W>
-8.382

> <U>
46.604

> <W>
-54.986

> <W(PB)>
-57.162

> <W(SA)>
2.176

> <Valence>
1.727

> <Coulomb>
44.434

> <VdW>
0.443

> <VdW6>
-4.623

> <VdW12>
5.066

> <Bond>
0.112

> <Angle>
0.386

> <Pdih>
1.228

> <Idih>
0.000

> <Tether>
0.000

$$$$
VeraChem MOL file


 23 22  0  0  0  0  0  0  0  0999 V2000     
   19.1907   21.5115   25.1093 N   0  3  0  0  0  0  0  0  0  0  0  0
   19.1381   22.4410   24.6802 H   0  0  0  0  0  0  0  0  0  0  0  0
   20.1051   21.4421   25.5673 H   0  0  0  0  0  0  0  0  0  0  0  0
   18.4830   21.4856   25.8513 H   0  0  0  0  0  0  0  0  0  0  0  0
   18.9818   20.4070   24.0932 C   0  0  0  0  0  0  0  0  0  0  0  0
   17.9817   20.5248   23.6675 H   0  0  0  0  0  0  0  0  0  0  0  0
   19.0198   19.4524   24.6240 H   0  0  0  0  0  0  0  0  0  0  0  0
   20.0301   20.4196   22.9645 C   0  0  0  0  0  0  0  0  0  0  0  0
   20.0129   21.4009   22.4718 H   0  0  0  0  0  0  0  0  0  0  0  0
   21.0348   20.3001   23.3914 H   0  0  0  0  0  0  0  0  0  0  0  0
   19.7823   19.3219   21.9027 C   0  0  0  0  0  0  0  0  0  0  0  0
   20.4965   19.4704   21.0824 H   0  0  0  0  0  0  0  0  0  0  0  0
   18.7802   19.4499   21.4705 H   0  0  0  0  0  0  0  0  0  0  0  0
   19.9297   17.8857   22.4668 C   0  0  0  0  0  0  0  0  0  0  0  0
   20.9389   17.7518   22.8801 H   0  0  0  0  0  0  0  0  0  0  0  0
   19.2323   17.7462   23.3033 H   0  0  0  0  0  0  0  0  0  0  0  0
   19.6508   16.7808   21.4190 C   0  0  0  0  0  0  0  0  0  0  0  0
   18.6383   16.9036   21.0096 H   0  0  0  0  0  0  0  0  0  0  0  0
   19.6608   15.8054   21.9253 H   0  0  0  0  0  0  0  0  0  0  0  0
   20.6788   16.7513   20.2650 C   0  0  0  0  0  0  0  0  0  0  0  0
   20.6203   17.6567   19.6484 H   0  0  0  0  0  0  0  0  0  0  0  0
   20.4924   15.8927   19.6069 H   0  0  0  0  0  0  0  0  0  0  0  0
   21.7028   16.6623   20.6502 H   0  0  0  0  0  0  0  0  0  0  0  0
  1  2  1  0  0  0  0
  1  3  1  0  0  0  0
  1  4  1  0  0  0  0
  1  5  1  0  0  0  0
  5  6  1  0  0  0  0
  5  7  1  0  0  0  0
  5  8  1  0  0  0  0
  8  9  1  0  0  0  0
  8 10  1  0  0  0  0
  8 11  1  0  0  0  0
 11 12  1  0  0  0  0
 11 13  1  0  0  0  0
 11 14  1  0  0  0  0
 14 15  1  0  0  0  0
 14 16  1  0  0  0  0
 14 17  1  0  0  0  0
 17 18  1  0  0  0  0
 17 19  1  0  0  0  0
 17 20  1  0  0  0  0
 20 21  1  0  0  0  0
 20 22  1  0  0  0  0
 20 23  1  0  0  0  0
M  END
> <VConfSearch Rank>
306

> <Conf_Id>
65

> <Delta U+W>
1.004

> <U+W>
-7.378

> <U>
48.047

> <W>
-55.425

> <W(PB)>
-57.542

> <W(SA)>
2.116

> <Valence>
2.583

> <Coulomb>
44.791

> <VdW>
0.673

> <VdW6>
-5.788

> <VdW12>
6.462

> <Bond>
0.177

> <Angle>
0.787

> <Pdih>
1.619

> <Idih>
0.000

> <Tether>
0.000

$$$$
VeraChem MOL file


 23 22  0  0  0  0  0  0  0  0999 V2000     
   21.7786   19.1991   19.6616 N   0  3  0  0  0  0  0  0  0  0  0  0
   21.2147   18.9868   18.8323 H   0  0  0  0  0  0  0  0  0  0  0  0
   22.6963   18.7644   19.5170 H   0  0  0  0  0  0  0  0  0  0  0  0
   21.9278   20.2133   19.6731 H   0  0  0  0  0  0  0  0  0  0  0  0
   21.1183   18.7102   20.9346 C   0  0  0  0  0  0  0  0  0  0  0  0
   21.7861   18.9416   21.7683 H   0  0  0  0  0  0  0  0  0  0  0  0
   21.0165   17.6237   20.8663 H   0  0  0  0  0  0  0  0  0  0  0  0
   19.7365   19.3455   21.1799 C   0  0  0  0  0  0  0  0  0  0  0  0
   19.8382   20.4367   21.2499 H   0  0  0  0  0  0  0  0  0  0  0  0
   19.0922   19.1451   20.3135 H   0  0  0  0  0  0  0  0  0  0  0  0
   19.0448   18.8049   22.4539 C   0  0  0  0  0  0  0  0  0  0  0  0
   18.9355   17.7143   22.3767 H   0  0  0  0  0  0  0  0  0  0  0  0
   18.0284   19.2177   22.4940 H   0  0  0  0  0  0  0  0  0  0  0  0
   19.8035   19.1642   23.7569 C   0  0  0  0  0  0  0  0  0  0  0  0
   20.8278   18.7723   23.7056 H   0  0  0  0  0  0  0  0  0  0  0  0
   19.8942   20.2558   23.8439 H   0  0  0  0  0  0  0  0  0  0  0  0
   19.1360   18.5989   25.0341 C   0  0  0  0  0  0  0  0  0  0  0  0
   19.7941   18.7965   25.8919 H   0  0  0  0  0  0  0  0  0  0  0  0
   19.0521   17.5058   24.9572 H   0  0  0  0  0  0  0  0  0  0  0  0
   17.7455   19.2082   25.3250 C   0  0  0  0  0  0  0  0  0  0  0  0
   17.0141   18.9316   24.5557 H   0  0  0  0  0  0  0  0  0  0  0  0
   17.7966   20.3037   25.3739 H   0  0  0  0  0  0  0  0  0  0  0  0
   17.3622   18.8473   26.2882 H   0  0  0  0  0  0  0  0  0  0  0  0
  1  2  1  0  0  0  0
  1  3  1  0  0  0  0
  1  4  1  0  0  0  0
  1  5  1  0  0  0  0
  5  6  1  0  0  0  0
  5  7  1  0  0  0  0
  5  8  1  0  0  0  0
  8  9  1  0  0  0  0
  8 10  1  0  0  0  0
  8 11  1  0  0  0  0
 11 12  1  0  0  0  0
 11 13  1  0  0  0  0
 11 14  1  0  0  0  0
 14 15  1  0  0  0  0
 14 16  1  0  0  0  0
 14 17  1  0  0  0  0
 17 18  1  0  0  0  0
 17 19  1  0  0  0  0
 17 20  1  0  0  0  0
 20 21  1  0  0  0  0
 20 22  1  0  0  0  0
 20 23  1  0  0  0  0
M  END
> <VConfSearch Rank>
307

> <Conf_Id>
92

> <Delta U+W>
0.973

> <U+W>
-7.409

> <U>
48.047

> <W>
-55.456

> <W(PB)>
-57.595

> <W(SA)>
2.138

> <Valence>
2.583

> <Coulomb>
44.791

> <VdW>
0.674

> <VdW6>
-5.789

> <VdW12>
6.462

> <Bond>
0.177

> <Angle>
0.787

> <Pdih>
1.619

> <Idih>
0.000

> <Tether>
0.000

$$$$
VeraChem MOL file


 23 22  0  0  0  0  0  0  0  0999 V2000     
   19.3883   18.3568   26.0631 N   0  3  0  0  0  0  0  0  0  0  0  0
   19.9373   17.6291   26.5334 H   0  0  0  0  0  0  0  0  0  0  0  0
   18.4285   18.2794   26.4146 H   0  0  0  0  0  0  0  0  0  0  0  0
   19.7545   19.2594   26.3825 H   0  0  0  0  0  0  0  0  0  0  0  0
   19.4507   18.2228   24.5551 C   0  0  0  0  0  0  0  0  0  0  0  0
   19.0738   17.2317   24.2884 H   0  0  0  0  0  0  0  0  0  0  0  0
   20.5003   18.2839   24.2563 H   0  0  0  0  0  0  0  0  0  0  0  0
   18.6349   19.3025   23.8191 C   0  0  0  0  0  0  0  0  0  0  0  0
   17.5923   19.2595   24.1611 H   0  0  0  0  0  0  0  0  0  0  0  0
   19.0129   20.2980   24.0877 H   0  0  0  0  0  0  0  0  0  0  0  0
   18.6664   19.1317   22.2819 C   0  0  0  0  0  0  0  0  0  0  0  0
   17.9930   19.8740   21.8314 H   0  0  0  0  0  0  0  0  0  0  0  0
   18.2637   18.1448   22.0147 H   0  0  0  0  0  0  0  0  0  0  0  0
   20.0827   19.2984   21.6804 C   0  0  0  0  0  0  0  0  0  0  0  0
   20.4954   20.2726   21.9771 H   0  0  0  0  0  0  0  0  0  0  0  0
   20.7556   18.5310   22.0856 H   0  0  0  0  0  0  0  0  0  0  0  0
   20.0671   19.1951   20.1391 C   0  0  0  0  0  0  0  0  0  0  0  0
   19.4027   19.9647   19.7217 H   0  0  0  0  0  0  0  0  0  0  0  0
   19.6544   18.2224   19.8366 H   0  0  0  0  0  0  0  0  0  0  0  0
   21.4802   19.3601   19.5403 C   0  0  0  0  0  0  0  0  0  0  0  0
   21.9063   20.3385   19.7980 H   0  0  0  0  0  0  0  0  0  0  0  0
   21.4487   19.2842   18.4457 H   0  0  0  0  0  0  0  0  0  0  0  0
   22.1600   18.5825   19.9124 H   0  0  0  0  0  0  0  0  0  0  0  0
  1  2  1  0  0  0  0
  1  3  1  0  0  0  0
  1  4  1  0  0  0  0
  1  5  1  0  0  0  0
  5  6  1  0  0  0  0
  5  7  1  0  0  0  0
  5  8  1  0  0  0  0
  8  9  1  0  0  0  0
  8 10  1  0  0  0  0
  8 11  1  0  0  0  0
 11 12  1  0  0  0  0
 11 13  1  0  0  0  0
 11 14  1  0  0  0  0
 14 15  1  0  0  0  0
 14 16  1  0  0  0  0
 14 17  1  0  0  0  0
 17 18  1  0  0  0  0
 17 19  1  0  0  0  0
 17 20  1  0  0  0  0
 20 21  1  0  0  0  0
 20 22  1  0  0  0  0
 20 23  1  0  0  0  0
M  END
> <VConfSearch Rank>
308

> <Conf_Id>
42

> <Delta U+W>
0.365

> <U+W>
-8.017

> <U>
47.375

> <W>
-55.392

> <W(PB)>
-57.543

> <W(SA)>
2.152

> <Valence>
2.032

> <Coulomb>
44.843

> <VdW>
0.499

> <VdW6>
-5.218

> <VdW12>
5.717

> <Bond>
0.135

> <Angle>
0.514

> <Pdih>
1.383

> <Idih>
0.000

> <Tether>
0.000

$$$$
VeraChem MOL file


 23 22  0  0  0  0  0  0  0  0999 V2000     
   17.5796   19.0941   20.3085 N   0  3  0  0  0  0  0  0  0  0  0  0
   17.1246   18.2285   20.6158 H   0  0  0  0  0  0  0  0  0  0  0  0
   17.2589   19.2768   19.3515 H   0  0  0  0  0  0  0  0  0  0  0  0
   17.2169   19.8516   20.8950 H   0  0  0  0  0  0  0  0  0  0  0  0
   19.0908   18.9950   20.3860 C   0  0  0  0  0  0  0  0  0  0  0  0
   19.5126   19.9365   20.0239 H   0  0  0  0  0  0  0  0  0  0  0  0
   19.4044   18.1980   19.7063 H   0  0  0  0  0  0  0  0  0  0  0  0
   19.6245   18.6972   21.8008 C   0  0  0  0  0  0  0  0  0  0  0  0
   19.1783   17.7656   22.1733 H   0  0  0  0  0  0  0  0  0  0  0  0
   20.7050   18.5257   21.7220 H   0  0  0  0  0  0  0  0  0  0  0  0
   19.3581   19.8523   22.7965 C   0  0  0  0  0  0  0  0  0  0  0  0
   18.2872   20.0940   22.7975 H   0  0  0  0  0  0  0  0  0  0  0  0
   19.8753   20.7578   22.4500 H   0  0  0  0  0  0  0  0  0  0  0  0
   19.7787   19.5468   24.2576 C   0  0  0  0  0  0  0  0  0  0  0  0
   19.5008   20.4162   24.8695 H   0  0  0  0  0  0  0  0  0  0  0  0
   19.1894   18.7078   24.6526 H   0  0  0  0  0  0  0  0  0  0  0  0
   21.2930   19.2805   24.4589 C   0  0  0  0  0  0  0  0  0  0  0  0
   21.5969   19.7025   25.4272 H   0  0  0  0  0  0  0  0  0  0  0  0
   21.8798   19.8155   23.6993 H   0  0  0  0  0  0  0  0  0  0  0  0
   21.6568   17.7772   24.4600 C   0  0  0  0  0  0  0  0  0  0  0  0
   21.1316   17.2479   25.2658 H   0  0  0  0  0  0  0  0  0  0  0  0
   22.7343   17.6431   24.6215 H   0  0  0  0  0  0  0  0  0  0  0  0
   21.3998   17.2892   23.5135 H   0  0  0  0  0  0  0  0  0  0  0  0
  1  2  1  0  0  0  0
  1  3  1  0  0  0  0
  1  4  1  0  0  0  0
  1  5  1  0  0  0  0
  5  6  1  0  0  0  0
  5  7  1  0  0  0  0
  5  8  1  0  0  0  0
  8  9  1  0  0  0  0
  8 10  1  0  0  0  0
  8 11  1  0  0  0  0
 11 12  1  0  0  0  0
 11 13  1  0  0  0  0
 11 14  1  0  0  0  0
 14 15  1  0  0  0  0
 14 16  1  0  0  0  0
 14 17  1  0  0  0  0
 17 18  1  0  0  0  0
 17 19  1  0  0  0  0
 17 20  1  0  0  0  0
 20 21  1  0  0  0  0
 20 22  1  0  0  0  0
 20 23  1  0  0  0  0
M  END
> <VConfSearch Rank>
309

> <Conf_Id>
3

> <Delta U+W>
3.283

> <U+W>
-5.099

> <U>
50.701

> <W>
-55.800

> <W(PB)>
-57.867

> <W(SA)>
2.067

> <Valence>
4.880

> <Coulomb>
45.095

> <VdW>
0.726

> <VdW6>
-6.620

> <VdW12>
7.346

> <Bond>
0.222

> <Angle>
1.260

> <Pdih>
3.398

> <Idih>
0.000

> <Tether>
0.000

$$$$
VeraChem MOL file


 23 22  0  0  0  0  0  0  0  0999 V2000     
   17.5643   17.8747   24.0150 N   0  3  0  0  0  0  0  0  0  0  0  0
   17.8477   17.1667   24.6997 H   0  0  0  0  0  0  0  0  0  0  0  0
   16.5457   17.9698   24.0869 H   0  0  0  0  0  0  0  0  0  0  0  0
   17.9715   18.7660   24.3139 H   0  0  0  0  0  0  0  0  0  0  0  0
   17.9978   17.5047   22.6102 C   0  0  0  0  0  0  0  0  0  0  0  0
   17.6397   18.2809   21.9292 H   0  0  0  0  0  0  0  0  0  0  0  0
   17.5017   16.5671   22.3451 H   0  0  0  0  0  0  0  0  0  0  0  0
   19.5234   17.3368   22.4560 C   0  0  0  0  0  0  0  0  0  0  0  0
   19.8609   16.5197   23.1074 H   0  0  0  0  0  0  0  0  0  0  0  0
   19.7405   17.0173   21.4281 H   0  0  0  0  0  0  0  0  0  0  0  0
   20.3386   18.6153   22.7760 C   0  0  0  0  0  0  0  0  0  0  0  0
   21.4044   18.3727   22.6752 H   0  0  0  0  0  0  0  0  0  0  0  0
   20.1885   18.9018   23.8254 H   0  0  0  0  0  0  0  0  0  0  0  0
   19.9893   19.8090   21.8511 C   0  0  0  0  0  0  0  0  0  0  0  0
   20.1665   19.5297   20.8034 H   0  0  0  0  0  0  0  0  0  0  0  0
   18.9184   20.0368   21.9330 H   0  0  0  0  0  0  0  0  0  0  0  0
   20.7809   21.0974   22.1826 C   0  0  0  0  0  0  0  0  0  0  0  0
   20.5989   21.3878   23.2267 H   0  0  0  0  0  0  0  0  0  0  0  0
   20.3920   21.9180   21.5636 H   0  0  0  0  0  0  0  0  0  0  0  0
   22.3014   20.9679   21.9361 C   0  0  0  0  0  0  0  0  0  0  0  0
   22.5088   20.6459   20.9074 H   0  0  0  0  0  0  0  0  0  0  0  0
   22.7621   20.2466   22.6223 H   0  0  0  0  0  0  0  0  0  0  0  0
   22.7990   21.9339   22.0917 H   0  0  0  0  0  0  0  0  0  0  0  0
  1  2  1  0  0  0  0
  1  3  1  0  0  0  0
  1  4  1  0  0  0  0
  1  5  1  0  0  0  0
  5  6  1  0  0  0  0
  5  7  1  0  0  0  0
  5  8  1  0  0  0  0
  8  9  1  0  0  0  0
  8 10  1  0  0  0  0
  8 11  1  0  0  0  0
 11 12  1  0  0  0  0
 11 13  1  0  0  0  0
 11 14  1  0  0  0  0
 14 15  1  0  0  0  0
 14 16  1  0  0  0  0
 14 17  1  0  0  0  0
 17 18  1  0  0  0  0
 17 19  1  0  0  0  0
 17 20  1  0  0  0  0
 20 21  1  0  0  0  0
 20 22  1  0  0  0  0
 20 23  1  0  0  0  0
M  END
> <VConfSearch Rank>
310

> <Conf_Id>
83

> <Delta U+W>
1.229

> <U+W>
-7.154

> <U>
48.727

> <W>
-55.880

> <W(PB)>
-57.960

> <W(SA)>
2.080

> <Valence>
2.671

> <Coulomb>
45.371

> <VdW>
0.684

> <VdW6>
-6.511

> <VdW12>
7.195

> <Bond>
0.203

> <Angle>
0.915

> <Pdih>
1.554

> <Idih>
0.000

> <Tether>
0.000

$$$$
VeraChem MOL file


 23 22  0  0  0  0  0  0  0  0999 V2000     
   21.8846   20.9555   22.7720 N   0  3  0  0  0  0  0  0  0  0  0  0
   22.7597   20.6302   22.3490 H   0  0  0  0  0  0  0  0  0  0  0  0
   21.6681   20.3212   23.5469 H   0  0  0  0  0  0  0  0  0  0  0  0
   22.0741   21.8768   23.1809 H   0  0  0  0  0  0  0  0  0  0  0  0
   20.7562   21.0090   21.7610 C   0  0  0  0  0  0  0  0  0  0  0  0
   21.0384   21.7262   20.9854 H   0  0  0  0  0  0  0  0  0  0  0  0
   19.8656   21.3908   22.2665 H   0  0  0  0  0  0  0  0  0  0  0  0
   20.4437   19.6469   21.1079 C   0  0  0  0  0  0  0  0  0  0  0  0
   19.6570   19.7895   20.3551 H   0  0  0  0  0  0  0  0  0  0  0  0
   21.3306   19.3006   20.5609 H   0  0  0  0  0  0  0  0  0  0  0  0
   19.9998   18.5499   22.1084 C   0  0  0  0  0  0  0  0  0  0  0  0
   20.8091   18.3444   22.8216 H   0  0  0  0  0  0  0  0  0  0  0  0
   19.8447   17.6200   21.5462 H   0  0  0  0  0  0  0  0  0  0  0  0
   18.7034   18.9131   22.8764 C   0  0  0  0  0  0  0  0  0  0  0  0
   18.8495   19.8559   23.4197 H   0  0  0  0  0  0  0  0  0  0  0  0
   17.8876   19.0912   22.1623 H   0  0  0  0  0  0  0  0  0  0  0  0
   18.2690   17.8332   23.8971 C   0  0  0  0  0  0  0  0  0  0  0  0
   17.4175   18.2183   24.4754 H   0  0  0  0  0  0  0  0  0  0  0  0
   19.0774   17.6585   24.6208 H   0  0  0  0  0  0  0  0  0  0  0  0
   17.8588   16.4946   23.2420 C   0  0  0  0  0  0  0  0  0  0  0  0
   17.0740   16.6471   22.4898 H   0  0  0  0  0  0  0  0  0  0  0  0
   17.4682   15.8012   23.9981 H   0  0  0  0  0  0  0  0  0  0  0  0
   18.7113   16.0046   22.7559 H   0  0  0  0  0  0  0  0  0  0  0  0
  1  2  1  0  0  0  0
  1  3  1  0  0  0  0
  1  4  1  0  0  0  0
  1  5  1  0  0  0  0
  5  6  1  0  0  0  0
  5  7  1  0  0  0  0
  5  8  1  0  0  0  0
  8  9  1  0  0  0  0
  8 10  1  0  0  0  0
  8 11  1  0  0  0  0
 11 12  1  0  0  0  0
 11 13  1  0  0  0  0
 11 14  1  0  0  0  0
 14 15  1  0  0  0  0
 14 16  1  0  0  0  0
 14 17  1  0  0  0  0
 17 18  1  0  0  0  0
 17 19  1  0  0  0  0
 17 20  1  0  0  0  0
 20 21  1  0  0  0  0
 20 22  1  0  0  0  0
 20 23  1  0  0  0  0
M  END
> <VConfSearch Rank>
311

> <Conf_Id>
50

> <Delta U+W>
1.252

> <U+W>
-7.130

> <U>
48.727

> <W>
-55.857

> <W(PB)>
-57.937

> <W(SA)>
2.080

> <Valence>
2.671

> <Coulomb>
45.371

> <VdW>
0.684

> <VdW6>
-6.511

> <VdW12>
7.196

> <Bond>
0.203

> <Angle>
0.915

> <Pdih>
1.554

> <Idih>
0.000

> <Tether>
0.000

$$$$
VeraChem MOL file


 23 22  0  0  0  0  0  0  0  0999 V2000     
   17.0360   20.5414   23.1714 N   0  3  0  0  0  0  0  0  0  0  0  0
   17.5019   20.5994   24.0819 H   0  0  0  0  0  0  0  0  0  0  0  0
   16.0313   20.4467   23.3545 H   0  0  0  0  0  0  0  0  0  0  0  0
   17.1707   21.4435   22.7039 H   0  0  0  0  0  0  0  0  0  0  0  0
   17.5673   19.3903   22.3395 C   0  0  0  0  0  0  0  0  0  0  0  0
   16.9986   19.3661   21.4060 H   0  0  0  0  0  0  0  0  0  0  0  0
   17.3715   18.4612   22.8815 H   0  0  0  0  0  0  0  0  0  0  0  0
   19.0709   19.4962   22.0188 C   0  0  0  0  0  0  0  0  0  0  0  0
   19.3319   18.6858   21.3290 H   0  0  0  0  0  0  0  0  0  0  0  0
   19.2631   20.4330   21.4792 H   0  0  0  0  0  0  0  0  0  0  0  0
   19.9584   19.4278   23.2877 C   0  0  0  0  0  0  0  0  0  0  0  0
   19.7055   18.5402   23.8841 H   0  0  0  0  0  0  0  0  0  0  0  0
   19.7293   20.2954   23.9207 H   0  0  0  0  0  0  0  0  0  0  0  0
   21.4781   19.4440   22.9772 C   0  0  0  0  0  0  0  0  0  0  0  0
   21.6720   19.9974   22.0481 H   0  0  0  0  0  0  0  0  0  0  0  0
   21.9835   20.0122   23.7704 H   0  0  0  0  0  0  0  0  0  0  0  0
   22.1414   18.0443   22.9126 C   0  0  0  0  0  0  0  0  0  0  0  0
   22.0299   17.5388   23.8820 H   0  0  0  0  0  0  0  0  0  0  0  0
   23.2219   18.1774   22.7620 H   0  0  0  0  0  0  0  0  0  0  0  0
   21.5947   17.1314   21.7933 C   0  0  0  0  0  0  0  0  0  0  0  0
   21.6381   17.6316   20.8173 H   0  0  0  0  0  0  0  0  0  0  0  0
   20.5565   16.8371   21.9904 H   0  0  0  0  0  0  0  0  0  0  0  0
   22.1885   16.2107   21.7253 H   0  0  0  0  0  0  0  0  0  0  0  0
  1  2  1  0  0  0  0
  1  3  1  0  0  0  0
  1  4  1  0  0  0  0
  1  5  1  0  0  0  0
  5  6  1  0  0  0  0
  5  7  1  0  0  0  0
  5  8  1  0  0  0  0
  8  9  1  0  0  0  0
  8 10  1  0  0  0  0
  8 11  1  0  0  0  0
 11 12  1  0  0  0  0
 11 13  1  0  0  0  0
 11 14  1  0  0  0  0
 14 15  1  0  0  0  0
 14 16  1  0  0  0  0
 14 17  1  0  0  0  0
 17 18  1  0  0  0  0
 17 19  1  0  0  0  0
 17 20  1  0  0  0  0
 20 21  1  0  0  0  0
 20 22  1  0  0  0  0
 20 23  1  0  0  0  0
M  END
> <VConfSearch Rank>
312

> <Conf_Id>
55

> <Delta U+W>
3.232

> <U+W>
-5.150

> <U>
50.625

> <W>
-55.776

> <W(PB)>
-57.839

> <W(SA)>
2.064

> <Valence>
4.837

> <Coulomb>
45.097

> <VdW>
0.692

> <VdW6>
-6.655

> <VdW12>
7.347

> <Bond>
0.223

> <Angle>
1.167

> <Pdih>
3.447

> <Idih>
0.000

> <Tether>
0.000

$$$$
VeraChem MOL file


 23 22  0  0  0  0  0  0  0  0999 V2000     
   21.6767   20.6067   20.6085 N   0  3  0  0  0  0  0  0  0  0  0  0
   21.3316   20.9517   19.7070 H   0  0  0  0  0  0  0  0  0  0  0  0
   22.6555   20.3343   20.4678 H   0  0  0  0  0  0  0  0  0  0  0  0
   21.6785   21.4022   21.2548 H   0  0  0  0  0  0  0  0  0  0  0  0
   20.8412   19.4555   21.1304 C   0  0  0  0  0  0  0  0  0  0  0  0
   21.2865   19.1188   22.0682 H   0  0  0  0  0  0  0  0  0  0  0  0
   20.9083   18.6373   20.4083 H   0  0  0  0  0  0  0  0  0  0  0  0
   19.3624   19.8334   21.3450 C   0  0  0  0  0  0  0  0  0  0  0  0
   19.2815   20.6854   22.0331 H   0  0  0  0  0  0  0  0  0  0  0  0
   18.9546   20.1720   20.3832 H   0  0  0  0  0  0  0  0  0  0  0  0
   18.5007   18.6514   21.8567 C   0  0  0  0  0  0  0  0  0  0  0  0
   18.8251   17.7154   21.3810 H   0  0  0  0  0  0  0  0  0  0  0  0
   17.4668   18.8121   21.5208 H   0  0  0  0  0  0  0  0  0  0  0  0
   18.4699   18.4832   23.3982 C   0  0  0  0  0  0  0  0  0  0  0  0
   18.0454   19.3871   23.8566 H   0  0  0  0  0  0  0  0  0  0  0  0
   17.7761   17.6658   23.6387 H   0  0  0  0  0  0  0  0  0  0  0  0
   19.8430   18.1793   24.0406 C   0  0  0  0  0  0  0  0  0  0  0  0
   20.5016   19.0524   23.9458 H   0  0  0  0  0  0  0  0  0  0  0  0
   20.3270   17.3462   23.5120 H   0  0  0  0  0  0  0  0  0  0  0  0
   19.7057   17.8254   25.5368 C   0  0  0  0  0  0  0  0  0  0  0  0
   19.0845   16.9310   25.6762 H   0  0  0  0  0  0  0  0  0  0  0  0
   19.2473   18.6508   26.0970 H   0  0  0  0  0  0  0  0  0  0  0  0
   20.6898   17.6235   25.9792 H   0  0  0  0  0  0  0  0  0  0  0  0
  1  2  1  0  0  0  0
  1  3  1  0  0  0  0
  1  4  1  0  0  0  0
  1  5  1  0  0  0  0
  5  6  1  0  0  0  0
  5  7  1  0  0  0  0
  5  8  1  0  0  0  0
  8  9  1  0  0  0  0
  8 10  1  0  0  0  0
  8 11  1  0  0  0  0
 11 12  1  0  0  0  0
 11 13  1  0  0  0  0
 11 14  1  0  0  0  0
 14 15  1  0  0  0  0
 14 16  1  0  0  0  0
 14 17  1  0  0  0  0
 17 18  1  0  0  0  0
 17 19  1  0  0  0  0
 17 20  1  0  0  0  0
 20 21  1  0  0  0  0
 20 22  1  0  0  0  0
 20 23  1  0  0  0  0
M  END
> <VConfSearch Rank>
313

> <Conf_Id>
93

> <Delta U+W>
2.589

> <U+W>
-5.793

> <U>
50.122

> <W>
-55.915

> <W(PB)>
-58.031

> <W(SA)>
2.115

> <Valence>
4.132

> <Coulomb>
45.536

> <VdW>
0.454

> <VdW6>
-6.262

> <VdW12>
6.715

> <Bond>
0.182

> <Angle>
1.157

> <Pdih>
2.794

> <Idih>
0.000

> <Tether>
0.000

$$$$
VeraChem MOL file


 23 22  0  0  0  0  0  0  0  0999 V2000     
   18.4745   20.8151   24.8072 N   0  3  0  0  0  0  0  0  0  0  0  0
   17.6517   20.2051   24.8469 H   0  0  0  0  0  0  0  0  0  0  0  0
   18.1377   21.7556   24.5747 H   0  0  0  0  0  0  0  0  0  0  0  0
   18.8599   20.8633   25.7559 H   0  0  0  0  0  0  0  0  0  0  0  0
   19.4982   20.3199   23.8060 C   0  0  0  0  0  0  0  0  0  0  0  0
   20.3294   21.0300   23.7962 H   0  0  0  0  0  0  0  0  0  0  0  0
   19.0313   20.3294   22.8195 H   0  0  0  0  0  0  0  0  0  0  0  0
   20.0285   18.9102   24.1338 C   0  0  0  0  0  0  0  0  0  0  0  0
   20.4827   18.9415   25.1332 H   0  0  0  0  0  0  0  0  0  0  0  0
   19.1984   18.1937   24.1930 H   0  0  0  0  0  0  0  0  0  0  0  0
   21.0929   18.4108   23.1243 C   0  0  0  0  0  0  0  0  0  0  0  0
   21.7530   17.7039   23.6459 H   0  0  0  0  0  0  0  0  0  0  0  0
   21.7375   19.2447   22.8135 H   0  0  0  0  0  0  0  0  0  0  0  0
   20.5228   17.6845   21.8781 C   0  0  0  0  0  0  0  0  0  0  0  0
   21.3685   17.3181   21.2798 H   0  0  0  0  0  0  0  0  0  0  0  0
   19.9669   16.7920   22.1971 H   0  0  0  0  0  0  0  0  0  0  0  0
   19.6169   18.5592   20.9810 C   0  0  0  0  0  0  0  0  0  0  0  0
   20.1224   19.5074   20.7506 H   0  0  0  0  0  0  0  0  0  0  0  0
   18.6891   18.8052   21.5135 H   0  0  0  0  0  0  0  0  0  0  0  0
   19.2542   17.8394   19.6646 C   0  0  0  0  0  0  0  0  0  0  0  0
   18.6025   18.4694   19.0453 H   0  0  0  0  0  0  0  0  0  0  0  0
   18.7242   16.8986   19.8624 H   0  0  0  0  0  0  0  0  0  0  0  0
   20.1537   17.6086   19.0791 H   0  0  0  0  0  0  0  0  0  0  0  0
  1  2  1  0  0  0  0
  1  3  1  0  0  0  0
  1  4  1  0  0  0  0
  1  5  1  0  0  0  0
  5  6  1  0  0  0  0
  5  7  1  0  0  0  0
  5  8  1  0  0  0  0
  8  9  1  0  0  0  0
  8 10  1  0  0  0  0
  8 11  1  0  0  0  0
 11 12  1  0  0  0  0
 11 13  1  0  0  0  0
 11 14  1  0  0  0  0
 14 15  1  0  0  0  0
 14 16  1  0  0  0  0
 14 17  1  0  0  0  0
 17 18  1  0  0  0  0
 17 19  1  0  0  0  0
 17 20  1  0  0  0  0
 20 21  1  0  0  0  0
 20 22  1  0  0  0  0
 20 23  1  0  0  0  0
M  END
> <VConfSearch Rank>
314

> <Conf_Id>
70

> <Delta U+W>
2.599

> <U+W>
-5.783

> <U>
50.122

> <W>
-55.906

> <W(PB)>
-58.010

> <W(SA)>
2.105

> <Valence>
4.132

> <Coulomb>
45.536

> <VdW>
0.454

> <VdW6>
-6.262

> <VdW12>
6.715

> <Bond>
0.182

> <Angle>
1.157

> <Pdih>
2.794

> <Idih>
0.000

> <Tether>
0.000

$$$$
VeraChem MOL file


 23 22  0  0  0  0  0  0  0  0999 V2000     
   17.5840   18.3189   20.9523 N   0  3  0  0  0  0  0  0  0  0  0  0
   17.3400   17.3666   20.6623 H   0  0  0  0  0  0  0  0  0  0  0  0
   17.0170   18.9588   20.3858 H   0  0  0  0  0  0  0  0  0  0  0  0
   17.2796   18.4268   21.9245 H   0  0  0  0  0  0  0  0  0  0  0  0
   19.0671   18.5919   20.7969 C   0  0  0  0  0  0  0  0  0  0  0  0
   19.2542   19.6285   21.0892 H   0  0  0  0  0  0  0  0  0  0  0  0
   19.3158   18.4876   19.7373 H   0  0  0  0  0  0  0  0  0  0  0  0
   19.9595   17.6480   21.6279 C   0  0  0  0  0  0  0  0  0  0  0  0
   19.7887   16.6133   21.3021 H   0  0  0  0  0  0  0  0  0  0  0  0
   21.0113   17.8630   21.3999 H   0  0  0  0  0  0  0  0  0  0  0  0
   19.7264   17.7454   23.1586 C   0  0  0  0  0  0  0  0  0  0  0  0
   20.4294   17.0715   23.6673 H   0  0  0  0  0  0  0  0  0  0  0  0
   18.7246   17.3635   23.3973 H   0  0  0  0  0  0  0  0  0  0  0  0
   19.8729   19.1706   23.7521 C   0  0  0  0  0  0  0  0  0  0  0  0
   19.1136   19.8377   23.3227 H   0  0  0  0  0  0  0  0  0  0  0  0
   19.6579   19.1211   24.8285 H   0  0  0  0  0  0  0  0  0  0  0  0
   21.2787   19.7831   23.5488 C   0  0  0  0  0  0  0  0  0  0  0  0
   21.4864   19.9078   22.4777 H   0  0  0  0  0  0  0  0  0  0  0  0
   22.0423   19.0986   23.9441 H   0  0  0  0  0  0  0  0  0  0  0  0
   21.4089   21.1535   24.2469 C   0  0  0  0  0  0  0  0  0  0  0  0
   22.4105   21.5746   24.0906 H   0  0  0  0  0  0  0  0  0  0  0  0
   21.2471   21.0628   25.3289 H   0  0  0  0  0  0  0  0  0  0  0  0
   20.6769   21.8693   23.8504 H   0  0  0  0  0  0  0  0  0  0  0  0
  1  2  1  0  0  0  0
  1  3  1  0  0  0  0
  1  4  1  0  0  0  0
  1  5  1  0  0  0  0
  5  6  1  0  0  0  0
  5  7  1  0  0  0  0
  5  8  1  0  0  0  0
  8  9  1  0  0  0  0
  8 10  1  0  0  0  0
  8 11  1  0  0  0  0
 11 12  1  0  0  0  0
 11 13  1  0  0  0  0
 11 14  1  0  0  0  0
 14 15  1  0  0  0  0
 14 16  1  0  0  0  0
 14 17  1  0  0  0  0
 17 18  1  0  0  0  0
 17 19  1  0  0  0  0
 17 20  1  0  0  0  0
 20 21  1  0  0  0  0
 20 22  1  0  0  0  0
 20 23  1  0  0  0  0
M  END
> <VConfSearch Rank>
315

> <Conf_Id>
72

> <Delta U+W>
1.051

> <U+W>
-7.331

> <U>
48.590

> <W>
-55.922

> <W(PB)>
-58.012

> <W(SA)>
2.090

> <Valence>
2.601

> <Coulomb>
45.520

> <VdW>
0.469

> <VdW6>
-6.867

> <VdW12>
7.336

> <Bond>
0.205

> <Angle>
0.962

> <Pdih>
1.434

> <Idih>
0.000

> <Tether>
0.000

$$$$
VeraChem MOL file


 23 22  0  0  0  0  0  0  0  0999 V2000     
   19.4102   17.1692   20.0680 N   0  3  0  0  0  0  0  0  0  0  0  0
   20.0329   16.4533   19.6783 H   0  0  0  0  0  0  0  0  0  0  0  0
   18.9459   17.6233   19.2749 H   0  0  0  0  0  0  0  0  0  0  0  0
   18.6856   16.6765   20.5998 H   0  0  0  0  0  0  0  0  0  0  0  0
   20.1642   18.1642   20.9265 C   0  0  0  0  0  0  0  0  0  0  0  0
   20.9356   18.6292   20.3067 H   0  0  0  0  0  0  0  0  0  0  0  0
   20.6561   17.6097   21.7300 H   0  0  0  0  0  0  0  0  0  0  0  0
   19.2564   19.2535   21.5274 C   0  0  0  0  0  0  0  0  0  0  0  0
   18.7391   19.7791   20.7139 H   0  0  0  0  0  0  0  0  0  0  0  0
   18.4738   18.7871   22.1393 H   0  0  0  0  0  0  0  0  0  0  0  0
   20.0422   20.2880   22.3709 C   0  0  0  0  0  0  0  0  0  0  0  0
   19.3442   21.0462   22.7504 H   0  0  0  0  0  0  0  0  0  0  0  0
   20.7364   20.8283   21.7126 H   0  0  0  0  0  0  0  0  0  0  0  0
   20.8486   19.6867   23.5536 C   0  0  0  0  0  0  0  0  0  0  0  0
   21.6560   19.0543   23.1605 H   0  0  0  0  0  0  0  0  0  0  0  0
   21.3495   20.5054   24.0883 H   0  0  0  0  0  0  0  0  0  0  0  0
   20.0156   18.8631   24.5685 C   0  0  0  0  0  0  0  0  0  0  0  0
   20.6906   18.4808   25.3469 H   0  0  0  0  0  0  0  0  0  0  0  0
   19.5890   17.9771   24.0794 H   0  0  0  0  0  0  0  0  0  0  0  0
   18.8902   19.6795   25.2433 C   0  0  0  0  0  0  0  0  0  0  0  0
   19.2919   20.5782   25.7289 H   0  0  0  0  0  0  0  0  0  0  0  0
   18.3871   19.0788   26.0120 H   0  0  0  0  0  0  0  0  0  0  0  0
   18.1292   19.9920   24.5175 H   0  0  0  0  0  0  0  0  0  0  0  0
  1  2  1  0  0  0  0
  1  3  1  0  0  0  0
  1  4  1  0  0  0  0
  1  5  1  0  0  0  0
  5  6  1  0  0  0  0
  5  7  1  0  0  0  0
  5  8  1  0  0  0  0
  8  9  1  0  0  0  0
  8 10  1  0  0  0  0
  8 11  1  0  0  0  0
 11 12  1  0  0  0  0
 11 13  1  0  0  0  0
 11 14  1  0  0  0  0
 14 15  1  0  0  0  0
 14 16  1  0  0  0  0
 14 17  1  0  0  0  0
 17 18  1  0  0  0  0
 17 19  1  0  0  0  0
 17 20  1  0  0  0  0
 20 21  1  0  0  0  0
 20 22  1  0  0  0  0
 20 23  1  0  0  0  0
M  END
> <VConfSearch Rank>
316

> <Conf_Id>
26

> <Delta U+W>
1.076

> <U+W>
-7.306

> <U>
48.641

> <W>
-55.947

> <W(PB)>
-58.031

> <W(SA)>
2.084

> <Valence>
2.922

> <Coulomb>
45.269

> <VdW>
0.449

> <VdW6>
-7.045

> <VdW12>
7.494

> <Bond>
0.220

> <Angle>
1.205

> <Pdih>
1.497

> <Idih>
0.000

> <Tether>
0.000

$$$$
VeraChem MOL file


 23 22  0  0  0  0  0  0  0  0999 V2000     
   18.2281   16.8507   24.2636 N   0  3  0  0  0  0  0  0  0  0  0  0
   18.6229   16.6306   25.1837 H   0  0  0  0  0  0  0  0  0  0  0  0
   17.7270   16.0138   23.9467 H   0  0  0  0  0  0  0  0  0  0  0  0
   17.5254   17.5835   24.4044 H   0  0  0  0  0  0  0  0  0  0  0  0
   19.2971   17.2741   23.2769 C   0  0  0  0  0  0  0  0  0  0  0  0
   18.8115   17.4626   22.3159 H   0  0  0  0  0  0  0  0  0  0  0  0
   19.9927   16.4397   23.1534 H   0  0  0  0  0  0  0  0  0  0  0  0
   20.0687   18.5297   23.7240 C   0  0  0  0  0  0  0  0  0  0  0  0
   19.3697   19.3646   23.8609 H   0  0  0  0  0  0  0  0  0  0  0  0
   20.5212   18.3424   24.7068 H   0  0  0  0  0  0  0  0  0  0  0  0
   21.1850   18.9313   22.7281 C   0  0  0  0  0  0  0  0  0  0  0  0
   21.9377   18.1314   22.6977 H   0  0  0  0  0  0  0  0  0  0  0  0
   21.7092   19.8158   23.1140 H   0  0  0  0  0  0  0  0  0  0  0  0
   20.6977   19.2075   21.2800 C   0  0  0  0  0  0  0  0  0  0  0  0
   21.5632   19.4975   20.6684 H   0  0  0  0  0  0  0  0  0  0  0  0
   20.3232   18.2750   20.8369 H   0  0  0  0  0  0  0  0  0  0  0  0
   19.6052   20.2990   21.1488 C   0  0  0  0  0  0  0  0  0  0  0  0
   18.6891   19.9836   21.6660 H   0  0  0  0  0  0  0  0  0  0  0  0
   19.3332   20.3965   20.0885 H   0  0  0  0  0  0  0  0  0  0  0  0
   20.0529   21.6809   21.6764 C   0  0  0  0  0  0  0  0  0  0  0  0
   20.2314   21.6599   22.7586 H   0  0  0  0  0  0  0  0  0  0  0  0
   19.2794   22.4354   21.4834 H   0  0  0  0  0  0  0  0  0  0  0  0
   20.9755   22.0117   21.1820 H   0  0  0  0  0  0  0  0  0  0  0  0
  1  2  1  0  0  0  0
  1  3  1  0  0  0  0
  1  4  1  0  0  0  0
  1  5  1  0  0  0  0
  5  6  1  0  0  0  0
  5  7  1  0  0  0  0
  5  8  1  0  0  0  0
  8  9  1  0  0  0  0
  8 10  1  0  0  0  0
  8 11  1  0  0  0  0
 11 12  1  0  0  0  0
 11 13  1  0  0  0  0
 11 14  1  0  0  0  0
 14 15  1  0  0  0  0
 14 16  1  0  0  0  0
 14 17  1  0  0  0  0
 17 18  1  0  0  0  0
 17 19  1  0  0  0  0
 17 20  1  0  0  0  0
 20 21  1  0  0  0  0
 20 22  1  0  0  0  0
 20 23  1  0  0  0  0
M  END
> <VConfSearch Rank>
317

> <Conf_Id>
90

> <Delta U+W>
1.131

> <U+W>
-7.251

> <U>
48.641

> <W>
-55.892

> <W(PB)>
-57.962

> <W(SA)>
2.070

> <Valence>
2.922

> <Coulomb>
45.269

> <VdW>
0.450

> <VdW6>
-7.045

> <VdW12>
7.495

> <Bond>
0.220

> <Angle>
1.205

> <Pdih>
1.497

> <Idih>
0.000

> <Tether>
0.000

$$$$
VeraChem MOL file


 23 22  0  0  0  0  0  0  0  0999 V2000     
   20.6516   21.4319   22.2904 N   0  3  0  0  0  0  0  0  0  0  0  0
   20.7579   22.2576   22.8893 H   0  0  0  0  0  0  0  0  0  0  0  0
   19.6783   21.1231   22.3730 H   0  0  0  0  0  0  0  0  0  0  0  0
   20.7905   21.7436   21.3239 H   0  0  0  0  0  0  0  0  0  0  0  0
   21.6216   20.3309   22.6716 C   0  0  0  0  0  0  0  0  0  0  0  0
   21.4418   20.0678   23.7172 H   0  0  0  0  0  0  0  0  0  0  0  0
   22.6338   20.7370   22.5937 H   0  0  0  0  0  0  0  0  0  0  0  0
   21.5065   19.0708   21.7896 C   0  0  0  0  0  0  0  0  0  0  0  0
   21.7354   19.3378   20.7494 H   0  0  0  0  0  0  0  0  0  0  0  0
   22.2787   18.3535   22.0980 H   0  0  0  0  0  0  0  0  0  0  0  0
   20.1186   18.3848   21.8494 C   0  0  0  0  0  0  0  0  0  0  0  0
   20.1303   17.5126   21.1814 H   0  0  0  0  0  0  0  0  0  0  0  0
   19.3563   19.0657   21.4500 H   0  0  0  0  0  0  0  0  0  0  0  0
   19.7297   17.9257   23.2775 C   0  0  0  0  0  0  0  0  0  0  0  0
   20.5440   17.3153   23.6917 H   0  0  0  0  0  0  0  0  0  0  0  0
   19.6267   18.7952   23.9403 H   0  0  0  0  0  0  0  0  0  0  0  0
   18.4231   17.0972   23.3211 C   0  0  0  0  0  0  0  0  0  0  0  0
   18.2768   16.7228   24.3439 H   0  0  0  0  0  0  0  0  0  0  0  0
   18.5237   16.2097   22.6807 H   0  0  0  0  0  0  0  0  0  0  0  0
   17.1721   17.9023   22.9016 C   0  0  0  0  0  0  0  0  0  0  0  0
   17.0638   18.8095   23.5100 H   0  0  0  0  0  0  0  0  0  0  0  0
   16.2649   17.2989   23.0351 H   0  0  0  0  0  0  0  0  0  0  0  0
   17.2181   18.1984   21.8463 H   0  0  0  0  0  0  0  0  0  0  0  0
  1  2  1  0  0  0  0
  1  3  1  0  0  0  0
  1  4  1  0  0  0  0
  1  5  1  0  0  0  0
  5  6  1  0  0  0  0
  5  7  1  0  0  0  0
  5  8  1  0  0  0  0
  8  9  1  0  0  0  0
  8 10  1  0  0  0  0
  8 11  1  0  0  0  0
 11 12  1  0  0  0  0
 11 13  1  0  0  0  0
 11 14  1  0  0  0  0
 14 15  1  0  0  0  0
 14 16  1  0  0  0  0
 14 17  1  0  0  0  0
 17 18  1  0  0  0  0
 17 19  1  0  0  0  0
 17 20  1  0  0  0  0
 20 21  1  0  0  0  0
 20 22  1  0  0  0  0
 20 23  1  0  0  0  0
M  END
> <VConfSearch Rank>
318

> <Conf_Id>
85

> <Delta U+W>
1.193

> <U+W>
-7.189

> <U>
48.775

> <W>
-55.965

> <W(PB)>
-58.038

> <W(SA)>
2.073

> <Valence>
2.602

> <Coulomb>
45.581

> <VdW>
0.592

> <VdW6>
-6.616

> <VdW12>
7.208

> <Bond>
0.196

> <Angle>
0.832

> <Pdih>
1.574

> <Idih>
0.000

> <Tether>
0.000

$$$$
VeraChem MOL file


 23 22  0  0  0  0  0  0  0  0999 V2000     
   20.6271   18.7159   24.4059 N   0  3  0  0  0  0  0  0  0  0  0  0
   20.3850   19.5022   23.7945 H   0  0  0  0  0  0  0  0  0  0  0  0
   21.5907   18.8609   24.7264 H   0  0  0  0  0  0  0  0  0  0  0  0
   20.0251   18.7752   25.2336 H   0  0  0  0  0  0  0  0  0  0  0  0
   20.4658   17.3893   23.6890 C   0  0  0  0  0  0  0  0  0  0  0  0
   20.7389   16.6061   24.4014 H   0  0  0  0  0  0  0  0  0  0  0  0
   21.1736   17.3526   22.8567 H   0  0  0  0  0  0  0  0  0  0  0  0
   19.0364   17.1247   23.1736 C   0  0  0  0  0  0  0  0  0  0  0  0
   18.9229   16.0398   23.0469 H   0  0  0  0  0  0  0  0  0  0  0  0
   18.3059   17.4135   23.9409 H   0  0  0  0  0  0  0  0  0  0  0  0
   18.6850   17.7989   21.8201 C   0  0  0  0  0  0  0  0  0  0  0  0
   17.6680   17.4823   21.5499 H   0  0  0  0  0  0  0  0  0  0  0  0
   19.3350   17.4067   21.0257 H   0  0  0  0  0  0  0  0  0  0  0  0
   18.7201   19.3488   21.8224 C   0  0  0  0  0  0  0  0  0  0  0  0
   17.9148   19.7170   21.1716 H   0  0  0  0  0  0  0  0  0  0  0  0
   18.4879   19.7319   22.8249 H   0  0  0  0  0  0  0  0  0  0  0  0
   20.0566   19.9289   21.2985 C   0  0  0  0  0  0  0  0  0  0  0  0
   20.1755   19.6639   20.2384 H   0  0  0  0  0  0  0  0  0  0  0  0
   20.9124   19.4825   21.8188 H   0  0  0  0  0  0  0  0  0  0  0  0
   20.1092   21.4642   21.4461 C   0  0  0  0  0  0  0  0  0  0  0  0
   19.2923   21.9414   20.8890 H   0  0  0  0  0  0  0  0  0  0  0  0
   21.0566   21.8587   21.0562 H   0  0  0  0  0  0  0  0  0  0  0  0
   20.0262   21.7666   22.4980 H   0  0  0  0  0  0  0  0  0  0  0  0
  1  2  1  0  0  0  0
  1  3  1  0  0  0  0
  1  4  1  0  0  0  0
  1  5  1  0  0  0  0
  5  6  1  0  0  0  0
  5  7  1  0  0  0  0
  5  8  1  0  0  0  0
  8  9  1  0  0  0  0
  8 10  1  0  0  0  0
  8 11  1  0  0  0  0
 11 12  1  0  0  0  0
 11 13  1  0  0  0  0
 11 14  1  0  0  0  0
 14 15  1  0  0  0  0
 14 16  1  0  0  0  0
 14 17  1  0  0  0  0
 17 18  1  0  0  0  0
 17 19  1  0  0  0  0
 17 20  1  0  0  0  0
 20 21  1  0  0  0  0
 20 22  1  0  0  0  0
 20 23  1  0  0  0  0
M  END
> <VConfSearch Rank>
319

> <Conf_Id>
82

> <Delta U+W>
5.994

> <U+W>
-2.388

> <U>
52.836

> <W>
-55.224

> <W(PB)>
-57.261

> <W(SA)>
2.037

> <Valence>
5.785

> <Coulomb>
46.744

> <VdW>
0.307

> <VdW6>
-7.672

> <VdW12>
7.979

> <Bond>
0.217

> <Angle>
1.470

> <Pdih>
4.098

> <Idih>
0.000

> <Tether>
0.000

$$$$
VeraChem MOL file


 23 22  0  0  0  0  0  0  0  0999 V2000     
   19.0647   18.2346   24.3167 N   0  3  0  0  0  0  0  0  0  0  0  0
   19.2066   17.2383   24.5121 H   0  0  0  0  0  0  0  0  0  0  0  0
   18.8085   18.6797   25.2048 H   0  0  0  0  0  0  0  0  0  0  0  0
   19.9690   18.6218   24.0286 H   0  0  0  0  0  0  0  0  0  0  0  0
   18.0068   18.4522   23.2522 C   0  0  0  0  0  0  0  0  0  0  0  0
   17.8490   19.5270   23.1297 H   0  0  0  0  0  0  0  0  0  0  0  0
   17.0790   18.0140   23.6297 H   0  0  0  0  0  0  0  0  0  0  0  0
   18.3472   17.8139   21.8901 C   0  0  0  0  0  0  0  0  0  0  0  0
   18.7555   16.8062   22.0442 H   0  0  0  0  0  0  0  0  0  0  0  0
   17.4056   17.6737   21.3427 H   0  0  0  0  0  0  0  0  0  0  0  0
   19.2999   18.6446   20.9888 C   0  0  0  0  0  0  0  0  0  0  0  0
   18.8287   19.6023   20.7275 H   0  0  0  0  0  0  0  0  0  0  0  0
   19.4089   18.1027   20.0391 H   0  0  0  0  0  0  0  0  0  0  0  0
   20.7172   18.8872   21.5682 C   0  0  0  0  0  0  0  0  0  0  0  0
   21.0002   18.0624   22.2356 H   0  0  0  0  0  0  0  0  0  0  0  0
   21.4412   18.8602   20.7419 H   0  0  0  0  0  0  0  0  0  0  0  0
   20.8590   20.2551   22.2794 C   0  0  0  0  0  0  0  0  0  0  0  0
   20.0648   20.3991   23.0215 H   0  0  0  0  0  0  0  0  0  0  0  0
   20.7340   21.0610   21.5424 H   0  0  0  0  0  0  0  0  0  0  0  0
   22.2345   20.4027   22.9634 C   0  0  0  0  0  0  0  0  0  0  0  0
   22.3825   19.6326   23.7313 H   0  0  0  0  0  0  0  0  0  0  0  0
   22.3225   21.3834   23.4489 H   0  0  0  0  0  0  0  0  0  0  0  0
   23.0490   20.3158   22.2324 H   0  0  0  0  0  0  0  0  0  0  0  0
  1  2  1  0  0  0  0
  1  3  1  0  0  0  0
  1  4  1  0  0  0  0
  1  5  1  0  0  0  0
  5  6  1  0  0  0  0
  5  7  1  0  0  0  0
  5  8  1  0  0  0  0
  8  9  1  0  0  0  0
  8 10  1  0  0  0  0
  8 11  1  0  0  0  0
 11 12  1  0  0  0  0
 11 13  1  0  0  0  0
 11 14  1  0  0  0  0
 14 15  1  0  0  0  0
 14 16  1  0  0  0  0
 14 17  1  0  0  0  0
 17 18  1  0  0  0  0
 17 19  1  0  0  0  0
 17 20  1  0  0  0  0
 20 21  1  0  0  0  0
 20 22  1  0  0  0  0
 20 23  1  0  0  0  0
M  END
> <VConfSearch Rank>
320

> <Conf_Id>
5

> <Delta U+W>
6.087

> <U+W>
-2.295

> <U>
52.836

> <W>
-55.131

> <W(PB)>
-57.202

> <W(SA)>
2.071

> <Valence>
5.785

> <Coulomb>
46.744

> <VdW>
0.307

> <VdW6>
-7.672

> <VdW12>
7.980

> <Bond>
0.217

> <Angle>
1.470

> <Pdih>
4.098

> <Idih>
0.000

> <Tether>
0.000

$$$$
VeraChem MOL file


 23 22  0  0  0  0  0  0  0  0999 V2000     
   19.9852   16.1571   20.0372 N   0  3  0  0  0  0  0  0  0  0  0  0
   20.7798   16.5353   19.5113 H   0  0  0  0  0  0  0  0  0  0  0  0
   19.3911   15.6615   19.3638 H   0  0  0  0  0  0  0  0  0  0  0  0
   20.3580   15.4518   20.6809 H   0  0  0  0  0  0  0  0  0  0  0  0
   19.2223   17.2432   20.7682 C   0  0  0  0  0  0  0  0  0  0  0  0
   18.3767   16.7756   21.2799 H   0  0  0  0  0  0  0  0  0  0  0  0
   18.8301   17.9402   20.0227 H   0  0  0  0  0  0  0  0  0  0  0  0
   20.0866   18.0068   21.7872 C   0  0  0  0  0  0  0  0  0  0  0  0
   20.4915   17.3005   22.5243 H   0  0  0  0  0  0  0  0  0  0  0  0
   20.9433   18.4609   21.2715 H   0  0  0  0  0  0  0  0  0  0  0  0
   19.2731   19.1034   22.5096 C   0  0  0  0  0  0  0  0  0  0  0  0
   18.4140   18.6457   23.0198 H   0  0  0  0  0  0  0  0  0  0  0  0
   18.8654   19.8049   21.7684 H   0  0  0  0  0  0  0  0  0  0  0  0
   20.1317   19.8770   23.5359 C   0  0  0  0  0  0  0  0  0  0  0  0
   20.5394   19.1756   24.2771 H   0  0  0  0  0  0  0  0  0  0  0  0
   20.9907   20.3347   23.0258 H   0  0  0  0  0  0  0  0  0  0  0  0
   19.3178   20.9736   24.2580 C   0  0  0  0  0  0  0  0  0  0  0  0
   18.4585   20.5204   24.7720 H   0  0  0  0  0  0  0  0  0  0  0  0
   18.9098   21.6793   23.5208 H   0  0  0  0  0  0  0  0  0  0  0  0
   20.1785   21.7439   25.2820 C   0  0  0  0  0  0  0  0  0  0  0  0
   19.5836   22.5178   25.7842 H   0  0  0  0  0  0  0  0  0  0  0  0
   21.0280   22.2372   24.7919 H   0  0  0  0  0  0  0  0  0  0  0  0
   20.5731   21.0692   26.0529 H   0  0  0  0  0  0  0  0  0  0  0  0
  1  2  1  0  0  0  0
  1  3  1  0  0  0  0
  1  4  1  0  0  0  0
  1  5  1  0  0  0  0
  5  6  1  0  0  0  0
  5  7  1  0  0  0  0
  5  8  1  0  0  0  0
  8  9  1  0  0  0  0
  8 10  1  0  0  0  0
  8 11  1  0  0  0  0
 11 12  1  0  0  0  0
 11 13  1  0  0  0  0
 11 14  1  0  0  0  0
 14 15  1  0  0  0  0
 14 16  1  0  0  0  0
 14 17  1  0  0  0  0
 17 18  1  0  0  0  0
 17 19  1  0  0  0  0
 17 20  1  0  0  0  0
 20 21  1  0  0  0  0
 20 22  1  0  0  0  0
 20 23  1  0  0  0  0
M  END
> <VConfSearch Rank>
321

> <Conf_Id>
40

> <Delta U+W>
0.000

> <U+W>
-8.382

> <U>
46.604

> <W>
-54.986

> <W(PB)>
-57.162

> <W(SA)>
2.176

> <Valence>
1.727

> <Coulomb>
44.434

> <VdW>
0.443

> <VdW6>
-4.623

> <VdW12>
5.066

> <Bond>
0.112

> <Angle>
0.386

> <Pdih>
1.228

> <Idih>
0.000

> <Tether>
0.000

$$$$
VeraChem MOL file


 23 22  0  0  0  0  0  0  0  0999 V2000     
   19.1518   18.0594   19.2228 N   0  3  0  0  0  0  0  0  0  0  0  0
   18.2876   17.5119   19.1584 H   0  0  0  0  0  0  0  0  0  0  0  0
   19.9329   17.4011   19.1364 H   0  0  0  0  0  0  0  0  0  0  0  0
   19.1816   18.6672   18.3971 H   0  0  0  0  0  0  0  0  0  0  0  0
   19.2225   18.8549   20.5104 C   0  0  0  0  0  0  0  0  0  0  0  0
   18.3808   19.5526   20.5227 H   0  0  0  0  0  0  0  0  0  0  0  0
   20.1494   19.4339   20.4956 H   0  0  0  0  0  0  0  0  0  0  0  0
   19.1796   17.9691   21.7700 C   0  0  0  0  0  0  0  0  0  0  0  0
   18.2667   17.3591   21.7468 H   0  0  0  0  0  0  0  0  0  0  0  0
   20.0255   17.2689   21.7588 H   0  0  0  0  0  0  0  0  0  0  0  0
   19.2006   18.7892   23.0817 C   0  0  0  0  0  0  0  0  0  0  0  0
   19.0526   18.0976   23.9212 H   0  0  0  0  0  0  0  0  0  0  0  0
   18.3477   19.4818   23.0944 H   0  0  0  0  0  0  0  0  0  0  0  0
   20.5192   19.5783   23.2845 C   0  0  0  0  0  0  0  0  0  0  0  0
   21.3698   18.8828   23.2926 H   0  0  0  0  0  0  0  0  0  0  0  0
   20.6791   20.2519   22.4324 H   0  0  0  0  0  0  0  0  0  0  0  0
   20.5356   20.4280   24.5785 C   0  0  0  0  0  0  0  0  0  0  0  0
   19.6927   21.1331   24.5711 H   0  0  0  0  0  0  0  0  0  0  0  0
   21.4480   21.0407   24.5854 H   0  0  0  0  0  0  0  0  0  0  0  0
   20.4958   19.5828   25.8721 C   0  0  0  0  0  0  0  0  0  0  0  0
   19.5446   19.0464   25.9753 H   0  0  0  0  0  0  0  0  0  0  0  0
   20.6079   20.2262   26.7544 H   0  0  0  0  0  0  0  0  0  0  0  0
   21.3101   18.8468   25.8884 H   0  0  0  0  0  0  0  0  0  0  0  0
  1  2  1  0  0  0  0
  1  3  1  0  0  0  0
  1  4  1  0  0  0  0
  1  5  1  0  0  0  0
  5  6  1  0  0  0  0
  5  7  1  0  0  0  0
  5  8  1  0  0  0  0
  8  9  1  0  0  0  0
  8 10  1  0  0  0  0
  8 11  1  0  0  0  0
 11 12  1  0  0  0  0
 11 13  1  0  0  0  0
 11 14  1  0  0  0  0
 14 15  1  0  0  0  0
 14 16  1  0  0  0  0
 14 17  1  0  0  0  0
 17 18  1  0  0  0  0
 17 19  1  0  0  0  0
 17 20  1  0  0  0  0
 20 21  1  0  0  0  0
 20 22  1  0  0  0  0
 20 23  1  0  0  0  0
M  END
> <VConfSearch Rank>
322

> <Conf_Id>
65

> <Delta U+W>
1.004

> <U+W>
-7.378

> <U>
48.047

> <W>
-55.425

> <W(PB)>
-57.542

> <W(SA)>
2.116

> <Valence>
2.583

> <Coulomb>
44.791

> <VdW>
0.673

> <VdW6>
-5.788

> <VdW12>
6.462

> <Bond>
0.177

> <Angle>
0.787

> <Pdih>
1.619

> <Idih>
0.000

> <Tether>
0.000

$$$$
VeraChem MOL file


 23 22  0  0  0  0  0  0  0  0999 V2000     
   20.6334   15.5557   22.7432 N   0  3  0  0  0  0  0  0  0  0  0  0
   20.3674   15.0884   21.8705 H   0  0  0  0  0  0  0  0  0  0  0  0
   20.4303   14.9006   23.5058 H   0  0  0  0  0  0  0  0  0  0  0  0
   21.6507   15.6804   22.7205 H   0  0  0  0  0  0  0  0  0  0  0  0
   19.9063   16.8727   22.9237 C   0  0  0  0  0  0  0  0  0  0  0  0
   20.2140   17.2962   23.8831 H   0  0  0  0  0  0  0  0  0  0  0  0
   18.8341   16.6630   22.9678 H   0  0  0  0  0  0  0  0  0  0  0  0
   20.1911   17.8791   21.7927 C   0  0  0  0  0  0  0  0  0  0  0  0
   21.2678   18.0910   21.7486 H   0  0  0  0  0  0  0  0  0  0  0  0
   19.9215   17.4219   20.8313 H   0  0  0  0  0  0  0  0  0  0  0  0
   19.4067   19.2027   21.9550 C   0  0  0  0  0  0  0  0  0  0  0  0
   18.3296   18.9884   21.9889 H   0  0  0  0  0  0  0  0  0  0  0  0
   19.5747   19.8134   21.0585 H   0  0  0  0  0  0  0  0  0  0  0  0
   19.8210   20.0045   23.2153 C   0  0  0  0  0  0  0  0  0  0  0  0
   19.6759   19.3841   24.1095 H   0  0  0  0  0  0  0  0  0  0  0  0
   20.8940   20.2364   23.1708 H   0  0  0  0  0  0  0  0  0  0  0  0
   19.0177   21.3144   23.4035 C   0  0  0  0  0  0  0  0  0  0  0  0
   19.2884   21.7569   24.3724 H   0  0  0  0  0  0  0  0  0  0  0  0
   17.9438   21.0873   23.4593 H   0  0  0  0  0  0  0  0  0  0  0  0
   19.2717   22.3589   22.2928 C   0  0  0  0  0  0  0  0  0  0  0  0
   18.9005   22.0131   21.3202 H   0  0  0  0  0  0  0  0  0  0  0  0
   20.3428   22.5786   22.1946 H   0  0  0  0  0  0  0  0  0  0  0  0
   18.7565   23.2998   22.5257 H   0  0  0  0  0  0  0  0  0  0  0  0
  1  2  1  0  0  0  0
  1  3  1  0  0  0  0
  1  4  1  0  0  0  0
  1  5  1  0  0  0  0
  5  6  1  0  0  0  0
  5  7  1  0  0  0  0
  5  8  1  0  0  0  0
  8  9  1  0  0  0  0
  8 10  1  0  0  0  0
  8 11  1  0  0  0  0
 11 12  1  0  0  0  0
 11 13  1  0  0  0  0
 11 14  1  0  0  0  0
 14 15  1  0  0  0  0
 14 16  1  0  0  0  0
 14 17  1  0  0  0  0
 17 18  1  0  0  0  0
 17 19  1  0  0  0  0
 17 20  1  0  0  0  0
 20 21  1  0  0  0  0
 20 22  1  0  0  0  0
 20 23  1  0  0  0  0
M  END
> <VConfSearch Rank>
323

> <Conf_Id>
92

> <Delta U+W>
0.973

> <U+W>
-7.409

> <U>
48.047

> <W>
-55.456

> <W(PB)>
-57.595

> <W(SA)>
2.138

> <Valence>
2.583

> <Coulomb>
44.791

> <VdW>
0.674

> <VdW6>
-5.789

> <VdW12>
6.462

> <Bond>
0.177

> <Angle>
0.787

> <Pdih>
1.619

> <Idih>
0.000

> <Tether>
0.000

$$$$
VeraChem MOL file


 23 22  0  0  0  0  0  0  0  0999 V2000     
   18.9662   17.9176   19.3189 N   0  3  0  0  0  0  0  0  0  0  0  0
   18.9040   16.9219   19.0807 H   0  0  0  0  0  0  0  0  0  0  0  0
   19.4834   18.3734   18.5601 H   0  0  0  0  0  0  0  0  0  0  0  0
   18.0110   18.2891   19.2983 H   0  0  0  0  0  0  0  0  0  0  0  0
   19.6285   18.1344   20.6643 C   0  0  0  0  0  0  0  0  0  0  0  0
   20.6271   17.6910   20.6244 H   0  0  0  0  0  0  0  0  0  0  0  0
   19.0436   17.5982   21.4160 H   0  0  0  0  0  0  0  0  0  0  0  0
   19.7371   19.6216   21.0508 C   0  0  0  0  0  0  0  0  0  0  0  0
   20.2881   20.1568   20.2661 H   0  0  0  0  0  0  0  0  0  0  0  0
   18.7341   20.0671   21.0901 H   0  0  0  0  0  0  0  0  0  0  0  0
   20.4550   19.8369   22.4041 C   0  0  0  0  0  0  0  0  0  0  0  0
   20.5786   20.9162   22.5693 H   0  0  0  0  0  0  0  0  0  0  0  0
   21.4675   19.4128   22.3532 H   0  0  0  0  0  0  0  0  0  0  0  0
   19.6912   19.2232   23.6021 C   0  0  0  0  0  0  0  0  0  0  0  0
   18.6687   19.6246   23.6303 H   0  0  0  0  0  0  0  0  0  0  0  0
   19.6029   18.1361   23.4742 H   0  0  0  0  0  0  0  0  0  0  0  0
   20.3964   19.5191   24.9445 C   0  0  0  0  0  0  0  0  0  0  0  0
   20.4828   20.6055   25.0872 H   0  0  0  0  0  0  0  0  0  0  0  0
   21.4202   19.1202   24.9215 H   0  0  0  0  0  0  0  0  0  0  0  0
   19.6345   18.9054   26.1384 C   0  0  0  0  0  0  0  0  0  0  0  0
   18.6166   19.3109   26.2077 H   0  0  0  0  0  0  0  0  0  0  0  0
   20.1500   19.1265   27.0821 H   0  0  0  0  0  0  0  0  0  0  0  0
   19.5621   17.8143   26.0419 H   0  0  0  0  0  0  0  0  0  0  0  0
  1  2  1  0  0  0  0
  1  3  1  0  0  0  0
  1  4  1  0  0  0  0
  1  5  1  0  0  0  0
  5  6  1  0  0  0  0
  5  7  1  0  0  0  0
  5  8  1  0  0  0  0
  8  9  1  0  0  0  0
  8 10  1  0  0  0  0
  8 11  1  0  0  0  0
 11 12  1  0  0  0  0
 11 13  1  0  0  0  0
 11 14  1  0  0  0  0
 14 15  1  0  0  0  0
 14 16  1  0  0  0  0
 14 17  1  0  0  0  0
 17 18  1  0  0  0  0
 17 19  1  0  0  0  0
 17 20  1  0  0  0  0
 20 21  1  0  0  0  0
 20 22  1  0  0  0  0
 20 23  1  0  0  0  0
M  END
> <VConfSearch Rank>
324

> <Conf_Id>
42

> <Delta U+W>
0.365

> <U+W>
-8.017

> <U>
47.375

> <W>
-55.392

> <W(PB)>
-57.543

> <W(SA)>
2.152

> <Valence>
2.032

> <Coulomb>
44.843

> <VdW>
0.499

> <VdW6>
-5.218

> <VdW12>
5.717

> <Bond>
0.135

> <Angle>
0.514

> <Pdih>
1.383

> <Idih>
0.000

> <Tether>
0.000

$$$$
VeraChem MOL file


 23 22  0  0  0  0  0  0  0  0999 V2000     
   22.2482   19.7944   20.8245 N   0  3  0  0  0  0  0  0  0  0  0  0
   22.5290   20.5546   21.4522 H   0  0  0  0  0  0  0  0  0  0  0  0
   22.7311   19.9493   19.9330 H   0  0  0  0  0  0  0  0  0  0  0  0
   22.6188   18.9243   21.2180 H   0  0  0  0  0  0  0  0  0  0  0  0
   20.7433   19.7369   20.6466 C   0  0  0  0  0  0  0  0  0  0  0  0
   20.5137   18.9250   19.9513 H   0  0  0  0  0  0  0  0  0  0  0  0
   20.4294   20.6779   20.1865 H   0  0  0  0  0  0  0  0  0  0  0  0
   19.9673   19.5293   21.9618 C   0  0  0  0  0  0  0  0  0  0  0  0
   20.2207   20.3306   22.6684 H   0  0  0  0  0  0  0  0  0  0  0  0
   18.8977   19.6254   21.7384 H   0  0  0  0  0  0  0  0  0  0  0  0
   20.2365   18.1464   22.6038 C   0  0  0  0  0  0  0  0  0  0  0  0
   21.3180   18.0074   22.7317 H   0  0  0  0  0  0  0  0  0  0  0  0
   19.9062   17.3556   21.9161 H   0  0  0  0  0  0  0  0  0  0  0  0
   19.5632   17.9409   23.9856 C   0  0  0  0  0  0  0  0  0  0  0  0
   19.8623   16.9499   24.3542 H   0  0  0  0  0  0  0  0  0  0  0  0
   19.9660   18.6597   24.7125 H   0  0  0  0  0  0  0  0  0  0  0  0
   18.0138   18.0025   23.9725 C   0  0  0  0  0  0  0  0  0  0  0  0
   17.6284   17.2736   24.6993 H   0  0  0  0  0  0  0  0  0  0  0  0
   17.6267   17.6859   22.9939 H   0  0  0  0  0  0  0  0  0  0  0  0
   17.4517   19.3932   24.3496 C   0  0  0  0  0  0  0  0  0  0  0  0
   17.7723   19.6846   25.3582 H   0  0  0  0  0  0  0  0  0  0  0  0
   16.3541   19.3788   24.3410 H   0  0  0  0  0  0  0  0  0  0  0  0
   17.7788   20.1736   23.6539 H   0  0  0  0  0  0  0  0  0  0  0  0
  1  2  1  0  0  0  0
  1  3  1  0  0  0  0
  1  4  1  0  0  0  0
  1  5  1  0  0  0  0
  5  6  1  0  0  0  0
  5  7  1  0  0  0  0
  5  8  1  0  0  0  0
  8  9  1  0  0  0  0
  8 10  1  0  0  0  0
  8 11  1  0  0  0  0
 11 12  1  0  0  0  0
 11 13  1  0  0  0  0
 11 14  1  0  0  0  0
 14 15  1  0  0  0  0
 14 16  1  0  0  0  0
 14 17  1  0  0  0  0
 17 18  1  0  0  0  0
 17 19  1  0  0  0  0
 17 20  1  0  0  0  0
 20 21  1  0  0  0  0
 20 22  1  0  0  0  0
 20 23  1  0  0  0  0
M  END
> <VConfSearch Rank>
325

> <Conf_Id>
3

> <Delta U+W>
3.283

> <U+W>
-5.099

> <U>
50.701

> <W>
-55.800

> <W(PB)>
-57.867

> <W(SA)>
2.067

> <Valence>
4.880

> <Coulomb>
45.095

> <VdW>
0.726

> <VdW6>
-6.620

> <VdW12>
7.346

> <Bond>
0.222

> <Angle>
1.260

> <Pdih>
3.398

> <Idih>
0.000

> <Tether>
0.000

$$$$
VeraChem MOL file


 23 22  0  0  0  0  0  0  0  0999 V2000     
   18.6375   16.8264   21.1318 N   0  3  0  0  0  0  0  0  0  0  0  0
   17.9681   17.1099   20.4092 H   0  0  0  0  0  0  0  0  0  0  0  0
   18.7174   15.8052   21.0817 H   0  0  0  0  0  0  0  0  0  0  0  0
   19.5493   17.2128   20.8690 H   0  0  0  0  0  0  0  0  0  0  0  0
   18.2091   17.2912   22.5097 C   0  0  0  0  0  0  0  0  0  0  0  0
   18.9454   16.9318   23.2330 H   0  0  0  0  0  0  0  0  0  0  0  0
   17.2511   16.8162   22.7380 H   0  0  0  0  0  0  0  0  0  0  0  0
   18.0617   18.8220   22.6298 C   0  0  0  0  0  0  0  0  0  0  0  0
   17.2829   19.1620   21.9344 H   0  0  0  0  0  0  0  0  0  0  0  0
   17.6977   19.0629   23.6374 H   0  0  0  0  0  0  0  0  0  0  0  0
   19.3687   19.6091   22.3576 C   0  0  0  0  0  0  0  0  0  0  0  0
   19.1410   20.6805   22.4286 H   0  0  0  0  0  0  0  0  0  0  0  0
   19.7019   19.4353   21.3258 H   0  0  0  0  0  0  0  0  0  0  0  0
   20.5105   19.2556   23.3443 C   0  0  0  0  0  0  0  0  0  0  0  0
   20.1850   19.4562   24.3744 H   0  0  0  0  0  0  0  0  0  0  0  0
   20.7224   18.1796   23.2916 H   0  0  0  0  0  0  0  0  0  0  0  0
   21.8273   20.0187   23.0616 C   0  0  0  0  0  0  0  0  0  0  0  0
   22.1637   19.8131   22.0358 H   0  0  0  0  0  0  0  0  0  0  0  0
   22.6104   19.6267   23.7256 H   0  0  0  0  0  0  0  0  0  0  0  0
   21.7140   21.5453   23.2758 C   0  0  0  0  0  0  0  0  0  0  0  0
   21.3472   21.7766   24.2843 H   0  0  0  0  0  0  0  0  0  0  0  0
   21.0346   22.0062   22.5482 H   0  0  0  0  0  0  0  0  0  0  0  0
   22.6951   22.0232   23.1582 H   0  0  0  0  0  0  0  0  0  0  0  0
  1  2  1  0  0  0  0
  1  3  1  0  0  0  0
  1  4  1  0  0  0  0
  1  5  1  0  0  0  0
  5  6  1  0  0  0  0
  5  7  1  0  0  0  0
  5  8  1  0  0  0  0
  8  9  1  0  0  0  0
  8 10  1  0  0  0  0
  8 11  1  0  0  0  0
 11 12  1  0  0  0  0
 11 13  1  0  0  0  0
 11 14  1  0  0  0  0
 14 15  1  0  0  0  0
 14 16  1  0  0  0  0
 14 17  1  0  0  0  0
 17 18  1  0  0  0  0
 17 19  1  0  0  0  0
 17 20  1  0  0  0  0
 20 21  1  0  0  0  0
 20 22  1  0  0  0  0
 20 23  1  0  0  0  0
M  END
> <VConfSearch Rank>
326

> <Conf_Id>
83

> <Delta U+W>
1.229

> <U+W>
-7.154

> <U>
48.727

> <W>
-55.880

> <W(PB)>
-57.960

> <W(SA)>
2.080

> <Valence>
2.671

> <Coulomb>
45.371

> <VdW>
0.684

> <VdW6>
-6.511

> <VdW12>
7.195

> <Bond>
0.203

> <Angle>
0.915

> <Pdih>
1.554

> <Idih>
0.000

> <Tether>
0.000

$$$$
VeraChem MOL file


 23 22  0  0  0  0  0  0  0  0999 V2000     
   20.4433   20.0142   19.9413 N   0  3  0  0  0  0  0  0  0  0  0  0
   20.5099   21.0357   19.8899 H   0  0  0  0  0  0  0  0  0  0  0  0
   19.4718   19.7848   20.1717 H   0  0  0  0  0  0  0  0  0  0  0  0
   20.6220   19.6548   18.9975 H   0  0  0  0  0  0  0  0  0  0  0  0
   21.4103   19.4373   20.9564 C   0  0  0  0  0  0  0  0  0  0  0  0
   22.4233   19.6894   20.6313 H   0  0  0  0  0  0  0  0  0  0  0  0
   21.3108   18.3491   20.9392 H   0  0  0  0  0  0  0  0  0  0  0  0
   21.1890   19.9603   22.3906 C   0  0  0  0  0  0  0  0  0  0  0  0
   21.9625   19.5352   23.0438 H   0  0  0  0  0  0  0  0  0  0  0  0
   21.3429   21.0475   22.4026 H   0  0  0  0  0  0  0  0  0  0  0  0
   19.7914   19.6357   22.9763 C   0  0  0  0  0  0  0  0  0  0  0  0
   19.0116   20.1196   22.3735 H   0  0  0  0  0  0  0  0  0  0  0  0
   19.7288   20.0862   23.9753 H   0  0  0  0  0  0  0  0  0  0  0  0
   19.5098   18.1147   23.0754 C   0  0  0  0  0  0  0  0  0  0  0  0
   19.5961   17.6590   22.0803 H   0  0  0  0  0  0  0  0  0  0  0  0
   20.2753   17.6365   23.7018 H   0  0  0  0  0  0  0  0  0  0  0  0
   18.1048   17.7836   23.6348 C   0  0  0  0  0  0  0  0  0  0  0  0
   17.9441   16.6988   23.5621 H   0  0  0  0  0  0  0  0  0  0  0  0
   17.3342   18.2507   23.0058 H   0  0  0  0  0  0  0  0  0  0  0  0
   17.9086   18.2165   25.1057 C   0  0  0  0  0  0  0  0  0  0  0  0
   18.6872   17.7889   25.7506 H   0  0  0  0  0  0  0  0  0  0  0  0
   16.9362   17.8720   25.4807 H   0  0  0  0  0  0  0  0  0  0  0  0
   17.9340   19.3080   25.2125 H   0  0  0  0  0  0  0  0  0  0  0  0
  1  2  1  0  0  0  0
  1  3  1  0  0  0  0
  1  4  1  0  0  0  0
  1  5  1  0  0  0  0
  5  6  1  0  0  0  0
  5  7  1  0  0  0  0
  5  8  1  0  0  0  0
  8  9  1  0  0  0  0
  8 10  1  0  0  0  0
  8 11  1  0  0  0  0
 11 12  1  0  0  0  0
 11 13  1  0  0  0  0
 11 14  1  0  0  0  0
 14 15  1  0  0  0  0
 14 16  1  0  0  0  0
 14 17  1  0  0  0  0
 17 18  1  0  0  0  0
 17 19  1  0  0  0  0
 17 20  1  0  0  0  0
 20 21  1  0  0  0  0
 20 22  1  0  0  0  0
 20 23  1  0  0  0  0
M  END
> <VConfSearch Rank>
327

> <Conf_Id>
50

> <Delta U+W>
1.252

> <U+W>
-7.130

> <U>
48.727

> <W>
-55.857

> <W(PB)>
-57.937

> <W(SA)>
2.080

> <Valence>
2.671

> <Coulomb>
45.371

> <VdW>
0.684

> <VdW6>
-6.511

> <VdW12>
7.196

> <Bond>
0.203

> <Angle>
0.915

> <Pdih>
1.554

> <Idih>
0.000

> <Tether>
0.000

$$$$
VeraChem MOL file


 23 22  0  0  0  0  0  0  0  0999 V2000     
   21.6666   16.6409   23.5278 N   0  3  0  0  0  0  0  0  0  0  0  0
   20.8805   16.5657   24.1805 H   0  0  0  0  0  0  0  0  0  0  0  0
   22.5083   16.3531   24.0383 H   0  0  0  0  0  0  0  0  0  0  0  0
   21.5141   15.9477   22.7884 H   0  0  0  0  0  0  0  0  0  0  0  0
   21.8005   18.0433   22.9671 C   0  0  0  0  0  0  0  0  0  0  0  0
   22.6786   18.0572   22.3158 H   0  0  0  0  0  0  0  0  0  0  0  0
   21.9844   18.7261   23.8010 H   0  0  0  0  0  0  0  0  0  0  0  0
   20.5679   18.5162   22.1722 C   0  0  0  0  0  0  0  0  0  0  0  0
   20.8034   19.4859   21.7196 H   0  0  0  0  0  0  0  0  0  0  0  0
   20.3843   17.8247   21.3393 H   0  0  0  0  0  0  0  0  0  0  0  0
   19.2970   18.6293   23.0525 C   0  0  0  0  0  0  0  0  0  0  0  0
   19.5001   19.2439   23.9404 H   0  0  0  0  0  0  0  0  0  0  0  0
   19.0418   17.6288   23.4265 H   0  0  0  0  0  0  0  0  0  0  0  0
   18.0677   19.1881   22.2893 C   0  0  0  0  0  0  0  0  0  0  0  0
   18.1286   18.9267   21.2239 H   0  0  0  0  0  0  0  0  0  0  0  0
   17.1699   18.6797   22.6674 H   0  0  0  0  0  0  0  0  0  0  0  0
   17.8421   20.7132   22.4521 C   0  0  0  0  0  0  0  0  0  0  0  0
   17.6806   20.9504   23.5130 H   0  0  0  0  0  0  0  0  0  0  0  0
   16.9111   20.9849   21.9351 H   0  0  0  0  0  0  0  0  0  0  0  0
   18.9880   21.5891   21.9003 C   0  0  0  0  0  0  0  0  0  0  0  0
   19.2137   21.3351   20.8566 H   0  0  0  0  0  0  0  0  0  0  0  0
   19.9020   21.4711   22.4952 H   0  0  0  0  0  0  0  0  0  0  0  0
   18.7099   22.6504   21.9347 H   0  0  0  0  0  0  0  0  0  0  0  0
  1  2  1  0  0  0  0
  1  3  1  0  0  0  0
  1  4  1  0  0  0  0
  1  5  1  0  0  0  0
  5  6  1  0  0  0  0
  5  7  1  0  0  0  0
  5  8  1  0  0  0  0
  8  9  1  0  0  0  0
  8 10  1  0  0  0  0
  8 11  1  0  0  0  0
 11 12  1  0  0  0  0
 11 13  1  0  0  0  0
 11 14  1  0  0  0  0
 14 15  1  0  0  0  0
 14 16  1  0  0  0  0
 14 17  1  0  0  0  0
 17 18  1  0  0  0  0
 17 19  1  0  0  0  0
 17 20  1  0  0  0  0
 20 21  1  0  0  0  0
 20 22  1  0  0  0  0
 20 23  1  0  0  0  0
M  END
> <VConfSearch Rank>
328

> <Conf_Id>
55

> <Delta U+W>
3.232

> <U+W>
-5.150

> <U>
50.625

> <W>
-55.776

> <W(PB)>
-57.839

> <W(SA)>
2.064

> <Valence>
4.837

> <Coulomb>
45.097

> <VdW>
0.692

> <VdW6>
-6.655

> <VdW12>
7.347

> <Bond>
0.223

> <Angle>
1.167

> <Pdih>
3.447

> <Idih>
0.000

> <Tether>
0.000

$$$$
VeraChem MOL file


 23 22  0  0  0  0  0  0  0  0999 V2000     
   17.8876   20.4084   20.5823 N   0  3  0  0  0  0  0  0  0  0  0  0
   17.9903   21.3911   20.3095 H   0  0  0  0  0  0  0  0  0  0  0  0
   16.8816   20.2107   20.6099 H   0  0  0  0  0  0  0  0  0  0  0  0
   18.2819   19.8424   19.8241 H   0  0  0  0  0  0  0  0  0  0  0  0
   18.5553   20.1181   21.9111 C   0  0  0  0  0  0  0  0  0  0  0  0
   18.3746   19.0692   22.1528 H   0  0  0  0  0  0  0  0  0  0  0  0
   18.0679   20.7321   22.6732 H   0  0  0  0  0  0  0  0  0  0  0  0
   20.0683   20.4126   21.9021 C   0  0  0  0  0  0  0  0  0  0  0  0
   20.5650   19.8370   21.1097 H   0  0  0  0  0  0  0  0  0  0  0  0
   20.2071   21.4722   21.6490 H   0  0  0  0  0  0  0  0  0  0  0  0
   20.7494   20.1386   23.2668 C   0  0  0  0  0  0  0  0  0  0  0  0
   20.0791   20.4303   24.0873 H   0  0  0  0  0  0  0  0  0  0  0  0
   21.6246   20.7979   23.3500 H   0  0  0  0  0  0  0  0  0  0  0  0
   21.2410   18.6820   23.4721 C   0  0  0  0  0  0  0  0  0  0  0  0
   21.9898   18.4372   22.7062 H   0  0  0  0  0  0  0  0  0  0  0  0
   21.7648   18.6312   24.4367 H   0  0  0  0  0  0  0  0  0  0  0  0
   20.1215   17.6158   23.4538 C   0  0  0  0  0  0  0  0  0  0  0  0
   19.6904   17.5435   22.4469 H   0  0  0  0  0  0  0  0  0  0  0  0
   19.3118   17.9120   24.1352 H   0  0  0  0  0  0  0  0  0  0  0  0
   20.6527   16.2257   23.8639 C   0  0  0  0  0  0  0  0  0  0  0  0
   21.0591   16.2426   24.8836 H   0  0  0  0  0  0  0  0  0  0  0  0
   21.4475   15.8909   23.1845 H   0  0  0  0  0  0  0  0  0  0  0  0
   19.8482   15.4794   23.8350 H   0  0  0  0  0  0  0  0  0  0  0  0
  1  2  1  0  0  0  0
  1  3  1  0  0  0  0
  1  4  1  0  0  0  0
  1  5  1  0  0  0  0
  5  6  1  0  0  0  0
  5  7  1  0  0  0  0
  5  8  1  0  0  0  0
  8  9  1  0  0  0  0
  8 10  1  0  0  0  0
  8 11  1  0  0  0  0
 11 12  1  0  0  0  0
 11 13  1  0  0  0  0
 11 14  1  0  0  0  0
 14 15  1  0  0  0  0
 14 16  1  0  0  0  0
 14 17  1  0  0  0  0
 17 18  1  0  0  0  0
 17 19  1  0  0  0  0
 17 20  1  0  0  0  0
 20 21  1  0  0  0  0
 20 22  1  0  0  0  0
 20 23  1  0  0  0  0
M  END
> <VConfSearch Rank>
329

> <Conf_Id>
93

> <Delta U+W>
2.589

> <U+W>
-5.793

> <U>
50.122

> <W>
-55.915

> <W(PB)>
-58.031

> <W(SA)>
2.115

> <Valence>
4.132

> <Coulomb>
45.536

> <VdW>
0.454

> <VdW6>
-6.262

> <VdW12>
6.715

> <Bond>
0.182

> <Angle>
1.157

> <Pdih>
2.794

> <Idih>
0.000

> <Tether>
0.000

$$$$
VeraChem MOL file


 23 22  0  0  0  0  0  0  0  0999 V2000     
   22.3996   17.8586   23.7653 N   0  3  0  0  0  0  0  0  0  0  0  0
   22.2722   16.9983   23.2227 H   0  0  0  0  0  0  0  0  0  0  0  0
   22.4675   17.5825   24.7508 H   0  0  0  0  0  0  0  0  0  0  0  0
   23.3104   18.2487   23.5023 H   0  0  0  0  0  0  0  0  0  0  0  0
   21.2738   18.8458   23.5332 C   0  0  0  0  0  0  0  0  0  0  0  0
   21.4596   19.7210   24.1616 H   0  0  0  0  0  0  0  0  0  0  0  0
   20.3461   18.3780   23.8676 H   0  0  0  0  0  0  0  0  0  0  0  0
   21.1518   19.2850   22.0608 C   0  0  0  0  0  0  0  0  0  0  0  0
   22.1043   19.7428   21.7623 H   0  0  0  0  0  0  0  0  0  0  0  0
   21.0112   18.4107   21.4115 H   0  0  0  0  0  0  0  0  0  0  0  0
   20.0160   20.3125   21.8248 C   0  0  0  0  0  0  0  0  0  0  0  0
   20.2869   20.9270   20.9550 H   0  0  0  0  0  0  0  0  0  0  0  0
   19.9559   21.0087   22.6729 H   0  0  0  0  0  0  0  0  0  0  0  0
   18.6220   19.6937   21.5432 C   0  0  0  0  0  0  0  0  0  0  0  0
   17.9230   20.5126   21.3233 H   0  0  0  0  0  0  0  0  0  0  0  0
   18.6704   19.0823   20.6315 H   0  0  0  0  0  0  0  0  0  0  0  0
   18.0488   18.8438   22.7006 C   0  0  0  0  0  0  0  0  0  0  0  0
   18.1027   19.4087   23.6417 H   0  0  0  0  0  0  0  0  0  0  0  0
   18.6505   17.9351   22.8307 H   0  0  0  0  0  0  0  0  0  0  0  0
   16.5852   18.4322   22.4338 C   0  0  0  0  0  0  0  0  0  0  0  0
   16.1979   17.8209   23.2593 H   0  0  0  0  0  0  0  0  0  0  0  0
   16.5030   17.8432   21.5110 H   0  0  0  0  0  0  0  0  0  0  0  0
   15.9380   19.3135   22.3358 H   0  0  0  0  0  0  0  0  0  0  0  0
  1  2  1  0  0  0  0
  1  3  1  0  0  0  0
  1  4  1  0  0  0  0
  1  5  1  0  0  0  0
  5  6  1  0  0  0  0
  5  7  1  0  0  0  0
  5  8  1  0  0  0  0
  8  9  1  0  0  0  0
  8 10  1  0  0  0  0
  8 11  1  0  0  0  0
 11 12  1  0  0  0  0
 11 13  1  0  0  0  0
 11 14  1  0  0  0  0
 14 15  1  0  0  0  0
 14 16  1  0  0  0  0
 14 17  1  0  0  0  0
 17 18  1  0  0  0  0
 17 19  1  0  0  0  0
 17 20  1  0  0  0  0
 20 21  1  0  0  0  0
 20 22  1  0  0  0  0
 20 23  1  0  0  0  0
M  END
> <VConfSearch Rank>
330

> <Conf_Id>
70

> <Delta U+W>
2.599

> <U+W>
-5.783

> <U>
50.122

> <W>
-55.906

> <W(PB)>
-58.010

> <W(SA)>
2.105

> <Valence>
4.132

> <Coulomb>
45.536

> <VdW>
0.454

> <VdW6>
-6.262

> <VdW12>
6.715

> <Bond>
0.182

> <Angle>
1.157

> <Pdih>
2.794

> <Idih>
0.000

> <Tether>
0.000

$$$$
VeraChem MOL file


 23 22  0  0  0  0  0  0  0  0999 V2000     
   21.7162   21.0922   22.7287 N   0  3  0  0  0  0  0  0  0  0  0  0
   21.5627   21.9825   23.2127 H   0  0  0  0  0  0  0  0  0  0  0  0
   22.5626   21.2027   22.1602 H   0  0  0  0  0  0  0  0  0  0  0  0
   21.9239   20.3899   23.4451 H   0  0  0  0  0  0  0  0  0  0  0  0
   20.5194   20.6956   21.8870 C   0  0  0  0  0  0  0  0  0  0  0  0
   20.7596   19.7606   21.3741 H   0  0  0  0  0  0  0  0  0  0  0  0
   20.3732   21.4706   21.1297 H   0  0  0  0  0  0  0  0  0  0  0  0
   19.2211   20.5236   22.7012 C   0  0  0  0  0  0  0  0  0  0  0  0
   18.9710   21.4777   23.1837 H   0  0  0  0  0  0  0  0  0  0  0  0
   18.3950   20.3128   22.0102 H   0  0  0  0  0  0  0  0  0  0  0  0
   19.2964   19.4112   23.7800 C   0  0  0  0  0  0  0  0  0  0  0  0
   18.3201   19.3346   24.2781 H   0  0  0  0  0  0  0  0  0  0  0  0
   20.0053   19.7133   24.5626 H   0  0  0  0  0  0  0  0  0  0  0  0
   19.7041   18.0126   23.2485 C   0  0  0  0  0  0  0  0  0  0  0  0
   20.7189   18.0492   22.8306 H   0  0  0  0  0  0  0  0  0  0  0  0
   19.7526   17.3195   24.0997 H   0  0  0  0  0  0  0  0  0  0  0  0
   18.7267   17.4436   22.1931 C   0  0  0  0  0  0  0  0  0  0  0  0
   18.7162   18.0849   21.3018 H   0  0  0  0  0  0  0  0  0  0  0  0
   17.7046   17.4419   22.5969 H   0  0  0  0  0  0  0  0  0  0  0  0
   19.1138   16.0095   21.7736 C   0  0  0  0  0  0  0  0  0  0  0  0
   18.4122   15.6225   21.0233 H   0  0  0  0  0  0  0  0  0  0  0  0
   19.0963   15.3277   22.6339 H   0  0  0  0  0  0  0  0  0  0  0  0
   20.1210   15.9843   21.3376 H   0  0  0  0  0  0  0  0  0  0  0  0
  1  2  1  0  0  0  0
  1  3  1  0  0  0  0
  1  4  1  0  0  0  0
  1  5  1  0  0  0  0
  5  6  1  0  0  0  0
  5  7  1  0  0  0  0
  5  8  1  0  0  0  0
  8  9  1  0  0  0  0
  8 10  1  0  0  0  0
  8 11  1  0  0  0  0
 11 12  1  0  0  0  0
 11 13  1  0  0  0  0
 11 14  1  0  0  0  0
 14 15  1  0  0  0  0
 14 16  1  0  0  0  0
 14 17  1  0  0  0  0
 17 18  1  0  0  0  0
 17 19  1  0  0  0  0
 17 20  1  0  0  0  0
 20 21  1  0  0  0  0
 20 22  1  0  0  0  0
 20 23  1  0  0  0  0
M  END
> <VConfSearch Rank>
331

> <Conf_Id>
72

> <Delta U+W>
1.051

> <U+W>
-7.331

> <U>
48.590

> <W>
-55.922

> <W(PB)>
-58.012

> <W(SA)>
2.090

> <Valence>
2.601

> <Coulomb>
45.520

> <VdW>
0.469

> <VdW6>
-6.867

> <VdW12>
7.336

> <Bond>
0.205

> <Angle>
0.962

> <Pdih>
1.434

> <Idih>
0.000

> <Tether>
0.000

$$$$
VeraChem MOL file


 23 22  0  0  0  0  0  0  0  0999 V2000     
   19.5570   18.5772   25.7163 N   0  3  0  0  0  0  0  0  0  0  0  0
   19.3905   17.7268   26.2650 H   0  0  0  0  0  0  0  0  0  0  0  0
   19.1147   19.3502   26.2239 H   0  0  0  0  0  0  0  0  0  0  0  0
   20.5678   18.7472   25.7293 H   0  0  0  0  0  0  0  0  0  0  0  0
   19.0228   18.4495   24.3043 C   0  0  0  0  0  0  0  0  0  0  0  0
   17.9512   18.2416   24.3658 H   0  0  0  0  0  0  0  0  0  0  0  0
   19.5134   17.5923   23.8357 H   0  0  0  0  0  0  0  0  0  0  0  0
   19.2575   19.7114   23.4532 C   0  0  0  0  0  0  0  0  0  0  0  0
   18.7929   20.5724   23.9516 H   0  0  0  0  0  0  0  0  0  0  0  0
   20.3321   19.9284   23.4015 H   0  0  0  0  0  0  0  0  0  0  0  0
   18.6732   19.5857   22.0242 C   0  0  0  0  0  0  0  0  0  0  0  0
   18.8532   20.5218   21.4791 H   0  0  0  0  0  0  0  0  0  0  0  0
   17.5808   19.4900   22.0949 H   0  0  0  0  0  0  0  0  0  0  0  0
   19.2220   18.3907   21.1986 C   0  0  0  0  0  0  0  0  0  0  0  0
   18.8972   17.4485   21.6602 H   0  0  0  0  0  0  0  0  0  0  0  0
   18.7550   18.4079   20.2043 H   0  0  0  0  0  0  0  0  0  0  0  0
   20.7621   18.3600   21.0269 C   0  0  0  0  0  0  0  0  0  0  0  0
   21.0313   17.4700   20.4412 H   0  0  0  0  0  0  0  0  0  0  0  0
   21.2507   18.2365   22.0026 H   0  0  0  0  0  0  0  0  0  0  0  0
   21.3246   19.6118   20.3162 C   0  0  0  0  0  0  0  0  0  0  0  0
   20.8411   19.7630   19.3424 H   0  0  0  0  0  0  0  0  0  0  0  0
   22.4030   19.5035   20.1425 H   0  0  0  0  0  0  0  0  0  0  0  0
   21.1760   20.5169   20.9180 H   0  0  0  0  0  0  0  0  0  0  0  0
  1  2  1  0  0  0  0
  1  3  1  0  0  0  0
  1  4  1  0  0  0  0
  1  5  1  0  0  0  0
  5  6  1  0  0  0  0
  5  7  1  0  0  0  0
  5  8  1  0  0  0  0
  8  9  1  0  0  0  0
  8 10  1  0  0  0  0
  8 11  1  0  0  0  0
 11 12  1  0  0  0  0
 11 13  1  0  0  0  0
 11 14  1  0  0  0  0
 14 15  1  0  0  0  0
 14 16  1  0  0  0  0
 14 17  1  0  0  0  0
 17 18  1  0  0  0  0
 17 19  1  0  0  0  0
 17 20  1  0  0  0  0
 20 21  1  0  0  0  0
 20 22  1  0  0  0  0
 20 23  1  0  0  0  0
M  END
> <VConfSearch Rank>
332

> <Conf_Id>
26

> <Delta U+W>
1.076

> <U+W>
-7.306

> <U>
48.641

> <W>
-55.947

> <W(PB)>
-58.031

> <W(SA)>
2.084

> <Valence>
2.922

> <Coulomb>
45.269

> <VdW>
0.449

> <VdW6>
-7.045

> <VdW12>
7.494

> <Bond>
0.220

> <Angle>
1.205

> <Pdih>
1.497

> <Idih>
0.000

> <Tether>
0.000

$$$$
VeraChem MOL file


 23 22  0  0  0  0  0  0  0  0999 V2000     
   16.7431   18.7407   22.0515 N   0  3  0  0  0  0  0  0  0  0  0  0
   16.2924   19.5965   21.7119 H   0  0  0  0  0  0  0  0  0  0  0  0
   16.0241   18.2017   22.5460 H   0  0  0  0  0  0  0  0  0  0  0  0
   17.0115   18.1937   21.2272 H   0  0  0  0  0  0  0  0  0  0  0  0
   17.9314   19.0430   22.9414 C   0  0  0  0  0  0  0  0  0  0  0  0
   18.3415   18.0912   23.2892 H   0  0  0  0  0  0  0  0  0  0  0  0
   17.5702   19.6002   23.8100 H   0  0  0  0  0  0  0  0  0  0  0  0
   19.0304   19.8520   22.2276 C   0  0  0  0  0  0  0  0  0  0  0  0
   19.3847   19.2995   21.3480 H   0  0  0  0  0  0  0  0  0  0  0  0
   18.5992   20.7886   21.8501 H   0  0  0  0  0  0  0  0  0  0  0  0
   20.2229   20.1896   23.1567 C   0  0  0  0  0  0  0  0  0  0  0  0
   19.8684   20.8439   23.9651 H   0  0  0  0  0  0  0  0  0  0  0  0
   20.9575   20.7833   22.5966 H   0  0  0  0  0  0  0  0  0  0  0  0
   20.9250   18.9577   23.7893 C   0  0  0  0  0  0  0  0  0  0  0  0
   21.7591   19.3108   24.4112 H   0  0  0  0  0  0  0  0  0  0  0  0
   20.2330   18.4584   24.4807 H   0  0  0  0  0  0  0  0  0  0  0  0
   21.4630   17.9139   22.7778 C   0  0  0  0  0  0  0  0  0  0  0  0
   20.6326   17.4676   22.2145 H   0  0  0  0  0  0  0  0  0  0  0  0
   21.9238   17.0884   23.3382 H   0  0  0  0  0  0  0  0  0  0  0  0
   22.5075   18.4928   21.7967 C   0  0  0  0  0  0  0  0  0  0  0  0
   22.0639   19.2486   21.1367 H   0  0  0  0  0  0  0  0  0  0  0  0
   22.9192   17.6988   21.1604 H   0  0  0  0  0  0  0  0  0  0  0  0
   23.3425   18.9563   22.3380 H   0  0  0  0  0  0  0  0  0  0  0  0
  1  2  1  0  0  0  0
  1  3  1  0  0  0  0
  1  4  1  0  0  0  0
  1  5  1  0  0  0  0
  5  6  1  0  0  0  0
  5  7  1  0  0  0  0
  5  8  1  0  0  0  0
  8  9  1  0  0  0  0
  8 10  1  0  0  0  0
  8 11  1  0  0  0  0
 11 12  1  0  0  0  0
 11 13  1  0  0  0  0
 11 14  1  0  0  0  0
 14 15  1  0  0  0  0
 14 16  1  0  0  0  0
 14 17  1  0  0  0  0
 17 18  1  0  0  0  0
 17 19  1  0  0  0  0
 17 20  1  0  0  0  0
 20 21  1  0  0  0  0
 20 22  1  0  0  0  0
 20 23  1  0  0  0  0
M  END
> <VConfSearch Rank>
333

> <Conf_Id>
90

> <Delta U+W>
1.131

> <U+W>
-7.251

> <U>
48.641

> <W>
-55.892

> <W(PB)>
-57.962

> <W(SA)>
2.070

> <Valence>
2.922

> <Coulomb>
45.269

> <VdW>
0.450

> <VdW6>
-7.045

> <VdW12>
7.495

> <Bond>
0.220

> <Angle>
1.205

> <Pdih>
1.497

> <Idih>
0.000

> <Tether>
0.000

$$$$
VeraChem MOL file


 23 22  0  0  0  0  0  0  0  0999 V2000     
   17.4604   19.5486   21.5261 N   0  3  0  0  0  0  0  0  0  0  0  0
   16.4835   19.2748   21.6762 H   0  0  0  0  0  0  0  0  0  0  0  0
   17.9950   18.6875   21.3762 H   0  0  0  0  0  0  0  0  0  0  0  0
   17.4908   20.0813   20.6510 H   0  0  0  0  0  0  0  0  0  0  0  0
   18.0064   20.3495   22.6918 C   0  0  0  0  0  0  0  0  0  0  0  0
   17.9170   19.7390   23.5940 H   0  0  0  0  0  0  0  0  0  0  0  0
   17.3726   21.2318   22.8155 H   0  0  0  0  0  0  0  0  0  0  0  0
   19.4716   20.7941   22.5060 C   0  0  0  0  0  0  0  0  0  0  0  0
   19.5410   21.4449   21.6244 H   0  0  0  0  0  0  0  0  0  0  0  0
   19.7637   21.4118   23.3657 H   0  0  0  0  0  0  0  0  0  0  0  0
   20.4718   19.6202   22.3567 C   0  0  0  0  0  0  0  0  0  0  0  0
   21.4793   20.0349   22.2150 H   0  0  0  0  0  0  0  0  0  0  0  0
   20.2416   19.0572   21.4434 H   0  0  0  0  0  0  0  0  0  0  0  0
   20.4807   18.6712   23.5818 C   0  0  0  0  0  0  0  0  0  0  0  0
   20.6278   19.2655   24.4942 H   0  0  0  0  0  0  0  0  0  0  0  0
   19.5048   18.1789   23.6870 H   0  0  0  0  0  0  0  0  0  0  0  0
   21.5883   17.5923   23.5139 C   0  0  0  0  0  0  0  0  0  0  0  0
   21.5955   17.0341   24.4606 H   0  0  0  0  0  0  0  0  0  0  0  0
   22.5729   18.0741   23.4342 H   0  0  0  0  0  0  0  0  0  0  0  0
   21.4018   16.5942   22.3485 C   0  0  0  0  0  0  0  0  0  0  0  0
   20.4137   16.1180   22.3905 H   0  0  0  0  0  0  0  0  0  0  0  0
   22.1586   15.8007   22.3980 H   0  0  0  0  0  0  0  0  0  0  0  0
   21.5055   17.0877   21.3743 H   0  0  0  0  0  0  0  0  0  0  0  0
  1  2  1  0  0  0  0
  1  3  1  0  0  0  0
  1  4  1  0  0  0  0
  1  5  1  0  0  0  0
  5  6  1  0  0  0  0
  5  7  1  0  0  0  0
  5  8  1  0  0  0  0
  8  9  1  0  0  0  0
  8 10  1  0  0  0  0
  8 11  1  0  0  0  0
 11 12  1  0  0  0  0
 11 13  1  0  0  0  0
 11 14  1  0  0  0  0
 14 15  1  0  0  0  0
 14 16  1  0  0  0  0
 14 17  1  0  0  0  0
 17 18  1  0  0  0  0
 17 19  1  0  0  0  0
 17 20  1  0  0  0  0
 20 21  1  0  0  0  0
 20 22  1  0  0  0  0
 20 23  1  0  0  0  0
M  END
> <VConfSearch Rank>
334

> <Conf_Id>
85

> <Delta U+W>
1.193

> <U+W>
-7.189

> <U>
48.775

> <W>
-55.965

> <W(PB)>
-58.038

> <W(SA)>
2.073

> <Valence>
2.602

> <Coulomb>
45.581

> <VdW>
0.592

> <VdW6>
-6.616

> <VdW12>
7.208

> <Bond>
0.196

> <Angle>
0.832

> <Pdih>
1.574

> <Idih>
0.000

> <Tether>
0.000

$$$$
VeraChem MOL file


 23 22  0  0  0  0  0  0  0  0999 V2000     
   19.5197   19.1199   24.6050 N   0  3  0  0  0  0  0  0  0  0  0  0
   18.9085   19.2449   23.7917 H   0  0  0  0  0  0  0  0  0  0  0  0
   19.3924   19.9358   25.2136 H   0  0  0  0  0  0  0  0  0  0  0  0
   19.1767   18.3045   25.1232 H   0  0  0  0  0  0  0  0  0  0  0  0
   20.9673   18.9501   24.1866 C   0  0  0  0  0  0  0  0  0  0  0  0
   21.5513   18.8216   25.1020 H   0  0  0  0  0  0  0  0  0  0  0  0
   21.3009   19.8693   23.6978 H   0  0  0  0  0  0  0  0  0  0  0  0
   21.2146   17.7434   23.2584 C   0  0  0  0  0  0  0  0  0  0  0  0
   22.2756   17.4722   23.3392 H   0  0  0  0  0  0  0  0  0  0  0  0
   20.6552   16.8725   23.6251 H   0  0  0  0  0  0  0  0  0  0  0  0
   20.9009   17.9870   21.7576 C   0  0  0  0  0  0  0  0  0  0  0  0
   21.1734   17.0726   21.2126 H   0  0  0  0  0  0  0  0  0  0  0  0
   21.5584   18.7724   21.3597 H   0  0  0  0  0  0  0  0  0  0  0  0
   19.4207   18.3151   21.4342 C   0  0  0  0  0  0  0  0  0  0  0  0
   19.1628   17.8513   20.4718 H   0  0  0  0  0  0  0  0  0  0  0  0
   18.7582   17.8472   22.1743 H   0  0  0  0  0  0  0  0  0  0  0  0
   19.1444   19.8341   21.3184 C   0  0  0  0  0  0  0  0  0  0  0  0
   19.6979   20.2384   20.4592 H   0  0  0  0  0  0  0  0  0  0  0  0
   19.5177   20.3721   22.1979 H   0  0  0  0  0  0  0  0  0  0  0  0
   17.6404   20.1283   21.1361 C   0  0  0  0  0  0  0  0  0  0  0  0
   17.2515   19.6441   20.2307 H   0  0  0  0  0  0  0  0  0  0  0  0
   17.4655   21.2079   21.0409 H   0  0  0  0  0  0  0  0  0  0  0  0
   17.0569   19.7671   21.9928 H   0  0  0  0  0  0  0  0  0  0  0  0
  1  2  1  0  0  0  0
  1  3  1  0  0  0  0
  1  4  1  0  0  0  0
  1  5  1  0  0  0  0
  5  6  1  0  0  0  0
  5  7  1  0  0  0  0
  5  8  1  0  0  0  0
  8  9  1  0  0  0  0
  8 10  1  0  0  0  0
  8 11  1  0  0  0  0
 11 12  1  0  0  0  0
 11 13  1  0  0  0  0
 11 14  1  0  0  0  0
 14 15  1  0  0  0  0
 14 16  1  0  0  0  0
 14 17  1  0  0  0  0
 17 18  1  0  0  0  0
 17 19  1  0  0  0  0
 17 20  1  0  0  0  0
 20 21  1  0  0  0  0
 20 22  1  0  0  0  0
 20 23  1  0  0  0  0
M  END
> <VConfSearch Rank>
335

> <Conf_Id>
82

> <Delta U+W>
5.994

> <U+W>
-2.388

> <U>
52.836

> <W>
-55.224

> <W(PB)>
-57.261

> <W(SA)>
2.037

> <Valence>
5.785

> <Coulomb>
46.744

> <VdW>
0.307

> <VdW6>
-7.672

> <VdW12>
7.979

> <Bond>
0.217

> <Angle>
1.470

> <Pdih>
4.098

> <Idih>
0.000

> <Tether>
0.000

$$$$
VeraChem MOL file


 23 22  0  0  0  0  0  0  0  0999 V2000     
   20.6674   19.2107   24.4541 N   0  3  0  0  0  0  0  0  0  0  0  0
   20.4368   18.4972   25.1533 H   0  0  0  0  0  0  0  0  0  0  0  0
   21.4949   19.7097   24.7982 H   0  0  0  0  0  0  0  0  0  0  0  0
   20.9389   18.7211   23.5954 H   0  0  0  0  0  0  0  0  0  0  0  0
   19.5040   20.1519   24.2085 C   0  0  0  0  0  0  0  0  0  0  0  0
   19.8231   20.9278   23.5075 H   0  0  0  0  0  0  0  0  0  0  0  0
   19.2742   20.6315   25.1638 H   0  0  0  0  0  0  0  0  0  0  0  0
   18.2349   19.4551   23.6769 C   0  0  0  0  0  0  0  0  0  0  0  0
   18.0641   18.5224   24.2308 H   0  0  0  0  0  0  0  0  0  0  0  0
   17.3777   20.1010   23.9088 H   0  0  0  0  0  0  0  0  0  0  0  0
   18.2210   19.1798   22.1491 C   0  0  0  0  0  0  0  0  0  0  0  0
   18.2589   20.1289   21.5967 H   0  0  0  0  0  0  0  0  0  0  0  0
   17.2457   18.7367   21.9043 H   0  0  0  0  0  0  0  0  0  0  0  0
   19.3259   18.2199   21.6381 C   0  0  0  0  0  0  0  0  0  0  0  0
   19.6088   17.5123   22.4287 H   0  0  0  0  0  0  0  0  0  0  0  0
   18.9075   17.6061   20.8282 H   0  0  0  0  0  0  0  0  0  0  0  0
   20.5663   18.9601   21.0808 C   0  0  0  0  0  0  0  0  0  0  0  0
   20.9420   19.6985   21.7990 H   0  0  0  0  0  0  0  0  0  0  0  0
   20.2767   19.5289   20.1859 H   0  0  0  0  0  0  0  0  0  0  0  0
   21.6989   17.9785   20.7127 C   0  0  0  0  0  0  0  0  0  0  0  0
   22.0382   17.4141   21.5908 H   0  0  0  0  0  0  0  0  0  0  0  0
   22.5633   18.5193   20.3057 H   0  0  0  0  0  0  0  0  0  0  0  0
   21.3651   17.2591   19.9535 H   0  0  0  0  0  0  0  0  0  0  0  0
  1  2  1  0  0  0  0
  1  3  1  0  0  0  0
  1  4  1  0  0  0  0
  1  5  1  0  0  0  0
  5  6  1  0  0  0  0
  5  7  1  0  0  0  0
  5  8  1  0  0  0  0
  8  9  1  0  0  0  0
  8 10  1  0  0  0  0
  8 11  1  0  0  0  0
 11 12  1  0  0  0  0
 11 13  1  0  0  0  0
 11 14  1  0  0  0  0
 14 15  1  0  0  0  0
 14 16  1  0  0  0  0
 14 17  1  0  0  0  0
 17 18  1  0  0  0  0
 17 19  1  0  0  0  0
 17 20  1  0  0  0  0
 20 21  1  0  0  0  0
 20 22  1  0  0  0  0
 20 23  1  0  0  0  0
M  END
> <VConfSearch Rank>
336

> <Conf_Id>
5

> <Delta U+W>
6.087

> <U+W>
-2.295

> <U>
52.836

> <W>
-55.131

> <W(PB)>
-57.202

> <W(SA)>
2.071

> <Valence>
5.785

> <Coulomb>
46.744

> <VdW>
0.307

> <VdW6>
-7.672

> <VdW12>
7.980

> <Bond>
0.217

> <Angle>
1.470

> <Pdih>
4.098

> <Idih>
0.000

> <Tether>
0.000

$$$$
VeraChem MOL file


 23 22  0  0  0  0  0  0  0  0999 V2000     
   19.4895   15.1977   22.9906 N   0  3  0  0  0  0  0  0  0  0  0  0
   19.5275   14.9773   21.9902 H   0  0  0  0  0  0  0  0  0  0  0  0
   18.8813   14.4965   23.4272 H   0  0  0  0  0  0  0  0  0  0  0  0
   20.4314   15.0510   23.3677 H   0  0  0  0  0  0  0  0  0  0  0  0
   18.9932   16.6072   23.2409 C   0  0  0  0  0  0  0  0  0  0  0  0
   18.9497   16.7627   24.3223 H   0  0  0  0  0  0  0  0  0  0  0  0
   17.9781   16.6835   22.8416 H   0  0  0  0  0  0  0  0  0  0  0  0
   19.8850   17.6843   22.5981 C   0  0  0  0  0  0  0  0  0  0  0  0
   20.9069   17.5935   22.9898 H   0  0  0  0  0  0  0  0  0  0  0  0
   19.9389   17.5145   21.5144 H   0  0  0  0  0  0  0  0  0  0  0  0
   19.3455   19.1049   22.8760 C   0  0  0  0  0  0  0  0  0  0  0  0
   19.2880   19.2689   23.9611 H   0  0  0  0  0  0  0  0  0  0  0  0
   18.3210   19.1900   22.4872 H   0  0  0  0  0  0  0  0  0  0  0  0
   20.2339   20.1950   22.2347 C   0  0  0  0  0  0  0  0  0  0  0  0
   21.2582   20.1101   22.6234 H   0  0  0  0  0  0  0  0  0  0  0  0
   20.2914   20.0311   21.1496 H   0  0  0  0  0  0  0  0  0  0  0  0
   19.6940   21.6156   22.5127 C   0  0  0  0  0  0  0  0  0  0  0  0
   19.6369   21.7853   23.5971 H   0  0  0  0  0  0  0  0  0  0  0  0
   18.6702   21.7063   22.1235 H   0  0  0  0  0  0  0  0  0  0  0  0
   20.5837   22.7014   21.8709 C   0  0  0  0  0  0  0  0  0  0  0  0
   20.1845   23.7026   22.0791 H   0  0  0  0  0  0  0  0  0  0  0  0
   20.6327   22.5783   20.7811 H   0  0  0  0  0  0  0  0  0  0  0  0
   21.6070   22.6579   22.2662 H   0  0  0  0  0  0  0  0  0  0  0  0
  1  2  1  0  0  0  0
  1  3  1  0  0  0  0
  1  4  1  0  0  0  0
  1  5  1  0  0  0  0
  5  6  1  0  0  0  0
  5  7  1  0  0  0  0
  5  8  1  0  0  0  0
  8  9  1  0  0  0  0
  8 10  1  0  0  0  0
  8 11  1  0  0  0  0
 11 12  1  0  0  0  0
 11 13  1  0  0  0  0
 11 14  1  0  0  0  0
 14 15  1  0  0  0  0
 14 16  1  0  0  0  0
 14 17  1  0  0  0  0
 17 18  1  0  0  0  0
 17 19  1  0  0  0  0
 17 20  1  0  0  0  0
 20 21  1  0  0  0  0
 20 22  1  0  0  0  0
 20 23  1  0  0  0  0
M  END
> <VConfSearch Rank>
337

> <Conf_Id>
40

> <Delta U+W>
0.000

> <U+W>
-8.382

> <U>
46.604

> <W>
-54.986

> <W(PB)>
-57.162

> <W(SA)>
2.176

> <Valence>
1.727

> <Coulomb>
44.434

> <VdW>
0.443

> <VdW6>
-4.623

> <VdW12>
5.066

> <Bond>
0.112

> <Angle>
0.386

> <Pdih>
1.228

> <Idih>
0.000

> <Tether>
0.000

$$$$
VeraChem MOL file


 23 22  0  0  0  0  0  0  0  0999 V2000     
   17.3156   20.7843   24.5263 N   0  3  0  0  0  0  0  0  0  0  0  0
   17.7516   21.5613   25.0332 H   0  0  0  0  0  0  0  0  0  0  0  0
   17.1337   20.0426   25.2101 H   0  0  0  0  0  0  0  0  0  0  0  0
   16.4027   21.1177   24.1983 H   0  0  0  0  0  0  0  0  0  0  0  0
   18.1819   20.2985   23.3821 C   0  0  0  0  0  0  0  0  0  0  0  0
   18.3106   21.1274   22.6808 H   0  0  0  0  0  0  0  0  0  0  0  0
   17.6433   19.4961   22.8717 H   0  0  0  0  0  0  0  0  0  0  0  0
   19.5614   19.7911   23.8432 C   0  0  0  0  0  0  0  0  0  0  0  0
   20.0707   20.5923   24.3951 H   0  0  0  0  0  0  0  0  0  0  0  0
   19.4328   18.9578   24.5467 H   0  0  0  0  0  0  0  0  0  0  0  0
   20.4608   19.3440   22.6663 C   0  0  0  0  0  0  0  0  0  0  0  0
   21.4558   19.1078   23.0653 H   0  0  0  0  0  0  0  0  0  0  0  0
   20.5956   20.1826   21.9692 H   0  0  0  0  0  0  0  0  0  0  0  0
   19.9006   18.1154   21.9054 C   0  0  0  0  0  0  0  0  0  0  0  0
   19.7856   17.2709   22.5988 H   0  0  0  0  0  0  0  0  0  0  0  0
   18.8953   18.3440   21.5278 H   0  0  0  0  0  0  0  0  0  0  0  0
   20.7775   17.6817   20.7055 C   0  0  0  0  0  0  0  0  0  0  0  0
   20.8872   18.5197   20.0030 H   0  0  0  0  0  0  0  0  0  0  0  0
   20.2534   16.8872   20.1559 H   0  0  0  0  0  0  0  0  0  0  0  0
   22.1736   17.1618   21.1177 C   0  0  0  0  0  0  0  0  0  0  0  0
   22.7865   17.9568   21.5600 H   0  0  0  0  0  0  0  0  0  0  0  0
   22.7140   16.7783   20.2426 H   0  0  0  0  0  0  0  0  0  0  0  0
   22.0917   16.3444   21.8458 H   0  0  0  0  0  0  0  0  0  0  0  0
  1  2  1  0  0  0  0
  1  3  1  0  0  0  0
  1  4  1  0  0  0  0
  1  5  1  0  0  0  0
  5  6  1  0  0  0  0
  5  7  1  0  0  0  0
  5  8  1  0  0  0  0
  8  9  1  0  0  0  0
  8 10  1  0  0  0  0
  8 11  1  0  0  0  0
 11 12  1  0  0  0  0
 11 13  1  0  0  0  0
 11 14  1  0  0  0  0
 14 15  1  0  0  0  0
 14 16  1  0  0  0  0
 14 17  1  0  0  0  0
 17 18  1  0  0  0  0
 17 19  1  0  0  0  0
 17 20  1  0  0  0  0
 20 21  1  0  0  0  0
 20 22  1  0  0  0  0
 20 23  1  0  0  0  0
M  END
> <VConfSearch Rank>
338

> <Conf_Id>
65

> <Delta U+W>
1.004

> <U+W>
-7.378

> <U>
48.047

> <W>
-55.425

> <W(PB)>
-57.542

> <W(SA)>
2.116

> <Valence>
2.583

> <Coulomb>
44.791

> <VdW>
0.673

> <VdW6>
-5.788

> <VdW12>
6.462

> <Bond>
0.177

> <Angle>
0.787

> <Pdih>
1.619

> <Idih>
0.000

> <Tether>
0.000

$$$$
VeraChem MOL file


 23 22  0  0  0  0  0  0  0  0999 V2000     
   20.1109   19.6234   19.1044 N   0  3  0  0  0  0  0  0  0  0  0  0
   19.2089   19.8930   18.6989 H   0  0  0  0  0  0  0  0  0  0  0  0
   20.5759   19.0173   18.4199 H   0  0  0  0  0  0  0  0  0  0  0  0
   20.6749   20.4762   19.1788 H   0  0  0  0  0  0  0  0  0  0  0  0
   19.9457   18.9360   20.4445 C   0  0  0  0  0  0  0  0  0  0  0  0
   20.9394   18.6512   20.7994 H   0  0  0  0  0  0  0  0  0  0  0  0
   19.3622   18.0249   20.2868 H   0  0  0  0  0  0  0  0  0  0  0  0
   19.2494   19.8217   21.4951 C   0  0  0  0  0  0  0  0  0  0  0  0
   19.8357   20.7365   21.6548 H   0  0  0  0  0  0  0  0  0  0  0  0
   18.2731   20.1386   21.1048 H   0  0  0  0  0  0  0  0  0  0  0  0
   19.0375   19.0975   22.8457 C   0  0  0  0  0  0  0  0  0  0  0  0
   18.4423   18.1880   22.6842 H   0  0  0  0  0  0  0  0  0  0  0  0
   18.4393   19.7499   23.4948 H   0  0  0  0  0  0  0  0  0  0  0  0
   20.3664   18.7343   23.5562 C   0  0  0  0  0  0  0  0  0  0  0  0
   20.9749   18.1020   22.8963 H   0  0  0  0  0  0  0  0  0  0  0  0
   20.9517   19.6466   23.7360 H   0  0  0  0  0  0  0  0  0  0  0  0
   20.1640   17.9797   24.8926 C   0  0  0  0  0  0  0  0  0  0  0  0
   21.1461   17.6593   25.2678 H   0  0  0  0  0  0  0  0  0  0  0  0
   19.5878   17.0604   24.7171 H   0  0  0  0  0  0  0  0  0  0  0  0
   19.4699   18.8290   25.9817 C   0  0  0  0  0  0  0  0  0  0  0  0
   18.4352   19.0697   25.7082 H   0  0  0  0  0  0  0  0  0  0  0  0
   20.0090   19.7698   26.1524 H   0  0  0  0  0  0  0  0  0  0  0  0
   19.4398   18.2825   26.9333 H   0  0  0  0  0  0  0  0  0  0  0  0
  1  2  1  0  0  0  0
  1  3  1  0  0  0  0
  1  4  1  0  0  0  0
  1  5  1  0  0  0  0
  5  6  1  0  0  0  0
  5  7  1  0  0  0  0
  5  8  1  0  0  0  0
  8  9  1  0  0  0  0
  8 10  1  0  0  0  0
  8 11  1  0  0  0  0
 11 12  1  0  0  0  0
 11 13  1  0  0  0  0
 11 14  1  0  0  0  0
 14 15  1  0  0  0  0
 14 16  1  0  0  0  0
 14 17  1  0  0  0  0
 17 18  1  0  0  0  0
 17 19  1  0  0  0  0
 17 20  1  0  0  0  0
 20 21  1  0  0  0  0
 20 22  1  0  0  0  0
 20 23  1  0  0  0  0
M  END
> <VConfSearch Rank>
339

> <Conf_Id>
92

> <Delta U+W>
0.973

> <U+W>
-7.409

> <U>
48.047

> <W>
-55.456

> <W(PB)>
-57.595

> <W(SA)>
2.138

> <Valence>
2.583

> <Coulomb>
44.791

> <VdW>
0.674

> <VdW6>
-5.789

> <VdW12>
6.462

> <Bond>
0.177

> <Angle>
0.787

> <Pdih>
1.619

> <Idih>
0.000

> <Tether>
0.000

$$$$
VeraChem MOL file


 23 22  0  0  0  0  0  0  0  0999 V2000     
   18.0288   22.0522   22.3887 N   0  3  0  0  0  0  0  0  0  0  0  0
   18.4234   22.9094   22.7906 H   0  0  0  0  0  0  0  0  0  0  0  0
   17.0345   22.0371   22.6376 H   0  0  0  0  0  0  0  0  0  0  0  0
   18.0830   22.1487   21.3696 H   0  0  0  0  0  0  0  0  0  0  0  0
   18.7533   20.8151   22.8789 C   0  0  0  0  0  0  0  0  0  0  0  0
   18.6801   20.7910   23.9696 H   0  0  0  0  0  0  0  0  0  0  0  0
   19.8072   20.9140   22.6067 H   0  0  0  0  0  0  0  0  0  0  0  0
   18.1831   19.5097   22.2925 C   0  0  0  0  0  0  0  0  0  0  0  0
   17.1141   19.4445   22.5351 H   0  0  0  0  0  0  0  0  0  0  0  0
   18.2559   19.5344   21.1970 H   0  0  0  0  0  0  0  0  0  0  0  0
   18.8982   18.2489   22.8328 C   0  0  0  0  0  0  0  0  0  0  0  0
   18.3822   17.3588   22.4469 H   0  0  0  0  0  0  0  0  0  0  0  0
   18.8017   18.2136   23.9270 H   0  0  0  0  0  0  0  0  0  0  0  0
   20.3932   18.1814   22.4379 C   0  0  0  0  0  0  0  0  0  0  0  0
   20.4879   18.2502   21.3453 H   0  0  0  0  0  0  0  0  0  0  0  0
   20.9321   19.0407   22.8589 H   0  0  0  0  0  0  0  0  0  0  0  0
   21.0581   16.8766   22.9299 C   0  0  0  0  0  0  0  0  0  0  0  0
   20.5317   16.0091   22.5077 H   0  0  0  0  0  0  0  0  0  0  0  0
   20.9657   16.8022   24.0226 H   0  0  0  0  0  0  0  0  0  0  0  0
   22.5493   16.8109   22.5367 C   0  0  0  0  0  0  0  0  0  0  0  0
   22.6722   16.8493   21.4465 H   0  0  0  0  0  0  0  0  0  0  0  0
   23.0037   15.8777   22.8941 H   0  0  0  0  0  0  0  0  0  0  0  0
   23.1101   17.6475   22.9736 H   0  0  0  0  0  0  0  0  0  0  0  0
  1  2  1  0  0  0  0
  1  3  1  0  0  0  0
  1  4  1  0  0  0  0
  1  5  1  0  0  0  0
  5  6  1  0  0  0  0
  5  7  1  0  0  0  0
  5  8  1  0  0  0  0
  8  9  1  0  0  0  0
  8 10  1  0  0  0  0
  8 11  1  0  0  0  0
 11 12  1  0  0  0  0
 11 13  1  0  0  0  0
 11 14  1  0  0  0  0
 14 15  1  0  0  0  0
 14 16  1  0  0  0  0
 14 17  1  0  0  0  0
 17 18  1  0  0  0  0
 17 19  1  0  0  0  0
 17 20  1  0  0  0  0
 20 21  1  0  0  0  0
 20 22  1  0  0  0  0
 20 23  1  0  0  0  0
M  END
> <VConfSearch Rank>
340

> <Conf_Id>
42

> <Delta U+W>
0.365

> <U+W>
-8.017

> <U>
47.375

> <W>
-55.392

> <W(PB)>
-57.543

> <W(SA)>
2.152

> <Valence>
2.032

> <Coulomb>
44.843

> <VdW>
0.499

> <VdW6>
-5.218

> <VdW12>
5.717

> <Bond>
0.135

> <Angle>
0.514

> <Pdih>
1.383

> <Idih>
0.000

> <Tether>
0.000

$$$$
VeraChem MOL file


 23 22  0  0  0  0  0  0  0  0999 V2000     
   19.7426   18.3489   25.7311 N   0  3  0  0  0  0  0  0  0  0  0  0
   19.4426   17.3788   25.5910 H   0  0  0  0  0  0  0  0  0  0  0  0
   19.5761   18.5735   26.7179 H   0  0  0  0  0  0  0  0  0  0  0  0
   20.7561   18.3765   25.5850 H   0  0  0  0  0  0  0  0  0  0  0  0
   19.0132   19.3038   24.8060 C   0  0  0  0  0  0  0  0  0  0  0  0
   19.3598   20.3180   25.0219 H   0  0  0  0  0  0  0  0  0  0  0  0
   17.9484   19.2493   25.0485 H   0  0  0  0  0  0  0  0  0  0  0  0
   19.2111   18.9952   23.3091 C   0  0  0  0  0  0  0  0  0  0  0  0
   18.8880   17.9668   23.1001 H   0  0  0  0  0  0  0  0  0  0  0  0
   18.5505   19.6604   22.7397 H   0  0  0  0  0  0  0  0  0  0  0  0
   20.6733   19.2005   22.8437 C   0  0  0  0  0  0  0  0  0  0  0  0
   21.3458   18.6134   23.4827 H   0  0  0  0  0  0  0  0  0  0  0  0
   20.9565   20.2524   22.9875 H   0  0  0  0  0  0  0  0  0  0  0  0
   20.9389   18.7929   21.3712 C   0  0  0  0  0  0  0  0  0  0  0  0
   22.0100   18.9414   21.1759 H   0  0  0  0  0  0  0  0  0  0  0  0
   20.7617   17.7165   21.2396 H   0  0  0  0  0  0  0  0  0  0  0  0
   20.1403   19.6010   20.3159 C   0  0  0  0  0  0  0  0  0  0  0  0
   20.7758   19.7447   19.4308 H   0  0  0  0  0  0  0  0  0  0  0  0
   19.9176   20.6085   20.6939 H   0  0  0  0  0  0  0  0  0  0  0  0
   18.8406   18.8978   19.8592 C   0  0  0  0  0  0  0  0  0  0  0  0
   19.0613   17.9206   19.4103 H   0  0  0  0  0  0  0  0  0  0  0  0
   18.3228   19.5017   19.1029 H   0  0  0  0  0  0  0  0  0  0  0  0
   18.1441   18.7372   20.6894 H   0  0  0  0  0  0  0  0  0  0  0  0
  1  2  1  0  0  0  0
  1  3  1  0  0  0  0
  1  4  1  0  0  0  0
  1  5  1  0  0  0  0
  5  6  1  0  0  0  0
  5  7  1  0  0  0  0
  5  8  1  0  0  0  0
  8  9  1  0  0  0  0
  8 10  1  0  0  0  0
  8 11  1  0  0  0  0
 11 12  1  0  0  0  0
 11 13  1  0  0  0  0
 11 14  1  0  0  0  0
 14 15  1  0  0  0  0
 14 16  1  0  0  0  0
 14 17  1  0  0  0  0
 17 18  1  0  0  0  0
 17 19  1  0  0  0  0
 17 20  1  0  0  0  0
 20 21  1  0  0  0  0
 20 22  1  0  0  0  0
 20 23  1  0  0  0  0
M  END
> <VConfSearch Rank>
341

> <Conf_Id>
3

> <Delta U+W>
3.283

> <U+W>
-5.099

> <U>
50.701

> <W>
-55.800

> <W(PB)>
-57.867

> <W(SA)>
2.067

> <Valence>
4.880

> <Coulomb>
45.095

> <VdW>
0.726

> <VdW6>
-6.620

> <VdW12>
7.346

> <Bond>
0.222

> <Angle>
1.260

> <Pdih>
3.398

> <Idih>
0.000

> <Tether>
0.000

$$$$
VeraChem MOL file


 23 22  0  0  0  0  0  0  0  0999 V2000     
   17.7163   20.3775   24.1302 N   0  3  0  0  0  0  0  0  0  0  0  0
   17.5336   21.3419   23.8351 H   0  0  0  0  0  0  0  0  0  0  0  0
   17.0508   20.1630   24.8805 H   0  0  0  0  0  0  0  0  0  0  0  0
   17.4842   19.7692   23.3392 H   0  0  0  0  0  0  0  0  0  0  0  0
   19.1518   20.1883   24.5791 C   0  0  0  0  0  0  0  0  0  0  0  0
   19.2708   19.1528   24.9079 H   0  0  0  0  0  0  0  0  0  0  0  0
   19.3188   20.8383   25.4424 H   0  0  0  0  0  0  0  0  0  0  0  0
   20.1912   20.5130   23.4866 C   0  0  0  0  0  0  0  0  0  0  0  0
   20.0941   21.5694   23.2032 H   0  0  0  0  0  0  0  0  0  0  0  0
   21.1970   20.4025   23.9132 H   0  0  0  0  0  0  0  0  0  0  0  0
   20.0753   19.6309   22.2176 C   0  0  0  0  0  0  0  0  0  0  0  0
   20.8290   19.9726   21.4964 H   0  0  0  0  0  0  0  0  0  0  0  0
   19.1000   19.7904   21.7390 H   0  0  0  0  0  0  0  0  0  0  0  0
   20.2789   18.1212   22.5035 C   0  0  0  0  0  0  0  0  0  0  0  0
   21.2666   17.9601   22.9570 H   0  0  0  0  0  0  0  0  0  0  0  0
   19.5409   17.7840   23.2430 H   0  0  0  0  0  0  0  0  0  0  0  0
   20.1380   17.2314   21.2445 C   0  0  0  0  0  0  0  0  0  0  0  0
   19.1474   17.3802   20.7926 H   0  0  0  0  0  0  0  0  0  0  0  0
   20.1794   16.1773   21.5526 H   0  0  0  0  0  0  0  0  0  0  0  0
   21.2359   17.4822   20.1857 C   0  0  0  0  0  0  0  0  0  0  0  0
   22.2374   17.3721   20.6215 H   0  0  0  0  0  0  0  0  0  0  0  0
   21.1574   18.4868   19.7523 H   0  0  0  0  0  0  0  0  0  0  0  0
   21.1473   16.7611   19.3628 H   0  0  0  0  0  0  0  0  0  0  0  0
  1  2  1  0  0  0  0
  1  3  1  0  0  0  0
  1  4  1  0  0  0  0
  1  5  1  0  0  0  0
  5  6  1  0  0  0  0
  5  7  1  0  0  0  0
  5  8  1  0  0  0  0
  8  9  1  0  0  0  0
  8 10  1  0  0  0  0
  8 11  1  0  0  0  0
 11 12  1  0  0  0  0
 11 13  1  0  0  0  0
 11 14  1  0  0  0  0
 14 15  1  0  0  0  0
 14 16  1  0  0  0  0
 14 17  1  0  0  0  0
 17 18  1  0  0  0  0
 17 19  1  0  0  0  0
 17 20  1  0  0  0  0
 20 21  1  0  0  0  0
 20 22  1  0  0  0  0
 20 23  1  0  0  0  0
M  END
> <VConfSearch Rank>
342

> <Conf_Id>
83

> <Delta U+W>
1.229

> <U+W>
-7.154

> <U>
48.727

> <W>
-55.880

> <W(PB)>
-57.960

> <W(SA)>
2.080

> <Valence>
2.671

> <Coulomb>
45.371

> <VdW>
0.684

> <VdW6>
-6.511

> <VdW12>
7.195

> <Bond>
0.203

> <Angle>
0.915

> <Pdih>
1.554

> <Idih>
0.000

> <Tether>
0.000

$$$$
VeraChem MOL file


 23 22  0  0  0  0  0  0  0  0999 V2000     
   17.5463   17.1776   22.0124 N   0  3  0  0  0  0  0  0  0  0  0  0
   17.2956   17.1320   21.0196 H   0  0  0  0  0  0  0  0  0  0  0  0
   17.3580   18.1334   22.3293 H   0  0  0  0  0  0  0  0  0  0  0  0
   16.8979   16.5609   22.5135 H   0  0  0  0  0  0  0  0  0  0  0  0
   18.9918   16.7852   22.2466 C   0  0  0  0  0  0  0  0  0  0  0  0
   19.1123   15.7488   21.9196 H   0  0  0  0  0  0  0  0  0  0  0  0
   19.1841   16.8248   23.3218 H   0  0  0  0  0  0  0  0  0  0  0  0
   20.0053   17.6773   21.5007 C   0  0  0  0  0  0  0  0  0  0  0  0
   21.0165   17.2896   21.6824 H   0  0  0  0  0  0  0  0  0  0  0  0
   19.8334   17.5872   20.4199 H   0  0  0  0  0  0  0  0  0  0  0  0
   19.9520   19.1727   21.9036 C   0  0  0  0  0  0  0  0  0  0  0  0
   18.9678   19.5920   21.6561 H   0  0  0  0  0  0  0  0  0  0  0  0
   20.6794   19.7167   21.2873 H   0  0  0  0  0  0  0  0  0  0  0  0
   20.2621   19.4119   23.4033 C   0  0  0  0  0  0  0  0  0  0  0  0
   19.5500   18.8487   24.0206 H   0  0  0  0  0  0  0  0  0  0  0  0
   21.2589   19.0166   23.6428 H   0  0  0  0  0  0  0  0  0  0  0  0
   20.1843   20.9012   23.8185 C   0  0  0  0  0  0  0  0  0  0  0  0
   20.3003   20.9686   24.9093 H   0  0  0  0  0  0  0  0  0  0  0  0
   19.1856   21.2993   23.5910 H   0  0  0  0  0  0  0  0  0  0  0  0
   21.2616   21.7853   23.1497 C   0  0  0  0  0  0  0  0  0  0  0  0
   22.2685   21.3891   23.3347 H   0  0  0  0  0  0  0  0  0  0  0  0
   21.2239   22.8061   23.5515 H   0  0  0  0  0  0  0  0  0  0  0  0
   21.1122   21.8534   22.0651 H   0  0  0  0  0  0  0  0  0  0  0  0
  1  2  1  0  0  0  0
  1  3  1  0  0  0  0
  1  4  1  0  0  0  0
  1  5  1  0  0  0  0
  5  6  1  0  0  0  0
  5  7  1  0  0  0  0
  5  8  1  0  0  0  0
  8  9  1  0  0  0  0
  8 10  1  0  0  0  0
  8 11  1  0  0  0  0
 11 12  1  0  0  0  0
 11 13  1  0  0  0  0
 11 14  1  0  0  0  0
 14 15  1  0  0  0  0
 14 16  1  0  0  0  0
 14 17  1  0  0  0  0
 17 18  1  0  0  0  0
 17 19  1  0  0  0  0
 17 20  1  0  0  0  0
 20 21  1  0  0  0  0
 20 22  1  0  0  0  0
 20 23  1  0  0  0  0
M  END
> <VConfSearch Rank>
343

> <Conf_Id>
50

> <Delta U+W>
1.252

> <U+W>
-7.130

> <U>
48.727

> <W>
-55.857

> <W(PB)>
-57.937

> <W(SA)>
2.080

> <Valence>
2.671

> <Coulomb>
45.371

> <VdW>
0.684

> <VdW6>
-6.511

> <VdW12>
7.196

> <Bond>
0.203

> <Angle>
0.915

> <Pdih>
1.554

> <Idih>
0.000

> <Tether>
0.000

$$$$
VeraChem MOL file


 23 22  0  0  0  0  0  0  0  0999 V2000     
   18.4201   21.8287   21.9175 N   0  3  0  0  0  0  0  0  0  0  0  0
   19.3309   21.9054   21.4548 H   0  0  0  0  0  0  0  0  0  0  0  0
   18.1682   22.7690   22.2406 H   0  0  0  0  0  0  0  0  0  0  0  0
   17.7367   21.5663   21.2000 H   0  0  0  0  0  0  0  0  0  0  0  0
   18.4507   20.8309   23.0588 C   0  0  0  0  0  0  0  0  0  0  0  0
   17.4629   20.8334   23.5276 H   0  0  0  0  0  0  0  0  0  0  0  0
   19.1783   21.1808   23.7961 H   0  0  0  0  0  0  0  0  0  0  0  0
   18.8047   19.3961   22.6219 C   0  0  0  0  0  0  0  0  0  0  0  0
   18.6934   18.7364   23.4897 H   0  0  0  0  0  0  0  0  0  0  0  0
   18.0745   19.0512   21.8779 H   0  0  0  0  0  0  0  0  0  0  0  0
   20.2385   19.2847   22.0434 C   0  0  0  0  0  0  0  0  0  0  0  0
   20.9679   19.7154   22.7432 H   0  0  0  0  0  0  0  0  0  0  0  0
   20.2948   19.8939   21.1314 H   0  0  0  0  0  0  0  0  0  0  0  0
   20.6441   17.8322   21.6801 C   0  0  0  0  0  0  0  0  0  0  0  0
   19.7573   17.2466   21.4012 H   0  0  0  0  0  0  0  0  0  0  0  0
   21.2707   17.8673   20.7780 H   0  0  0  0  0  0  0  0  0  0  0  0
   21.4496   17.0905   22.7775 C   0  0  0  0  0  0  0  0  0  0  0  0
   22.3852   17.6316   22.9768 H   0  0  0  0  0  0  0  0  0  0  0  0
   21.7450   16.1064   22.3878 H   0  0  0  0  0  0  0  0  0  0  0  0
   20.6831   16.8879   24.1029 C   0  0  0  0  0  0  0  0  0  0  0  0
   19.7147   16.4009   23.9302 H   0  0  0  0  0  0  0  0  0  0  0  0
   20.5090   17.8434   24.6128 H   0  0  0  0  0  0  0  0  0  0  0  0
   21.2610   16.2527   24.7866 H   0  0  0  0  0  0  0  0  0  0  0  0
  1  2  1  0  0  0  0
  1  3  1  0  0  0  0
  1  4  1  0  0  0  0
  1  5  1  0  0  0  0
  5  6  1  0  0  0  0
  5  7  1  0  0  0  0
  5  8  1  0  0  0  0
  8  9  1  0  0  0  0
  8 10  1  0  0  0  0
  8 11  1  0  0  0  0
 11 12  1  0  0  0  0
 11 13  1  0  0  0  0
 11 14  1  0  0  0  0
 14 15  1  0  0  0  0
 14 16  1  0  0  0  0
 14 17  1  0  0  0  0
 17 18  1  0  0  0  0
 17 19  1  0  0  0  0
 17 20  1  0  0  0  0
 20 21  1  0  0  0  0
 20 22  1  0  0  0  0
 20 23  1  0  0  0  0
M  END
> <VConfSearch Rank>
344

> <Conf_Id>
55

> <Delta U+W>
3.232

> <U+W>
-5.150

> <U>
50.625

> <W>
-55.776

> <W(PB)>
-57.839

> <W(SA)>
2.064

> <Valence>
4.837

> <Coulomb>
45.097

> <VdW>
0.692

> <VdW6>
-6.655

> <VdW12>
7.347

> <Bond>
0.223

> <Angle>
1.167

> <Pdih>
3.447

> <Idih>
0.000

> <Tether>
0.000

$$$$
VeraChem MOL file


 23 22  0  0  0  0  0  0  0  0999 V2000     
   20.1558   15.9027   22.5336 N   0  3  0  0  0  0  0  0  0  0  0  0
   20.8433   15.4096   23.1125 H   0  0  0  0  0  0  0  0  0  0  0  0
   20.0899   15.3897   21.6480 H   0  0  0  0  0  0  0  0  0  0  0  0
   19.2477   15.8104   23.0000 H   0  0  0  0  0  0  0  0  0  0  0  0
   20.5359   17.3534   22.3173 C   0  0  0  0  0  0  0  0  0  0  0  0
   19.7829   17.8018   21.6668 H   0  0  0  0  0  0  0  0  0  0  0  0
   21.4952   17.3748   21.7932 H   0  0  0  0  0  0  0  0  0  0  0  0
   20.6495   18.1489   23.6326 C   0  0  0  0  0  0  0  0  0  0  0  0
   19.7066   18.0975   24.1931 H   0  0  0  0  0  0  0  0  0  0  0  0
   21.4094   17.6634   24.2594 H   0  0  0  0  0  0  0  0  0  0  0  0
   21.0608   19.6271   23.4158 C   0  0  0  0  0  0  0  0  0  0  0  0
   21.7916   19.6985   22.5982 H   0  0  0  0  0  0  0  0  0  0  0  0
   21.5888   19.9703   24.3164 H   0  0  0  0  0  0  0  0  0  0  0  0
   19.8827   20.6041   23.1646 C   0  0  0  0  0  0  0  0  0  0  0  0
   19.2131   20.6016   24.0358 H   0  0  0  0  0  0  0  0  0  0  0  0
   20.2914   21.6219   23.0982 H   0  0  0  0  0  0  0  0  0  0  0  0
   19.0630   20.3097   21.8872 C   0  0  0  0  0  0  0  0  0  0  0  0
   18.5194   19.3630   22.0016 H   0  0  0  0  0  0  0  0  0  0  0  0
   19.7381   20.1968   21.0274 H   0  0  0  0  0  0  0  0  0  0  0  0
   18.0438   21.4313   21.5938 C   0  0  0  0  0  0  0  0  0  0  0  0
   18.5489   22.3926   21.4330 H   0  0  0  0  0  0  0  0  0  0  0  0
   17.3382   21.5508   22.4264 H   0  0  0  0  0  0  0  0  0  0  0  0
   17.4635   21.2012   20.6908 H   0  0  0  0  0  0  0  0  0  0  0  0
  1  2  1  0  0  0  0
  1  3  1  0  0  0  0
  1  4  1  0  0  0  0
  1  5  1  0  0  0  0
  5  6  1  0  0  0  0
  5  7  1  0  0  0  0
  5  8  1  0  0  0  0
  8  9  1  0  0  0  0
  8 10  1  0  0  0  0
  8 11  1  0  0  0  0
 11 12  1  0  0  0  0
 11 13  1  0  0  0  0
 11 14  1  0  0  0  0
 14 15  1  0  0  0  0
 14 16  1  0  0  0  0
 14 17  1  0  0  0  0
 17 18  1  0  0  0  0
 17 19  1  0  0  0  0
 17 20  1  0  0  0  0
 20 21  1  0  0  0  0
 20 22  1  0  0  0  0
 20 23  1  0  0  0  0
M  END
> <VConfSearch Rank>
345

> <Conf_Id>
93

> <Delta U+W>
2.589

> <U+W>
-5.793

> <U>
50.122

> <W>
-55.915

> <W(PB)>
-58.031

> <W(SA)>
2.115

> <Valence>
4.132

> <Coulomb>
45.536

> <VdW>
0.454

> <VdW6>
-6.262

> <VdW12>
6.715

> <Bond>
0.182

> <Angle>
1.157

> <Pdih>
2.794

> <Idih>
0.000

> <Tether>
0.000

$$$$
VeraChem MOL file


 23 22  0  0  0  0  0  0  0  0999 V2000     
   19.0088   16.3597   20.9974 N   0  3  0  0  0  0  0  0  0  0  0  0
   18.6497   16.9365   20.2299 H   0  0  0  0  0  0  0  0  0  0  0  0
   18.2397   15.7516   21.2987 H   0  0  0  0  0  0  0  0  0  0  0  0
   19.7327   15.7503   20.6031 H   0  0  0  0  0  0  0  0  0  0  0  0
   19.5402   17.2031   22.1383 C   0  0  0  0  0  0  0  0  0  0  0  0
   19.8774   16.5261   22.9279 H   0  0  0  0  0  0  0  0  0  0  0  0
   18.7109   17.7953   22.5295 H   0  0  0  0  0  0  0  0  0  0  0  0
   20.7029   18.1229   21.7168 C   0  0  0  0  0  0  0  0  0  0  0  0
   21.5111   17.4915   21.3242 H   0  0  0  0  0  0  0  0  0  0  0  0
   20.3925   18.7777   20.8917 H   0  0  0  0  0  0  0  0  0  0  0  0
   21.2637   18.9698   22.8872 C   0  0  0  0  0  0  0  0  0  0  0  0
   22.3198   19.1876   22.6757 H   0  0  0  0  0  0  0  0  0  0  0  0
   21.2624   18.3789   23.8137 H   0  0  0  0  0  0  0  0  0  0  0  0
   20.5447   20.3245   23.1178 C   0  0  0  0  0  0  0  0  0  0  0  0
   21.0732   20.8595   23.9191 H   0  0  0  0  0  0  0  0  0  0  0  0
   20.6433   20.9488   22.2191 H   0  0  0  0  0  0  0  0  0  0  0  0
   19.0507   20.2045   23.4972 C   0  0  0  0  0  0  0  0  0  0  0  0
   18.9310   19.4911   24.3245 H   0  0  0  0  0  0  0  0  0  0  0  0
   18.4787   19.8149   22.6452 H   0  0  0  0  0  0  0  0  0  0  0  0
   18.4563   21.5687   23.9077 C   0  0  0  0  0  0  0  0  0  0  0  0
   17.3935   21.4673   24.1629 H   0  0  0  0  0  0  0  0  0  0  0  0
   18.5386   22.2969   23.0903 H   0  0  0  0  0  0  0  0  0  0  0  0
   18.9750   21.9784   24.7842 H   0  0  0  0  0  0  0  0  0  0  0  0
  1  2  1  0  0  0  0
  1  3  1  0  0  0  0
  1  4  1  0  0  0  0
  1  5  1  0  0  0  0
  5  6  1  0  0  0  0
  5  7  1  0  0  0  0
  5  8  1  0  0  0  0
  8  9  1  0  0  0  0
  8 10  1  0  0  0  0
  8 11  1  0  0  0  0
 11 12  1  0  0  0  0
 11 13  1  0  0  0  0
 11 14  1  0  0  0  0
 14 15  1  0  0  0  0
 14 16  1  0  0  0  0
 14 17  1  0  0  0  0
 17 18  1  0  0  0  0
 17 19  1  0  0  0  0
 17 20  1  0  0  0  0
 20 21  1  0  0  0  0
 20 22  1  0  0  0  0
 20 23  1  0  0  0  0
M  END
> <VConfSearch Rank>
346

> <Conf_Id>
70

> <Delta U+W>
2.599

> <U+W>
-5.783

> <U>
50.122

> <W>
-55.906

> <W(PB)>
-58.010

> <W(SA)>
2.105

> <Valence>
4.132

> <Coulomb>
45.536

> <VdW>
0.454

> <VdW6>
-6.262

> <VdW12>
6.715

> <Bond>
0.182

> <Angle>
1.157

> <Pdih>
2.794

> <Idih>
0.000

> <Tether>
0.000

$$$$
VeraChem MOL file


 23 22  0  0  0  0  0  0  0  0999 V2000     
   18.3239   21.3560   23.0820 N   0  3  0  0  0  0  0  0  0  0  0  0
   17.3273   21.4710   22.8721 H   0  0  0  0  0  0  0  0  0  0  0  0
   18.6949   22.2886   23.2928 H   0  0  0  0  0  0  0  0  0  0  0  0
   18.3905   20.8037   23.9422 H   0  0  0  0  0  0  0  0  0  0  0  0
   19.0681   20.6990   21.9363 C   0  0  0  0  0  0  0  0  0  0  0  0
   20.1249   20.6369   22.2089 H   0  0  0  0  0  0  0  0  0  0  0  0
   18.9802   21.3521   21.0639 H   0  0  0  0  0  0  0  0  0  0  0  0
   18.5394   19.2948   21.5806 C   0  0  0  0  0  0  0  0  0  0  0  0
   17.4876   19.3740   21.2754 H   0  0  0  0  0  0  0  0  0  0  0  0
   19.0791   18.9259   20.6991 H   0  0  0  0  0  0  0  0  0  0  0  0
   18.6589   18.2651   22.7349 C   0  0  0  0  0  0  0  0  0  0  0  0
   18.2976   17.2906   22.3786 H   0  0  0  0  0  0  0  0  0  0  0  0
   17.9799   18.5532   23.5487 H   0  0  0  0  0  0  0  0  0  0  0  0
   20.0879   18.0944   23.3124 C   0  0  0  0  0  0  0  0  0  0  0  0
   20.4293   19.0378   23.7589 H   0  0  0  0  0  0  0  0  0  0  0  0
   20.0439   17.3686   24.1362 H   0  0  0  0  0  0  0  0  0  0  0  0
   21.1217   17.6079   22.2696 C   0  0  0  0  0  0  0  0  0  0  0  0
   21.2343   18.3535   21.4713 H   0  0  0  0  0  0  0  0  0  0  0  0
   20.7631   16.6839   21.7948 H   0  0  0  0  0  0  0  0  0  0  0  0
   22.5012   17.3510   22.9127 C   0  0  0  0  0  0  0  0  0  0  0  0
   23.2225   17.0092   22.1592 H   0  0  0  0  0  0  0  0  0  0  0  0
   22.4368   16.5795   23.6912 H   0  0  0  0  0  0  0  0  0  0  0  0
   22.8998   18.2659   23.3702 H   0  0  0  0  0  0  0  0  0  0  0  0
  1  2  1  0  0  0  0
  1  3  1  0  0  0  0
  1  4  1  0  0  0  0
  1  5  1  0  0  0  0
  5  6  1  0  0  0  0
  5  7  1  0  0  0  0
  5  8  1  0  0  0  0
  8  9  1  0  0  0  0
  8 10  1  0  0  0  0
  8 11  1  0  0  0  0
 11 12  1  0  0  0  0
 11 13  1  0  0  0  0
 11 14  1  0  0  0  0
 14 15  1  0  0  0  0
 14 16  1  0  0  0  0
 14 17  1  0  0  0  0
 17 18  1  0  0  0  0
 17 19  1  0  0  0  0
 17 20  1  0  0  0  0
 20 21  1  0  0  0  0
 20 22  1  0  0  0  0
 20 23  1  0  0  0  0
M  END
> <VConfSearch Rank>
347

> <Conf_Id>
72

> <Delta U+W>
1.051

> <U+W>
-7.331

> <U>
48.590

> <W>
-55.922

> <W(PB)>
-58.012

> <W(SA)>
2.090

> <Valence>
2.601

> <Coulomb>
45.520

> <VdW>
0.469

> <VdW6>
-6.867

> <VdW12>
7.336

> <Bond>
0.205

> <Angle>
0.962

> <Pdih>
1.434

> <Idih>
0.000

> <Tether>
0.000

$$$$
VeraChem MOL file


 23 22  0  0  0  0  0  0  0  0999 V2000     
   18.5287   16.0938   22.8952 N   0  3  0  0  0  0  0  0  0  0  0  0
   17.6009   15.8014   23.2202 H   0  0  0  0  0  0  0  0  0  0  0  0
   19.1896   15.3676   23.1897 H   0  0  0  0  0  0  0  0  0  0  0  0
   18.5034   16.0811   21.8706 H   0  0  0  0  0  0  0  0  0  0  0  0
   18.9103   17.4572   23.4349 C   0  0  0  0  0  0  0  0  0  0  0  0
   18.8894   17.4065   24.5268 H   0  0  0  0  0  0  0  0  0  0  0  0
   18.1504   18.1722   23.1089 H   0  0  0  0  0  0  0  0  0  0  0  0
   20.2999   17.9258   22.9646 C   0  0  0  0  0  0  0  0  0  0  0  0
   21.0502   17.1823   23.2645 H   0  0  0  0  0  0  0  0  0  0  0  0
   20.3260   17.9646   21.8681 H   0  0  0  0  0  0  0  0  0  0  0  0
   20.6972   19.3023   23.5530 C   0  0  0  0  0  0  0  0  0  0  0  0
   21.7023   19.5676   23.1989 H   0  0  0  0  0  0  0  0  0  0  0  0
   20.7830   19.2100   24.6445 H   0  0  0  0  0  0  0  0  0  0  0  0
   19.7116   20.4579   23.2302 C   0  0  0  0  0  0  0  0  0  0  0  0
   18.7508   20.2675   23.7272 H   0  0  0  0  0  0  0  0  0  0  0  0
   20.0974   21.3833   23.6796 H   0  0  0  0  0  0  0  0  0  0  0  0
   19.4555   20.7040   21.7216 C   0  0  0  0  0  0  0  0  0  0  0  0
   18.7381   21.5301   21.6185 H   0  0  0  0  0  0  0  0  0  0  0  0
   18.9711   19.8276   21.2705 H   0  0  0  0  0  0  0  0  0  0  0  0
   20.7364   21.0565   20.9320 C   0  0  0  0  0  0  0  0  0  0  0  0
   21.2454   21.9234   21.3728 H   0  0  0  0  0  0  0  0  0  0  0  0
   20.4908   21.3045   19.8913 H   0  0  0  0  0  0  0  0  0  0  0  0
   21.4418   20.2164   20.9138 H   0  0  0  0  0  0  0  0  0  0  0  0
  1  2  1  0  0  0  0
  1  3  1  0  0  0  0
  1  4  1  0  0  0  0
  1  5  1  0  0  0  0
  5  6  1  0  0  0  0
  5  7  1  0  0  0  0
  5  8  1  0  0  0  0
  8  9  1  0  0  0  0
  8 10  1  0  0  0  0
  8 11  1  0  0  0  0
 11 12  1  0  0  0  0
 11 13  1  0  0  0  0
 11 14  1  0  0  0  0
 14 15  1  0  0  0  0
 14 16  1  0  0  0  0
 14 17  1  0  0  0  0
 17 18  1  0  0  0  0
 17 19  1  0  0  0  0
 17 20  1  0  0  0  0
 20 21  1  0  0  0  0
 20 22  1  0  0  0  0
 20 23  1  0  0  0  0
M  END
> <VConfSearch Rank>
348

> <Conf_Id>
26

> <Delta U+W>
1.076

> <U+W>
-7.306

> <U>
48.641

> <W>
-55.947

> <W(PB)>
-58.031

> <W(SA)>
2.084

> <Valence>
2.922

> <Coulomb>
45.269

> <VdW>
0.449

> <VdW6>
-7.045

> <VdW12>
7.494

> <Bond>
0.220

> <Angle>
1.205

> <Pdih>
1.497

> <Idih>
0.000

> <Tether>
0.000

$$$$
VeraChem MOL file


 23 22  0  0  0  0  0  0  0  0999 V2000     
   17.9716   19.6922   20.1806 N   0  3  0  0  0  0  0  0  0  0  0  0
   18.4266   20.2206   19.4293 H   0  0  0  0  0  0  0  0  0  0  0  0
   16.9762   19.9380   20.1569 H   0  0  0  0  0  0  0  0  0  0  0  0
   18.0395   18.6993   19.9350 H   0  0  0  0  0  0  0  0  0  0  0  0
   18.5914   19.9843   21.5320 C   0  0  0  0  0  0  0  0  0  0  0  0
   18.0406   19.4139   22.2845 H   0  0  0  0  0  0  0  0  0  0  0  0
   18.4587   21.0490   21.7417 H   0  0  0  0  0  0  0  0  0  0  0  0
   20.0875   19.6255   21.6007 C   0  0  0  0  0  0  0  0  0  0  0  0
   20.2232   18.5596   21.3775 H   0  0  0  0  0  0  0  0  0  0  0  0
   20.6252   20.1753   20.8169 H   0  0  0  0  0  0  0  0  0  0  0  0
   20.7209   19.9641   22.9730 C   0  0  0  0  0  0  0  0  0  0  0  0
   20.6827   21.0520   23.1225 H   0  0  0  0  0  0  0  0  0  0  0  0
   21.7881   19.7064   22.9493 H   0  0  0  0  0  0  0  0  0  0  0  0
   20.0472   19.2737   24.1897 C   0  0  0  0  0  0  0  0  0  0  0  0
   20.5833   19.5699   25.1018 H   0  0  0  0  0  0  0  0  0  0  0  0
   19.0262   19.6603   24.3094 H   0  0  0  0  0  0  0  0  0  0  0  0
   19.9925   17.7262   24.1227 C   0  0  0  0  0  0  0  0  0  0  0  0
   19.3716   17.4043   23.2759 H   0  0  0  0  0  0  0  0  0  0  0  0
   19.4867   17.3544   25.0247 H   0  0  0  0  0  0  0  0  0  0  0  0
   21.3872   17.0672   24.0274 C   0  0  0  0  0  0  0  0  0  0  0  0
   21.8895   17.3228   23.0862 H   0  0  0  0  0  0  0  0  0  0  0  0
   21.2997   15.9738   24.0692 H   0  0  0  0  0  0  0  0  0  0  0  0
   22.0309   17.3846   24.8580 H   0  0  0  0  0  0  0  0  0  0  0  0
  1  2  1  0  0  0  0
  1  3  1  0  0  0  0
  1  4  1  0  0  0  0
  1  5  1  0  0  0  0
  5  6  1  0  0  0  0
  5  7  1  0  0  0  0
  5  8  1  0  0  0  0
  8  9  1  0  0  0  0
  8 10  1  0  0  0  0
  8 11  1  0  0  0  0
 11 12  1  0  0  0  0
 11 13  1  0  0  0  0
 11 14  1  0  0  0  0
 14 15  1  0  0  0  0
 14 16  1  0  0  0  0
 14 17  1  0  0  0  0
 17 18  1  0  0  0  0
 17 19  1  0  0  0  0
 17 20  1  0  0  0  0
 20 21  1  0  0  0  0
 20 22  1  0  0  0  0
 20 23  1  0  0  0  0
M  END
> <VConfSearch Rank>
349

> <Conf_Id>
90

> <Delta U+W>
1.131

> <U+W>
-7.251

> <U>
48.641

> <W>
-55.892

> <W(PB)>
-57.962

> <W(SA)>
2.070

> <Valence>
2.922

> <Coulomb>
45.269

> <VdW>
0.450

> <VdW6>
-7.045

> <VdW12>
7.495

> <Bond>
0.220

> <Angle>
1.205

> <Pdih>
1.497

> <Idih>
0.000

> <Tether>
0.000

$$$$
VeraChem MOL file


 23 22  0  0  0  0  0  0  0  0999 V2000     
   20.8791   18.8887   25.0053 N   0  3  0  0  0  0  0  0  0  0  0  0
   20.5504   19.0213   25.9678 H   0  0  0  0  0  0  0  0  0  0  0  0
   20.6068   19.7228   24.4764 H   0  0  0  0  0  0  0  0  0  0  0  0
   21.9033   18.8711   25.0388 H   0  0  0  0  0  0  0  0  0  0  0  0
   20.3143   17.6253   24.3862 C   0  0  0  0  0  0  0  0  0  0  0  0
   19.2238   17.6948   24.4093 H   0  0  0  0  0  0  0  0  0  0  0  0
   20.6136   16.7832   25.0161 H   0  0  0  0  0  0  0  0  0  0  0  0
   20.7906   17.3773   22.9403 C   0  0  0  0  0  0  0  0  0  0  0  0
   21.8826   17.2622   22.9361 H   0  0  0  0  0  0  0  0  0  0  0  0
   20.3808   16.4192   22.5942 H   0  0  0  0  0  0  0  0  0  0  0  0
   20.3891   18.4945   21.9447 C   0  0  0  0  0  0  0  0  0  0  0  0
   20.7836   18.2370   20.9521 H   0  0  0  0  0  0  0  0  0  0  0  0
   20.8765   19.4344   22.2331 H   0  0  0  0  0  0  0  0  0  0  0  0
   18.8558   18.6961   21.8451 C   0  0  0  0  0  0  0  0  0  0  0  0
   18.3797   17.7274   21.6399 H   0  0  0  0  0  0  0  0  0  0  0  0
   18.4554   19.0400   22.8081 H   0  0  0  0  0  0  0  0  0  0  0  0
   18.4388   19.6933   20.7374 C   0  0  0  0  0  0  0  0  0  0  0  0
   17.3424   19.6980   20.6615 H   0  0  0  0  0  0  0  0  0  0  0  0
   18.8125   19.3459   19.7640 H   0  0  0  0  0  0  0  0  0  0  0  0
   18.9263   21.1371   20.9965 C   0  0  0  0  0  0  0  0  0  0  0  0
   18.5878   21.4985   21.9762 H   0  0  0  0  0  0  0  0  0  0  0  0
   18.5304   21.8187   20.2327 H   0  0  0  0  0  0  0  0  0  0  0  0
   20.0207   21.2054   20.9633 H   0  0  0  0  0  0  0  0  0  0  0  0
  1  2  1  0  0  0  0
  1  3  1  0  0  0  0
  1  4  1  0  0  0  0
  1  5  1  0  0  0  0
  5  6  1  0  0  0  0
  5  7  1  0  0  0  0
  5  8  1  0  0  0  0
  8  9  1  0  0  0  0
  8 10  1  0  0  0  0
  8 11  1  0  0  0  0
 11 12  1  0  0  0  0
 11 13  1  0  0  0  0
 11 14  1  0  0  0  0
 14 15  1  0  0  0  0
 14 16  1  0  0  0  0
 14 17  1  0  0  0  0
 17 18  1  0  0  0  0
 17 19  1  0  0  0  0
 17 20  1  0  0  0  0
 20 21  1  0  0  0  0
 20 22  1  0  0  0  0
 20 23  1  0  0  0  0
M  END
> <VConfSearch Rank>
350

> <Conf_Id>
85

> <Delta U+W>
1.193

> <U+W>
-7.189

> <U>
48.775

> <W>
-55.965

> <W(PB)>
-58.038

> <W(SA)>
2.073

> <Valence>
2.602

> <Coulomb>
45.581

> <VdW>
0.592

> <VdW6>
-6.616

> <VdW12>
7.208

> <Bond>
0.196

> <Angle>
0.832

> <Pdih>
1.574

> <Idih>
0.000

> <Tether>
0.000

$$$$
VeraChem MOL file


 23 22  0  0  0  0  0  0  0  0999 V2000     
   18.8299   17.5873   23.8509 N   0  3  0  0  0  0  0  0  0  0  0  0
   18.5513   18.0770   22.9946 H   0  0  0  0  0  0  0  0  0  0  0  0
   18.0627   17.6855   24.5248 H   0  0  0  0  0  0  0  0  0  0  0  0
   18.9018   16.5902   23.6236 H   0  0  0  0  0  0  0  0  0  0  0  0
   20.1341   18.1330   24.3993 C   0  0  0  0  0  0  0  0  0  0  0  0
   20.3633   17.5634   25.3040 H   0  0  0  0  0  0  0  0  0  0  0  0
   19.9843   19.1775   24.6850 H   0  0  0  0  0  0  0  0  0  0  0  0
   21.3211   18.0224   23.4208 C   0  0  0  0  0  0  0  0  0  0  0  0
   22.2456   18.0554   24.0125 H   0  0  0  0  0  0  0  0  0  0  0  0
   21.3120   17.0370   22.9363 H   0  0  0  0  0  0  0  0  0  0  0  0
   21.4037   19.1437   22.3502 C   0  0  0  0  0  0  0  0  0  0  0  0
   22.3179   18.9722   21.7651 H   0  0  0  0  0  0  0  0  0  0  0  0
   21.5462   20.1180   22.8379 H   0  0  0  0  0  0  0  0  0  0  0  0
   20.2087   19.2092   21.3650 C   0  0  0  0  0  0  0  0  0  0  0  0
   20.5887   19.4946   20.3741 H   0  0  0  0  0  0  0  0  0  0  0  0
   19.7684   18.2116   21.2360 H   0  0  0  0  0  0  0  0  0  0  0  0
   19.1344   20.2448   21.7779 C   0  0  0  0  0  0  0  0  0  0  0  0
   19.5682   21.2538   21.7337 H   0  0  0  0  0  0  0  0  0  0  0  0
   18.8212   20.0964   22.8181 H   0  0  0  0  0  0  0  0  0  0  0  0
   17.8986   20.1838   20.8554 C   0  0  0  0  0  0  0  0  0  0  0  0
   18.1761   20.3826   19.8119 H   0  0  0  0  0  0  0  0  0  0  0  0
   17.1550   20.9343   21.1538 H   0  0  0  0  0  0  0  0  0  0  0  0
   17.4176   19.1981   20.8981 H   0  0  0  0  0  0  0  0  0  0  0  0
  1  2  1  0  0  0  0
  1  3  1  0  0  0  0
  1  4  1  0  0  0  0
  1  5  1  0  0  0  0
  5  6  1  0  0  0  0
  5  7  1  0  0  0  0
  5  8  1  0  0  0  0
  8  9  1  0  0  0  0
  8 10  1  0  0  0  0
  8 11  1  0  0  0  0
 11 12  1  0  0  0  0
 11 13  1  0  0  0  0
 11 14  1  0  0  0  0
 14 15  1  0  0  0  0
 14 16  1  0  0  0  0
 14 17  1  0  0  0  0
 17 18  1  0  0  0  0
 17 19  1  0  0  0  0
 17 20  1  0  0  0  0
 20 21  1  0  0  0  0
 20 22  1  0  0  0  0
 20 23  1  0  0  0  0
M  END
> <VConfSearch Rank>
351

> <Conf_Id>
82

> <Delta U+W>
5.994

> <U+W>
-2.388

> <U>
52.836

> <W>
-55.224

> <W(PB)>
-57.261

> <W(SA)>
2.037

> <Valence>
5.785

> <Coulomb>
46.744

> <VdW>
0.307

> <VdW6>
-7.672

> <VdW12>
7.979

> <Bond>
0.217

> <Angle>
1.470

> <Pdih>
4.098

> <Idih>
0.000

> <Tether>
0.000

$$$$
VeraChem MOL file


 23 22  0  0  0  0  0  0  0  0999 V2000     
   20.7505   20.6809   21.7688 N   0  3  0  0  0  0  0  0  0  0  0  0
   20.1431   21.3510   21.2860 H   0  0  0  0  0  0  0  0  0  0  0  0
   21.6196   21.1758   21.9969 H   0  0  0  0  0  0  0  0  0  0  0  0
   20.2944   20.4370   22.6538 H   0  0  0  0  0  0  0  0  0  0  0  0
   21.0095   19.4487   20.9236 C   0  0  0  0  0  0  0  0  0  0  0  0
   21.7111   18.8004   21.4551 H   0  0  0  0  0  0  0  0  0  0  0  0
   21.4924   19.7886   20.0033 H   0  0  0  0  0  0  0  0  0  0  0  0
   19.7361   18.6576   20.5612 C   0  0  0  0  0  0  0  0  0  0  0  0
   18.9383   19.3528   20.2678 H   0  0  0  0  0  0  0  0  0  0  0  0
   19.9570   18.0619   19.6656 H   0  0  0  0  0  0  0  0  0  0  0  0
   19.2233   17.6884   21.6602 C   0  0  0  0  0  0  0  0  0  0  0  0
   19.9760   16.9124   21.8568 H   0  0  0  0  0  0  0  0  0  0  0  0
   18.3541   17.1564   21.2491 H   0  0  0  0  0  0  0  0  0  0  0  0
   18.7902   18.3610   22.9880 C   0  0  0  0  0  0  0  0  0  0  0  0
   18.4347   19.3823   22.7975 H   0  0  0  0  0  0  0  0  0  0  0  0
   17.9236   17.8166   23.3885 H   0  0  0  0  0  0  0  0  0  0  0  0
   19.8995   18.3481   24.0680 C   0  0  0  0  0  0  0  0  0  0  0  0
   20.8402   18.7504   23.6735 H   0  0  0  0  0  0  0  0  0  0  0  0
   20.1122   17.3089   24.3561 H   0  0  0  0  0  0  0  0  0  0  0  0
   19.4847   19.1467   25.3218 C   0  0  0  0  0  0  0  0  0  0  0  0
   19.2951   20.2001   25.0788 H   0  0  0  0  0  0  0  0  0  0  0  0
   20.2764   19.1137   26.0816 H   0  0  0  0  0  0  0  0  0  0  0  0
   18.5724   18.7309   25.7693 H   0  0  0  0  0  0  0  0  0  0  0  0
  1  2  1  0  0  0  0
  1  3  1  0  0  0  0
  1  4  1  0  0  0  0
  1  5  1  0  0  0  0
  5  6  1  0  0  0  0
  5  7  1  0  0  0  0
  5  8  1  0  0  0  0
  8  9  1  0  0  0  0
  8 10  1  0  0  0  0
  8 11  1  0  0  0  0
 11 12  1  0  0  0  0
 11 13  1  0  0  0  0
 11 14  1  0  0  0  0
 14 15  1  0  0  0  0
 14 16  1  0  0  0  0
 14 17  1  0  0  0  0
 17 18  1  0  0  0  0
 17 19  1  0  0  0  0
 17 20  1  0  0  0  0
 20 21  1  0  0  0  0
 20 22  1  0  0  0  0
 20 23  1  0  0  0  0
M  END
> <VConfSearch Rank>
352

> <Conf_Id>
5

> <Delta U+W>
6.087

> <U+W>
-2.295

> <U>
52.836

> <W>
-55.131

> <W(PB)>
-57.202

> <W(SA)>
2.071

> <Valence>
5.785

> <Coulomb>
46.744

> <VdW>
0.307

> <VdW6>
-7.672

> <VdW12>
7.980

> <Bond>
0.217

> <Angle>
1.470

> <Pdih>
4.098

> <Idih>
0.000

> <Tether>
0.000

$$$$
VeraChem MOL file


 23 22  0  0  0  0  0  0  0  0999 V2000     
   19.2753   15.5028   21.1128 N   0  3  0  0  0  0  0  0  0  0  0  0
   19.3120   14.9943   22.0021 H   0  0  0  0  0  0  0  0  0  0  0  0
   19.6845   14.8879   20.4010 H   0  0  0  0  0  0  0  0  0  0  0  0
   18.2856   15.6190   20.8724 H   0  0  0  0  0  0  0  0  0  0  0  0
   19.9983   16.8321   21.1910 C   0  0  0  0  0  0  0  0  0  0  0  0
   19.9453   17.3036   20.2059 H   0  0  0  0  0  0  0  0  0  0  0  0
   21.0485   16.6321   21.4202 H   0  0  0  0  0  0  0  0  0  0  0  0
   19.4080   17.7789   22.2510 C   0  0  0  0  0  0  0  0  0  0  0  0
   18.3491   17.9640   22.0260 H   0  0  0  0  0  0  0  0  0  0  0  0
   19.4484   17.2948   23.2359 H   0  0  0  0  0  0  0  0  0  0  0  0
   20.1720   19.1207   22.2990 C   0  0  0  0  0  0  0  0  0  0  0  0
   20.1338   19.5993   21.3105 H   0  0  0  0  0  0  0  0  0  0  0  0
   21.2318   18.9308   22.5192 H   0  0  0  0  0  0  0  0  0  0  0  0
   19.5872   20.0798   23.3607 C   0  0  0  0  0  0  0  0  0  0  0  0
   18.5275   20.2698   23.1406 H   0  0  0  0  0  0  0  0  0  0  0  0
   19.6254   19.6013   24.3492 H   0  0  0  0  0  0  0  0  0  0  0  0
   20.3516   21.4215   23.4085 C   0  0  0  0  0  0  0  0  0  0  0  0
   20.3142   21.9053   22.4224 H   0  0  0  0  0  0  0  0  0  0  0  0
   21.4120   21.2369   23.6309 H   0  0  0  0  0  0  0  0  0  0  0  0
   19.7648   22.3765   24.4697 C   0  0  0  0  0  0  0  0  0  0  0  0
   20.3203   23.3232   24.4887 H   0  0  0  0  0  0  0  0  0  0  0  0
   19.8196   21.9337   25.4728 H   0  0  0  0  0  0  0  0  0  0  0  0
   18.7133   22.6073   24.2548 H   0  0  0  0  0  0  0  0  0  0  0  0
  1  2  1  0  0  0  0
  1  3  1  0  0  0  0
  1  4  1  0  0  0  0
  1  5  1  0  0  0  0
  5  6  1  0  0  0  0
  5  7  1  0  0  0  0
  5  8  1  0  0  0  0
  8  9  1  0  0  0  0
  8 10  1  0  0  0  0
  8 11  1  0  0  0  0
 11 12  1  0  0  0  0
 11 13  1  0  0  0  0
 11 14  1  0  0  0  0
 14 15  1  0  0  0  0
 14 16  1  0  0  0  0
 14 17  1  0  0  0  0
 17 18  1  0  0  0  0
 17 19  1  0  0  0  0
 17 20  1  0  0  0  0
 20 21  1  0  0  0  0
 20 22  1  0  0  0  0
 20 23  1  0  0  0  0
M  END
> <VConfSearch Rank>
353

> <Conf_Id>
40

> <Delta U+W>
0.000

> <U+W>
-8.382

> <U>
46.604

> <W>
-54.986

> <W(PB)>
-57.162

> <W(SA)>
2.176

> <Valence>
1.727

> <Coulomb>
44.434

> <VdW>
0.443

> <VdW6>
-4.623

> <VdW12>
5.066

> <Bond>
0.112

> <Angle>
0.386

> <Pdih>
1.228

> <Idih>
0.000

> <Tether>
0.000

$$$$
VeraChem MOL file


 23 22  0  0  0  0  0  0  0  0999 V2000     
   21.7071   21.5791   21.0439 N   0  3  0  0  0  0  0  0  0  0  0  0
   22.0357   21.2648   20.1252 H   0  0  0  0  0  0  0  0  0  0  0  0
   22.5085   21.5359   21.6817 H   0  0  0  0  0  0  0  0  0  0  0  0
   21.4558   22.5689   20.9477 H   0  0  0  0  0  0  0  0  0  0  0  0
   20.5422   20.7483   21.5423 C   0  0  0  0  0  0  0  0  0  0  0  0
   19.7180   20.8630   20.8331 H   0  0  0  0  0  0  0  0  0  0  0  0
   20.2270   21.1576   22.5055 H   0  0  0  0  0  0  0  0  0  0  0  0
   20.8885   19.2553   21.6970 C   0  0  0  0  0  0  0  0  0  0  0  0
   21.2484   18.8703   20.7336 H   0  0  0  0  0  0  0  0  0  0  0  0
   21.7155   19.1394   22.4102 H   0  0  0  0  0  0  0  0  0  0  0  0
   19.6817   18.4035   22.1572 C   0  0  0  0  0  0  0  0  0  0  0  0
   19.9780   17.3468   22.1322 H   0  0  0  0  0  0  0  0  0  0  0  0
   18.8595   18.5138   21.4368 H   0  0  0  0  0  0  0  0  0  0  0  0
   19.1850   18.7706   23.5789 C   0  0  0  0  0  0  0  0  0  0  0  0
   20.0019   18.6401   24.3020 H   0  0  0  0  0  0  0  0  0  0  0  0
   18.9122   19.8337   23.6097 H   0  0  0  0  0  0  0  0  0  0  0  0
   17.9567   17.9458   24.0342 C   0  0  0  0  0  0  0  0  0  0  0  0
   17.1325   18.0809   23.3199 H   0  0  0  0  0  0  0  0  0  0  0  0
   17.6000   18.3464   24.9935 H   0  0  0  0  0  0  0  0  0  0  0  0
   18.2547   16.4388   24.2060 C   0  0  0  0  0  0  0  0  0  0  0  0
   18.4944   15.9624   23.2475 H   0  0  0  0  0  0  0  0  0  0  0  0
   17.3813   15.9199   24.6218 H   0  0  0  0  0  0  0  0  0  0  0  0
   19.0974   16.2783   24.8909 H   0  0  0  0  0  0  0  0  0  0  0  0
  1  2  1  0  0  0  0
  1  3  1  0  0  0  0
  1  4  1  0  0  0  0
  1  5  1  0  0  0  0
  5  6  1  0  0  0  0
  5  7  1  0  0  0  0
  5  8  1  0  0  0  0
  8  9  1  0  0  0  0
  8 10  1  0  0  0  0
  8 11  1  0  0  0  0
 11 12  1  0  0  0  0
 11 13  1  0  0  0  0
 11 14  1  0  0  0  0
 14 15  1  0  0  0  0
 14 16  1  0  0  0  0
 14 17  1  0  0  0  0
 17 18  1  0  0  0  0
 17 19  1  0  0  0  0
 17 20  1  0  0  0  0
 20 21  1  0  0  0  0
 20 22  1  0  0  0  0
 20 23  1  0  0  0  0
M  END
> <VConfSearch Rank>
354

> <Conf_Id>
65

> <Delta U+W>
1.004

> <U+W>
-7.378

> <U>
48.047

> <W>
-55.425

> <W(PB)>
-57.542

> <W(SA)>
2.116

> <Valence>
2.583

> <Coulomb>
44.791

> <VdW>
0.673

> <VdW6>
-5.788

> <VdW12>
6.462

> <Bond>
0.177

> <Angle>
0.787

> <Pdih>
1.619

> <Idih>
0.000

> <Tether>
0.000

$$$$
VeraChem MOL file


 23 22  0  0  0  0  0  0  0  0999 V2000     
   17.6824   18.3571   19.7841 N   0  3  0  0  0  0  0  0  0  0  0  0
   17.7007   19.1494   19.1339 H   0  0  0  0  0  0  0  0  0  0  0  0
   16.7183   18.0076   19.8007 H   0  0  0  0  0  0  0  0  0  0  0  0
   18.2606   17.6169   19.3737 H   0  0  0  0  0  0  0  0  0  0  0  0
   18.1630   18.7491   21.1666 C   0  0  0  0  0  0  0  0  0  0  0  0
   18.0870   17.8685   21.8095 H   0  0  0  0  0  0  0  0  0  0  0  0
   17.4879   19.5172   21.5534 H   0  0  0  0  0  0  0  0  0  0  0  0
   19.6095   19.2789   21.1747 C   0  0  0  0  0  0  0  0  0  0  0  0
   20.2882   18.5073   20.7874 H   0  0  0  0  0  0  0  0  0  0  0  0
   19.6810   20.1332   20.4885 H   0  0  0  0  0  0  0  0  0  0  0  0
   20.0776   19.7252   22.5802 C   0  0  0  0  0  0  0  0  0  0  0  0
   19.4024   20.5041   22.9609 H   0  0  0  0  0  0  0  0  0  0  0  0
   21.0663   20.1915   22.4807 H   0  0  0  0  0  0  0  0  0  0  0  0
   20.1539   18.5564   23.5954 C   0  0  0  0  0  0  0  0  0  0  0  0
   19.1705   18.0748   23.6759 H   0  0  0  0  0  0  0  0  0  0  0  0
   20.8451   17.7874   23.2239 H   0  0  0  0  0  0  0  0  0  0  0  0
   20.5895   18.9997   25.0133 C   0  0  0  0  0  0  0  0  0  0  0  0
   20.5042   18.1397   25.6923 H   0  0  0  0  0  0  0  0  0  0  0  0
   19.8953   19.7616   25.3945 H   0  0  0  0  0  0  0  0  0  0  0  0
   22.0373   19.5379   25.0739 C   0  0  0  0  0  0  0  0  0  0  0  0
   22.1447   20.4728   24.5103 H   0  0  0  0  0  0  0  0  0  0  0  0
   22.7479   18.8067   24.6673 H   0  0  0  0  0  0  0  0  0  0  0  0
   22.3266   19.7448   26.1123 H   0  0  0  0  0  0  0  0  0  0  0  0
  1  2  1  0  0  0  0
  1  3  1  0  0  0  0
  1  4  1  0  0  0  0
  1  5  1  0  0  0  0
  5  6  1  0  0  0  0
  5  7  1  0  0  0  0
  5  8  1  0  0  0  0
  8  9  1  0  0  0  0
  8 10  1  0  0  0  0
  8 11  1  0  0  0  0
 11 12  1  0  0  0  0
 11 13  1  0  0  0  0
 11 14  1  0  0  0  0
 14 15  1  0  0  0  0
 14 16  1  0  0  0  0
 14 17  1  0  0  0  0
 17 18  1  0  0  0  0
 17 19  1  0  0  0  0
 17 20  1  0  0  0  0
 20 21  1  0  0  0  0
 20 22  1  0  0  0  0
 20 23  1  0  0  0  0
M  END
> <VConfSearch Rank>
355

> <Conf_Id>
92

> <Delta U+W>
0.973

> <U+W>
-7.409

> <U>
48.047

> <W>
-55.456

> <W(PB)>
-57.595

> <W(SA)>
2.138

> <Valence>
2.583

> <Coulomb>
44.791

> <VdW>
0.674

> <VdW6>
-5.789

> <VdW12>
6.462

> <Bond>
0.177

> <Angle>
0.787

> <Pdih>
1.619

> <Idih>
0.000

> <Tether>
0.000

$$$$
VeraChem MOL file


 23 22  0  0  0  0  0  0  0  0999 V2000     
   19.9083   16.0176   20.6664 N   0  3  0  0  0  0  0  0  0  0  0  0
   19.0572   15.5202   20.3831 H   0  0  0  0  0  0  0  0  0  0  0  0
   20.5791   15.3071   20.9764 H   0  0  0  0  0  0  0  0  0  0  0  0
   20.2958   16.4500   19.8216 H   0  0  0  0  0  0  0  0  0  0  0  0
   19.6285   17.0411   21.7481 C   0  0  0  0  0  0  0  0  0  0  0  0
   19.1928   16.5178   22.6035 H   0  0  0  0  0  0  0  0  0  0  0  0
   18.8869   17.7442   21.3604 H   0  0  0  0  0  0  0  0  0  0  0  0
   20.8886   17.8058   22.1957 C   0  0  0  0  0  0  0  0  0  0  0  0
   21.6417   17.0851   22.5410 H   0  0  0  0  0  0  0  0  0  0  0  0
   21.3267   18.3308   21.3363 H   0  0  0  0  0  0  0  0  0  0  0  0
   20.6030   18.8162   23.3317 C   0  0  0  0  0  0  0  0  0  0  0  0
   21.5555   19.2536   23.6617 H   0  0  0  0  0  0  0  0  0  0  0  0
   20.1886   18.2843   24.1995 H   0  0  0  0  0  0  0  0  0  0  0  0
   19.6414   19.9524   22.9075 C   0  0  0  0  0  0  0  0  0  0  0  0
   20.0426   20.4608   22.0198 H   0  0  0  0  0  0  0  0  0  0  0  0
   18.6676   19.5331   22.6213 H   0  0  0  0  0  0  0  0  0  0  0  0
   19.4357   20.9827   24.0402 C   0  0  0  0  0  0  0  0  0  0  0  0
   20.4037   21.4154   24.3292 H   0  0  0  0  0  0  0  0  0  0  0  0
   19.0350   20.4792   24.9313 H   0  0  0  0  0  0  0  0  0  0  0  0
   18.4755   22.1146   23.6166 C   0  0  0  0  0  0  0  0  0  0  0  0
   18.8662   22.6588   22.7469 H   0  0  0  0  0  0  0  0  0  0  0  0
   18.3424   22.8359   24.4333 H   0  0  0  0  0  0  0  0  0  0  0  0
   17.4866   21.7162   23.3546 H   0  0  0  0  0  0  0  0  0  0  0  0
  1  2  1  0  0  0  0
  1  3  1  0  0  0  0
  1  4  1  0  0  0  0
  1  5  1  0  0  0  0
  5  6  1  0  0  0  0
  5  7  1  0  0  0  0
  5  8  1  0  0  0  0
  8  9  1  0  0  0  0
  8 10  1  0  0  0  0
  8 11  1  0  0  0  0
 11 12  1  0  0  0  0
 11 13  1  0  0  0  0
 11 14  1  0  0  0  0
 14 15  1  0  0  0  0
 14 16  1  0  0  0  0
 14 17  1  0  0  0  0
 17 18  1  0  0  0  0
 17 19  1  0  0  0  0
 17 20  1  0  0  0  0
 20 21  1  0  0  0  0
 20 22  1  0  0  0  0
 20 23  1  0  0  0  0
M  END
> <VConfSearch Rank>
356

> <Conf_Id>
42

> <Delta U+W>
0.365

> <U+W>
-8.017

> <U>
47.375

> <W>
-55.392

> <W(PB)>
-57.543

> <W(SA)>
2.152

> <Valence>
2.032

> <Coulomb>
44.843

> <VdW>
0.499

> <VdW6>
-5.218

> <VdW12>
5.717

> <Bond>
0.135

> <Angle>
0.514

> <Pdih>
1.383

> <Idih>
0.000

> <Tether>
0.000

$$$$
VeraChem MOL file


 23 22  0  0  0  0  0  0  0  0999 V2000     
   19.9413   18.0817   19.5809 N   0  3  0  0  0  0  0  0  0  0  0  0
   18.9400   18.2252   19.4154 H   0  0  0  0  0  0  0  0  0  0  0  0
   20.2911   17.5008   18.8115 H   0  0  0  0  0  0  0  0  0  0  0  0
   20.3963   18.9956   19.4962 H   0  0  0  0  0  0  0  0  0  0  0  0
   20.2039   17.4441   20.9315 C   0  0  0  0  0  0  0  0  0  0  0  0
   21.2824   17.2973   21.0346 H   0  0  0  0  0  0  0  0  0  0  0  0
   19.7253   16.4610   20.9309 H   0  0  0  0  0  0  0  0  0  0  0  0
   19.6758   18.2668   22.1229 C   0  0  0  0  0  0  0  0  0  0  0  0
   18.5976   18.4365   22.0031 H   0  0  0  0  0  0  0  0  0  0  0  0
   19.8064   17.6644   23.0302 H   0  0  0  0  0  0  0  0  0  0  0  0
   20.4133   19.6175   22.2914 C   0  0  0  0  0  0  0  0  0  0  0  0
   20.3715   20.1768   21.3476 H   0  0  0  0  0  0  0  0  0  0  0  0
   21.4779   19.4287   22.4876 H   0  0  0  0  0  0  0  0  0  0  0  0
   19.8374   20.5255   23.4090 C   0  0  0  0  0  0  0  0  0  0  0  0
   20.4105   21.4630   23.4006 H   0  0  0  0  0  0  0  0  0  0  0  0
   18.8035   20.8099   23.1691 H   0  0  0  0  0  0  0  0  0  0  0  0
   19.9116   19.9285   24.8382 C   0  0  0  0  0  0  0  0  0  0  0  0
   20.1169   20.7427   25.5474 H   0  0  0  0  0  0  0  0  0  0  0  0
   20.7611   19.2363   24.9199 H   0  0  0  0  0  0  0  0  0  0  0  0
   18.6040   19.2307   25.2805 C   0  0  0  0  0  0  0  0  0  0  0  0
   17.7627   19.9359   25.2744 H   0  0  0  0  0  0  0  0  0  0  0  0
   18.7035   18.8408   26.3018 H   0  0  0  0  0  0  0  0  0  0  0  0
   18.3433   18.3901   24.6283 H   0  0  0  0  0  0  0  0  0  0  0  0
  1  2  1  0  0  0  0
  1  3  1  0  0  0  0
  1  4  1  0  0  0  0
  1  5  1  0  0  0  0
  5  6  1  0  0  0  0
  5  7  1  0  0  0  0
  5  8  1  0  0  0  0
  8  9  1  0  0  0  0
  8 10  1  0  0  0  0
  8 11  1  0  0  0  0
 11 12  1  0  0  0  0
 11 13  1  0  0  0  0
 11 14  1  0  0  0  0
 14 15  1  0  0  0  0
 14 16  1  0  0  0  0
 14 17  1  0  0  0  0
 17 18  1  0  0  0  0
 17 19  1  0  0  0  0
 17 20  1  0  0  0  0
 20 21  1  0  0  0  0
 20 22  1  0  0  0  0
 20 23  1  0  0  0  0
M  END
> <VConfSearch Rank>
357

> <Conf_Id>
3

> <Delta U+W>
3.283

> <U+W>
-5.099

> <U>
50.701

> <W>
-55.800

> <W(PB)>
-57.867

> <W(SA)>
2.067

> <Valence>
4.880

> <Coulomb>
45.095

> <VdW>
0.726

> <VdW6>
-6.620

> <VdW12>
7.346

> <Bond>
0.222

> <Angle>
1.260

> <Pdih>
3.398

> <Idih>
0.000

> <Tether>
0.000

$$$$
VeraChem MOL file


 23 22  0  0  0  0  0  0  0  0999 V2000     
   20.5840   16.7958   20.9412 N   0  3  0  0  0  0  0  0  0  0  0  0
   21.0801   16.0659   21.4625 H   0  0  0  0  0  0  0  0  0  0  0  0
   20.4841   16.4598   19.9774 H   0  0  0  0  0  0  0  0  0  0  0  0
   19.6409   16.8627   21.3359 H   0  0  0  0  0  0  0  0  0  0  0  0
   21.3114   18.1245   21.0022 C   0  0  0  0  0  0  0  0  0  0  0  0
   20.7495   18.8466   20.4045 H   0  0  0  0  0  0  0  0  0  0  0  0
   22.2910   17.9890   20.5358 H   0  0  0  0  0  0  0  0  0  0  0  0
   21.4981   18.6641   22.4351 C   0  0  0  0  0  0  0  0  0  0  0  0
   22.1076   17.9530   23.0085 H   0  0  0  0  0  0  0  0  0  0  0  0
   22.0785   19.5951   22.3881 H   0  0  0  0  0  0  0  0  0  0  0  0
   20.1719   18.9270   23.1925 C   0  0  0  0  0  0  0  0  0  0  0  0
   20.4212   19.2660   24.2064 H   0  0  0  0  0  0  0  0  0  0  0  0
   19.6169   17.9872   23.3124 H   0  0  0  0  0  0  0  0  0  0  0  0
   19.2728   19.9826   22.4998 C   0  0  0  0  0  0  0  0  0  0  0  0
   19.8201   20.9306   22.4056 H   0  0  0  0  0  0  0  0  0  0  0  0
   19.0429   19.6559   21.4772 H   0  0  0  0  0  0  0  0  0  0  0  0
   17.9343   20.2307   23.2369 C   0  0  0  0  0  0  0  0  0  0  0  0
   17.3772   19.2875   23.3245 H   0  0  0  0  0  0  0  0  0  0  0  0
   17.3132   20.8979   22.6229 H   0  0  0  0  0  0  0  0  0  0  0  0
   18.1086   20.8639   24.6362 C   0  0  0  0  0  0  0  0  0  0  0  0
   18.6917   21.7922   24.5799 H   0  0  0  0  0  0  0  0  0  0  0  0
   18.6151   20.1804   25.3287 H   0  0  0  0  0  0  0  0  0  0  0  0
   17.1309   21.1080   25.0714 H   0  0  0  0  0  0  0  0  0  0  0  0
  1  2  1  0  0  0  0
  1  3  1  0  0  0  0
  1  4  1  0  0  0  0
  1  5  1  0  0  0  0
  5  6  1  0  0  0  0
  5  7  1  0  0  0  0
  5  8  1  0  0  0  0
  8  9  1  0  0  0  0
  8 10  1  0  0  0  0
  8 11  1  0  0  0  0
 11 12  1  0  0  0  0
 11 13  1  0  0  0  0
 11 14  1  0  0  0  0
 14 15  1  0  0  0  0
 14 16  1  0  0  0  0
 14 17  1  0  0  0  0
 17 18  1  0  0  0  0
 17 19  1  0  0  0  0
 17 20  1  0  0  0  0
 20 21  1  0  0  0  0
 20 22  1  0  0  0  0
 20 23  1  0  0  0  0
M  END
> <VConfSearch Rank>
358

> <Conf_Id>
83

> <Delta U+W>
1.229

> <U+W>
-7.154

> <U>
48.727

> <W>
-55.880

> <W(PB)>
-57.960

> <W(SA)>
2.080

> <Valence>
2.671

> <Coulomb>
45.371

> <VdW>
0.684

> <VdW6>
-6.511

> <VdW12>
7.195

> <Bond>
0.203

> <Angle>
0.915

> <Pdih>
1.554

> <Idih>
0.000

> <Tether>
0.000

$$$$
VeraChem MOL file


 23 22  0  0  0  0  0  0  0  0999 V2000     
   20.1174   16.6799   20.9136 N   0  3  0  0  0  0  0  0  0  0  0  0
   19.7100   15.8253   21.3065 H   0  0  0  0  0  0  0  0  0  0  0  0
   20.8412   16.9982   21.5650 H   0  0  0  0  0  0  0  0  0  0  0  0
   20.5910   16.4132   20.0439 H   0  0  0  0  0  0  0  0  0  0  0  0
   19.0673   17.7478   20.6788 C   0  0  0  0  0  0  0  0  0  0  0  0
   18.3507   17.3555   19.9521 H   0  0  0  0  0  0  0  0  0  0  0  0
   19.5599   18.6156   20.2330 H   0  0  0  0  0  0  0  0  0  0  0  0
   18.3173   18.1719   21.9582 C   0  0  0  0  0  0  0  0  0  0  0  0
   17.5441   18.9031   21.6873 H   0  0  0  0  0  0  0  0  0  0  0  0
   17.7854   17.3021   22.3660 H   0  0  0  0  0  0  0  0  0  0  0  0
   19.2277   18.7756   23.0575 C   0  0  0  0  0  0  0  0  0  0  0  0
   19.9582   18.0267   23.3910 H   0  0  0  0  0  0  0  0  0  0  0  0
   18.6019   19.0017   23.9305 H   0  0  0  0  0  0  0  0  0  0  0  0
   19.9646   20.0607   22.6015 C   0  0  0  0  0  0  0  0  0  0  0  0
   20.5719   19.8412   21.7137 H   0  0  0  0  0  0  0  0  0  0  0  0
   19.2311   20.8189   22.2944 H   0  0  0  0  0  0  0  0  0  0  0  0
   20.8965   20.6540   23.6859 C   0  0  0  0  0  0  0  0  0  0  0  0
   21.4635   21.4861   23.2453 H   0  0  0  0  0  0  0  0  0  0  0  0
   21.6395   19.9033   23.9894 H   0  0  0  0  0  0  0  0  0  0  0  0
   20.1420   21.1726   24.9314 C   0  0  0  0  0  0  0  0  0  0  0  0
   19.3701   21.9009   24.6508 H   0  0  0  0  0  0  0  0  0  0  0  0
   20.8364   21.6691   25.6215 H   0  0  0  0  0  0  0  0  0  0  0  0
   19.6604   20.3549   25.4816 H   0  0  0  0  0  0  0  0  0  0  0  0
  1  2  1  0  0  0  0
  1  3  1  0  0  0  0
  1  4  1  0  0  0  0
  1  5  1  0  0  0  0
  5  6  1  0  0  0  0
  5  7  1  0  0  0  0
  5  8  1  0  0  0  0
  8  9  1  0  0  0  0
  8 10  1  0  0  0  0
  8 11  1  0  0  0  0
 11 12  1  0  0  0  0
 11 13  1  0  0  0  0
 11 14  1  0  0  0  0
 14 15  1  0  0  0  0
 14 16  1  0  0  0  0
 14 17  1  0  0  0  0
 17 18  1  0  0  0  0
 17 19  1  0  0  0  0
 17 20  1  0  0  0  0
 20 21  1  0  0  0  0
 20 22  1  0  0  0  0
 20 23  1  0  0  0  0
M  END
> <VConfSearch Rank>
359

> <Conf_Id>
50

> <Delta U+W>
1.252

> <U+W>
-7.130

> <U>
48.727

> <W>
-55.857

> <W(PB)>
-57.937

> <W(SA)>
2.080

> <Valence>
2.671

> <Coulomb>
45.371

> <VdW>
0.684

> <VdW6>
-6.511

> <VdW12>
7.196

> <Bond>
0.203

> <Angle>
0.915

> <Pdih>
1.554

> <Idih>
0.000

> <Tether>
0.000

$$$$
VeraChem MOL file


 23 22  0  0  0  0  0  0  0  0999 V2000     
   18.5179   19.0287   25.5458 N   0  3  0  0  0  0  0  0  0  0  0  0
   17.7989   19.5041   24.9920 H   0  0  0  0  0  0  0  0  0  0  0  0
   18.5056   19.4527   26.4796 H   0  0  0  0  0  0  0  0  0  0  0  0
   18.2205   18.0541   25.6563 H   0  0  0  0  0  0  0  0  0  0  0  0
   19.8857   19.1311   24.8993 C   0  0  0  0  0  0  0  0  0  0  0  0
   20.6032   18.6405   25.5626 H   0  0  0  0  0  0  0  0  0  0  0  0
   20.1516   20.1896   24.8334 H   0  0  0  0  0  0  0  0  0  0  0  0
   19.9625   18.4895   23.5002 C   0  0  0  0  0  0  0  0  0  0  0  0
   21.0062   18.5165   23.1678 H   0  0  0  0  0  0  0  0  0  0  0  0
   19.6896   17.4282   23.5708 H   0  0  0  0  0  0  0  0  0  0  0  0
   19.0514   19.1998   22.4667 C   0  0  0  0  0  0  0  0  0  0  0  0
   19.2524   20.2800   22.4581 H   0  0  0  0  0  0  0  0  0  0  0  0
   18.0070   19.0869   22.7869 H   0  0  0  0  0  0  0  0  0  0  0  0
   19.1821   18.6234   21.0326 C   0  0  0  0  0  0  0  0  0  0  0  0
   19.4551   17.5598   21.0720 H   0  0  0  0  0  0  0  0  0  0  0  0
   18.1913   18.6567   20.5586 H   0  0  0  0  0  0  0  0  0  0  0  0
   20.1644   19.3922   20.1121 C   0  0  0  0  0  0  0  0  0  0  0  0
   19.8249   20.4311   19.9973 H   0  0  0  0  0  0  0  0  0  0  0  0
   20.1226   18.9465   19.1084 H   0  0  0  0  0  0  0  0  0  0  0  0
   21.6307   19.3834   20.5967 C   0  0  0  0  0  0  0  0  0  0  0  0
   21.9823   18.3594   20.7773 H   0  0  0  0  0  0  0  0  0  0  0  0
   21.7487   19.9625   21.5208 H   0  0  0  0  0  0  0  0  0  0  0  0
   22.2868   19.8350   19.8414 H   0  0  0  0  0  0  0  0  0  0  0  0
  1  2  1  0  0  0  0
  1  3  1  0  0  0  0
  1  4  1  0  0  0  0
  1  5  1  0  0  0  0
  5  6  1  0  0  0  0
  5  7  1  0  0  0  0
  5  8  1  0  0  0  0
  8  9  1  0  0  0  0
  8 10  1  0  0  0  0
  8 11  1  0  0  0  0
 11 12  1  0  0  0  0
 11 13  1  0  0  0  0
 11 14  1  0  0  0  0
 14 15  1  0  0  0  0
 14 16  1  0  0  0  0
 14 17  1  0  0  0  0
 17 18  1  0  0  0  0
 17 19  1  0  0  0  0
 17 20  1  0  0  0  0
 20 21  1  0  0  0  0
 20 22  1  0  0  0  0
 20 23  1  0  0  0  0
M  END
> <VConfSearch Rank>
360

> <Conf_Id>
55

> <Delta U+W>
3.232

> <U+W>
-5.150

> <U>
50.625

> <W>
-55.776

> <W(PB)>
-57.839

> <W(SA)>
2.064

> <Valence>
4.837

> <Coulomb>
45.097

> <VdW>
0.692

> <VdW6>
-6.655

> <VdW12>
7.347

> <Bond>
0.223

> <Angle>
1.167

> <Pdih>
3.447

> <Idih>
0.000

> <Tether>
0.000

$$$$
VeraChem MOL file


 23 22  0  0  0  0  0  0  0  0999 V2000     
   20.5239   19.7958   19.6393 N   0  3  0  0  0  0  0  0  0  0  0  0
   21.4678   19.6972   19.2518 H   0  0  0  0  0  0  0  0  0  0  0  0
   20.1111   20.6302   19.2088 H   0  0  0  0  0  0  0  0  0  0  0  0
   19.9788   18.9913   19.3131 H   0  0  0  0  0  0  0  0  0  0  0  0
   20.5411   19.8920   21.1513 C   0  0  0  0  0  0  0  0  0  0  0  0
   19.5122   20.0311   21.4881 H   0  0  0  0  0  0  0  0  0  0  0  0
   21.1124   20.7832   21.4247 H   0  0  0  0  0  0  0  0  0  0  0  0
   21.1630   18.6539   21.8267 C   0  0  0  0  0  0  0  0  0  0  0  0
   20.6276   17.7441   21.5242 H   0  0  0  0  0  0  0  0  0  0  0  0
   22.1915   18.5455   21.4574 H   0  0  0  0  0  0  0  0  0  0  0  0
   21.2029   18.7599   23.3722 C   0  0  0  0  0  0  0  0  0  0  0  0
   21.4278   19.7926   23.6730 H   0  0  0  0  0  0  0  0  0  0  0  0
   22.0460   18.1551   23.7342 H   0  0  0  0  0  0  0  0  0  0  0  0
   19.9253   18.2601   24.0957 C   0  0  0  0  0  0  0  0  0  0  0  0
   19.7694   17.1961   23.8698 H   0  0  0  0  0  0  0  0  0  0  0  0
   20.1013   18.3184   25.1788 H   0  0  0  0  0  0  0  0  0  0  0  0
   18.6410   19.0502   23.7542 C   0  0  0  0  0  0  0  0  0  0  0  0
   18.3616   18.8753   22.7072 H   0  0  0  0  0  0  0  0  0  0  0  0
   18.8235   20.1279   23.8679 H   0  0  0  0  0  0  0  0  0  0  0  0
   17.4596   18.6333   24.6560 C   0  0  0  0  0  0  0  0  0  0  0  0
   17.6811   18.8282   25.7134 H   0  0  0  0  0  0  0  0  0  0  0  0
   17.2365   17.5641   24.5448 H   0  0  0  0  0  0  0  0  0  0  0  0
   16.5541   19.1954   24.3931 H   0  0  0  0  0  0  0  0  0  0  0  0
  1  2  1  0  0  0  0
  1  3  1  0  0  0  0
  1  4  1  0  0  0  0
  1  5  1  0  0  0  0
  5  6  1  0  0  0  0
  5  7  1  0  0  0  0
  5  8  1  0  0  0  0
  8  9  1  0  0  0  0
  8 10  1  0  0  0  0
  8 11  1  0  0  0  0
 11 12  1  0  0  0  0
 11 13  1  0  0  0  0
 11 14  1  0  0  0  0
 14 15  1  0  0  0  0
 14 16  1  0  0  0  0
 14 17  1  0  0  0  0
 17 18  1  0  0  0  0
 17 19  1  0  0  0  0
 17 20  1  0  0  0  0
 20 21  1  0  0  0  0
 20 22  1  0  0  0  0
 20 23  1  0  0  0  0
M  END
> <VConfSearch Rank>
361

> <Conf_Id>
93

> <Delta U+W>
2.589

> <U+W>
-5.793

> <U>
50.122

> <W>
-55.915

> <W(PB)>
-58.031

> <W(SA)>
2.115

> <Valence>
4.132

> <Coulomb>
45.536

> <VdW>
0.454

> <VdW6>
-6.262

> <VdW12>
6.715

> <Bond>
0.182

> <Angle>
1.157

> <Pdih>
2.794

> <Idih>
0.000

> <Tether>
0.000

$$$$
VeraChem MOL file


 23 22  0  0  0  0  0  0  0  0999 V2000     
   17.5102   17.7634   20.7097 N   0  3  0  0  0  0  0  0  0  0  0  0
   18.2221   17.6167   19.9868 H   0  0  0  0  0  0  0  0  0  0  0  0
   16.7875   18.3643   20.2990 H   0  0  0  0  0  0  0  0  0  0  0  0
   17.0732   16.8541   20.8911 H   0  0  0  0  0  0  0  0  0  0  0  0
   18.0981   18.3690   21.9680 C   0  0  0  0  0  0  0  0  0  0  0  0
   17.2823   18.5232   22.6794 H   0  0  0  0  0  0  0  0  0  0  0  0
   18.5107   19.3451   21.7069 H   0  0  0  0  0  0  0  0  0  0  0  0
   19.1832   17.4839   22.6123 C   0  0  0  0  0  0  0  0  0  0  0  0
   18.7312   16.5124   22.8530 H   0  0  0  0  0  0  0  0  0  0  0  0
   19.9881   17.2816   21.8932 H   0  0  0  0  0  0  0  0  0  0  0  0
   19.7697   18.0901   23.9123 C   0  0  0  0  0  0  0  0  0  0  0  0
   20.1167   17.2637   24.5481 H   0  0  0  0  0  0  0  0  0  0  0  0
   18.9771   18.5921   24.4845 H   0  0  0  0  0  0  0  0  0  0  0  0
   20.9676   19.0528   23.7031 C   0  0  0  0  0  0  0  0  0  0  0  0
   21.3375   19.3576   24.6919 H   0  0  0  0  0  0  0  0  0  0  0  0
   21.7938   18.5101   23.2234 H   0  0  0  0  0  0  0  0  0  0  0  0
   20.6397   20.3194   22.8793 C   0  0  0  0  0  0  0  0  0  0  0  0
   19.7425   20.8075   23.2849 H   0  0  0  0  0  0  0  0  0  0  0  0
   20.4189   20.0429   21.8402 H   0  0  0  0  0  0  0  0  0  0  0  0
   21.8139   21.3214   22.8842 C   0  0  0  0  0  0  0  0  0  0  0  0
   21.5687   22.2088   22.2864 H   0  0  0  0  0  0  0  0  0  0  0  0
   22.7200   20.8693   22.4601 H   0  0  0  0  0  0  0  0  0  0  0  0
   22.0440   21.6561   23.9041 H   0  0  0  0  0  0  0  0  0  0  0  0
  1  2  1  0  0  0  0
  1  3  1  0  0  0  0
  1  4  1  0  0  0  0
  1  5  1  0  0  0  0
  5  6  1  0  0  0  0
  5  7  1  0  0  0  0
  5  8  1  0  0  0  0
  8  9  1  0  0  0  0
  8 10  1  0  0  0  0
  8 11  1  0  0  0  0
 11 12  1  0  0  0  0
 11 13  1  0  0  0  0
 11 14  1  0  0  0  0
 14 15  1  0  0  0  0
 14 16  1  0  0  0  0
 14 17  1  0  0  0  0
 17 18  1  0  0  0  0
 17 19  1  0  0  0  0
 17 20  1  0  0  0  0
 20 21  1  0  0  0  0
 20 22  1  0  0  0  0
 20 23  1  0  0  0  0
M  END
> <VConfSearch Rank>
362

> <Conf_Id>
70

> <Delta U+W>
2.599

> <U+W>
-5.783

> <U>
50.122

> <W>
-55.906

> <W(PB)>
-58.010

> <W(SA)>
2.105

> <Valence>
4.132

> <Coulomb>
45.536

> <VdW>
0.454

> <VdW6>
-6.262

> <VdW12>
6.715

> <Bond>
0.182

> <Angle>
1.157

> <Pdih>
2.794

> <Idih>
0.000

> <Tether>
0.000

$$$$
VeraChem MOL file


 23 22  0  0  0  0  0  0  0  0999 V2000     
   18.2861   17.9548   24.7522 N   0  3  0  0  0  0  0  0  0  0  0  0
   18.5414   18.0495   25.7403 H   0  0  0  0  0  0  0  0  0  0  0  0
   17.5272   17.2667   24.7038 H   0  0  0  0  0  0  0  0  0  0  0  0
   17.8973   18.8538   24.4523 H   0  0  0  0  0  0  0  0  0  0  0  0
   19.4724   17.5466   23.9011 C   0  0  0  0  0  0  0  0  0  0  0  0
   19.1271   17.4306   22.8704 H   0  0  0  0  0  0  0  0  0  0  0  0
   19.8168   16.5713   24.2556 H   0  0  0  0  0  0  0  0  0  0  0  0
   20.6414   18.5510   23.9482 C   0  0  0  0  0  0  0  0  0  0  0  0
   21.0025   18.6333   24.9819 H   0  0  0  0  0  0  0  0  0  0  0  0
   21.4811   18.1445   23.3701 H   0  0  0  0  0  0  0  0  0  0  0  0
   20.2797   19.9644   23.4205 C   0  0  0  0  0  0  0  0  0  0  0  0
   21.1785   20.5955   23.4544 H   0  0  0  0  0  0  0  0  0  0  0  0
   19.5619   20.4341   24.1064 H   0  0  0  0  0  0  0  0  0  0  0  0
   19.6939   19.9954   21.9851 C   0  0  0  0  0  0  0  0  0  0  0  0
   18.7432   19.4467   21.9539 H   0  0  0  0  0  0  0  0  0  0  0  0
   19.4503   21.0368   21.7331 H   0  0  0  0  0  0  0  0  0  0  0  0
   20.6557   19.4315   20.9128 C   0  0  0  0  0  0  0  0  0  0  0  0
   20.8571   18.3693   21.1055 H   0  0  0  0  0  0  0  0  0  0  0  0
   21.6208   19.9542   20.9684 H   0  0  0  0  0  0  0  0  0  0  0  0
   20.0737   19.5808   19.4910 C   0  0  0  0  0  0  0  0  0  0  0  0
   20.7670   19.1738   18.7436 H   0  0  0  0  0  0  0  0  0  0  0  0
   19.8958   20.6359   19.2457 H   0  0  0  0  0  0  0  0  0  0  0  0
   19.1217   19.0424   19.3959 H   0  0  0  0  0  0  0  0  0  0  0  0
  1  2  1  0  0  0  0
  1  3  1  0  0  0  0
  1  4  1  0  0  0  0
  1  5  1  0  0  0  0
  5  6  1  0  0  0  0
  5  7  1  0  0  0  0
  5  8  1  0  0  0  0
  8  9  1  0  0  0  0
  8 10  1  0  0  0  0
  8 11  1  0  0  0  0
 11 12  1  0  0  0  0
 11 13  1  0  0  0  0
 11 14  1  0  0  0  0
 14 15  1  0  0  0  0
 14 16  1  0  0  0  0
 14 17  1  0  0  0  0
 17 18  1  0  0  0  0
 17 19  1  0  0  0  0
 17 20  1  0  0  0  0
 20 21  1  0  0  0  0
 20 22  1  0  0  0  0
 20 23  1  0  0  0  0
M  END
> <VConfSearch Rank>
363

> <Conf_Id>
72

> <Delta U+W>
1.051

> <U+W>
-7.331

> <U>
48.590

> <W>
-55.922

> <W(PB)>
-58.012

> <W(SA)>
2.090

> <Valence>
2.601

> <Coulomb>
45.520

> <VdW>
0.469

> <VdW6>
-6.867

> <VdW12>
7.336

> <Bond>
0.205

> <Angle>
0.962

> <Pdih>
1.434

> <Idih>
0.000

> <Tether>
0.000

$$$$
VeraChem MOL file


 23 22  0  0  0  0  0  0  0  0999 V2000     
   20.0924   21.6283   24.2289 N   0  3  0  0  0  0  0  0  0  0  0  0
   20.1140   22.6000   23.9012 H   0  0  0  0  0  0  0  0  0  0  0  0
   20.7274   21.5708   25.0315 H   0  0  0  0  0  0  0  0  0  0  0  0
   19.1455   21.4532   24.5803 H   0  0  0  0  0  0  0  0  0  0  0  0
   20.4779   20.6559   23.1328 C   0  0  0  0  0  0  0  0  0  0  0  0
   21.4815   20.9172   22.7867 H   0  0  0  0  0  0  0  0  0  0  0  0
   19.7808   20.7927   22.3020 H   0  0  0  0  0  0  0  0  0  0  0  0
   20.4551   19.1865   23.5933 C   0  0  0  0  0  0  0  0  0  0  0  0
   21.1300   19.0684   24.4513 H   0  0  0  0  0  0  0  0  0  0  0  0
   19.4513   18.9268   23.9530 H   0  0  0  0  0  0  0  0  0  0  0  0
   20.8886   18.2037   22.4774 C   0  0  0  0  0  0  0  0  0  0  0  0
   20.8725   17.1800   22.8744 H   0  0  0  0  0  0  0  0  0  0  0  0
   21.9371   18.4033   22.2166 H   0  0  0  0  0  0  0  0  0  0  0  0
   20.0352   18.2713   21.1820 C   0  0  0  0  0  0  0  0  0  0  0  0
   20.1846   19.2454   20.6970 H   0  0  0  0  0  0  0  0  0  0  0  0
   20.4180   17.5264   20.4709 H   0  0  0  0  0  0  0  0  0  0  0  0
   18.5158   18.0379   21.3804 C   0  0  0  0  0  0  0  0  0  0  0  0
   18.0183   18.1217   20.4041 H   0  0  0  0  0  0  0  0  0  0  0  0
   18.0877   18.8334   22.0049 H   0  0  0  0  0  0  0  0  0  0  0  0
   18.1823   16.6582   21.9916 C   0  0  0  0  0  0  0  0  0  0  0  0
   18.6115   15.8464   21.3901 H   0  0  0  0  0  0  0  0  0  0  0  0
   17.0958   16.5079   22.0320 H   0  0  0  0  0  0  0  0  0  0  0  0
   18.5668   16.5679   23.0151 H   0  0  0  0  0  0  0  0  0  0  0  0
  1  2  1  0  0  0  0
  1  3  1  0  0  0  0
  1  4  1  0  0  0  0
  1  5  1  0  0  0  0
  5  6  1  0  0  0  0
  5  7  1  0  0  0  0
  5  8  1  0  0  0  0
  8  9  1  0  0  0  0
  8 10  1  0  0  0  0
  8 11  1  0  0  0  0
 11 12  1  0  0  0  0
 11 13  1  0  0  0  0
 11 14  1  0  0  0  0
 14 15  1  0  0  0  0
 14 16  1  0  0  0  0
 14 17  1  0  0  0  0
 17 18  1  0  0  0  0
 17 19  1  0  0  0  0
 17 20  1  0  0  0  0
 20 21  1  0  0  0  0
 20 22  1  0  0  0  0
 20 23  1  0  0  0  0
M  END
> <VConfSearch Rank>
364

> <Conf_Id>
26

> <Delta U+W>
1.076

> <U+W>
-7.306

> <U>
48.641

> <W>
-55.947

> <W(PB)>
-58.031

> <W(SA)>
2.084

> <Valence>
2.922

> <Coulomb>
45.269

> <VdW>
0.449

> <VdW6>
-7.045

> <VdW12>
7.494

> <Bond>
0.220

> <Angle>
1.205

> <Pdih>
1.497

> <Idih>
0.000

> <Tether>
0.000

$$$$
VeraChem MOL file


 23 22  0  0  0  0  0  0  0  0999 V2000     
   18.5760   20.7408   24.9018 N   0  3  0  0  0  0  0  0  0  0  0  0
   19.2295   21.3851   25.3585 H   0  0  0  0  0  0  0  0  0  0  0  0
   17.8560   20.5069   25.5938 H   0  0  0  0  0  0  0  0  0  0  0  0
   18.1109   21.2635   24.1527 H   0  0  0  0  0  0  0  0  0  0  0  0
   19.2761   19.5034   24.3779 C   0  0  0  0  0  0  0  0  0  0  0  0
   18.5190   18.8518   23.9338 H   0  0  0  0  0  0  0  0  0  0  0  0
   19.7230   18.9821   25.2286 H   0  0  0  0  0  0  0  0  0  0  0  0
   20.3642   19.8208   23.3353 C   0  0  0  0  0  0  0  0  0  0  0  0
   19.9191   20.3558   22.4867 H   0  0  0  0  0  0  0  0  0  0  0  0
   21.0989   20.5052   23.7797 H   0  0  0  0  0  0  0  0  0  0  0  0
   21.1005   18.5533   22.8351 C   0  0  0  0  0  0  0  0  0  0  0  0
   21.6392   18.1000   23.6786 H   0  0  0  0  0  0  0  0  0  0  0  0
   21.8747   18.8487   22.1145 H   0  0  0  0  0  0  0  0  0  0  0  0
   20.1825   17.4754   22.1977 C   0  0  0  0  0  0  0  0  0  0  0  0
   20.8072   16.6345   21.8663 H   0  0  0  0  0  0  0  0  0  0  0  0
   19.5165   17.0621   22.9670 H   0  0  0  0  0  0  0  0  0  0  0  0
   19.3254   17.9627   21.0018 C   0  0  0  0  0  0  0  0  0  0  0  0
   18.6159   18.7333   21.3320 H   0  0  0  0  0  0  0  0  0  0  0  0
   18.7126   17.1231   20.6451 H   0  0  0  0  0  0  0  0  0  0  0  0
   20.1677   18.4997   19.8226 C   0  0  0  0  0  0  0  0  0  0  0  0
   20.7161   19.4082   20.1007 H   0  0  0  0  0  0  0  0  0  0  0  0
   19.5218   18.7509   18.9714 H   0  0  0  0  0  0  0  0  0  0  0  0
   20.8941   17.7499   19.4832 H   0  0  0  0  0  0  0  0  0  0  0  0
  1  2  1  0  0  0  0
  1  3  1  0  0  0  0
  1  4  1  0  0  0  0
  1  5  1  0  0  0  0
  5  6  1  0  0  0  0
  5  7  1  0  0  0  0
  5  8  1  0  0  0  0
  8  9  1  0  0  0  0
  8 10  1  0  0  0  0
  8 11  1  0  0  0  0
 11 12  1  0  0  0  0
 11 13  1  0  0  0  0
 11 14  1  0  0  0  0
 14 15  1  0  0  0  0
 14 16  1  0  0  0  0
 14 17  1  0  0  0  0
 17 18  1  0  0  0  0
 17 19  1  0  0  0  0
 17 20  1  0  0  0  0
 20 21  1  0  0  0  0
 20 22  1  0  0  0  0
 20 23  1  0  0  0  0
M  END
> <VConfSearch Rank>
365

> <Conf_Id>
90

> <Delta U+W>
1.131

> <U+W>
-7.251

> <U>
48.641

> <W>
-55.892

> <W(PB)>
-57.962

> <W(SA)>
2.070

> <Valence>
2.922

> <Coulomb>
45.269

> <VdW>
0.450

> <VdW6>
-7.045

> <VdW12>
7.495

> <Bond>
0.220

> <Angle>
1.205

> <Pdih>
1.497

> <Idih>
0.000

> <Tether>
0.000

$$$$
VeraChem MOL file


 23 22  0  0  0  0  0  0  0  0999 V2000     
   19.2053   16.3793   22.3379 N   0  3  0  0  0  0  0  0  0  0  0  0
   18.4501   15.7589   22.6488 H   0  0  0  0  0  0  0  0  0  0  0  0
   19.5793   16.8405   23.1728 H   0  0  0  0  0  0  0  0  0  0  0  0
   19.9483   15.7812   21.9627 H   0  0  0  0  0  0  0  0  0  0  0  0
   18.7214   17.3859   21.3128 C   0  0  0  0  0  0  0  0  0  0  0  0
   17.9132   17.9674   21.7640 H   0  0  0  0  0  0  0  0  0  0  0  0
   18.3070   16.8284   20.4684 H   0  0  0  0  0  0  0  0  0  0  0  0
   19.8268   18.3349   20.8064 C   0  0  0  0  0  0  0  0  0  0  0  0
   20.6101   17.7440   20.3134 H   0  0  0  0  0  0  0  0  0  0  0  0
   19.4029   18.9873   20.0315 H   0  0  0  0  0  0  0  0  0  0  0  0
   20.4649   19.2075   21.9163 C   0  0  0  0  0  0  0  0  0  0  0  0
   21.2457   19.8339   21.4634 H   0  0  0  0  0  0  0  0  0  0  0  0
   20.9741   18.5613   22.6424 H   0  0  0  0  0  0  0  0  0  0  0  0
   19.4387   20.1173   22.6379 C   0  0  0  0  0  0  0  0  0  0  0  0
   18.8807   20.6936   21.8870 H   0  0  0  0  0  0  0  0  0  0  0  0
   18.6989   19.5056   23.1712 H   0  0  0  0  0  0  0  0  0  0  0  0
   20.0901   21.1077   23.6331 C   0  0  0  0  0  0  0  0  0  0  0  0
   19.3131   21.7826   24.0185 H   0  0  0  0  0  0  0  0  0  0  0  0
   20.8146   21.7433   23.1051 H   0  0  0  0  0  0  0  0  0  0  0  0
   20.7820   20.4113   24.8270 C   0  0  0  0  0  0  0  0  0  0  0  0
   20.0849   19.7488   25.3561 H   0  0  0  0  0  0  0  0  0  0  0  0
   21.1480   21.1557   25.5459 H   0  0  0  0  0  0  0  0  0  0  0  0
   21.6442   19.8158   24.5022 H   0  0  0  0  0  0  0  0  0  0  0  0
  1  2  1  0  0  0  0
  1  3  1  0  0  0  0
  1  4  1  0  0  0  0
  1  5  1  0  0  0  0
  5  6  1  0  0  0  0
  5  7  1  0  0  0  0
  5  8  1  0  0  0  0
  8  9  1  0  0  0  0
  8 10  1  0  0  0  0
  8 11  1  0  0  0  0
 11 12  1  0  0  0  0
 11 13  1  0  0  0  0
 11 14  1  0  0  0  0
 14 15  1  0  0  0  0
 14 16  1  0  0  0  0
 14 17  1  0  0  0  0
 17 18  1  0  0  0  0
 17 19  1  0  0  0  0
 17 20  1  0  0  0  0
 20 21  1  0  0  0  0
 20 22  1  0  0  0  0
 20 23  1  0  0  0  0
M  END
> <VConfSearch Rank>
366

> <Conf_Id>
85

> <Delta U+W>
1.193

> <U+W>
-7.189

> <U>
48.775

> <W>
-55.965

> <W(PB)>
-58.038

> <W(SA)>
2.073

> <Valence>
2.602

> <Coulomb>
45.581

> <VdW>
0.592

> <VdW6>
-6.616

> <VdW12>
7.208

> <Bond>
0.196

> <Angle>
0.832

> <Pdih>
1.574

> <Idih>
0.000

> <Tether>
0.000

$$$$
VeraChem MOL file


 23 22  0  0  0  0  0  0  0  0999 V2000     
   20.0804   18.2268   20.6378 N   0  3  0  0  0  0  0  0  0  0  0  0
   19.9518   19.1478   21.0689 H   0  0  0  0  0  0  0  0  0  0  0  0
   19.4978   18.1983   19.7939 H   0  0  0  0  0  0  0  0  0  0  0  0
   21.0561   18.1669   20.3291 H   0  0  0  0  0  0  0  0  0  0  0  0
   19.7280   17.1115   21.6030 C   0  0  0  0  0  0  0  0  0  0  0  0
   19.8911   16.1684   21.0744 H   0  0  0  0  0  0  0  0  0  0  0  0
   18.6651   17.1833   21.8484 H   0  0  0  0  0  0  0  0  0  0  0  0
   20.5662   17.1144   22.8977 C   0  0  0  0  0  0  0  0  0  0  0  0
   20.5337   16.1006   23.3184 H   0  0  0  0  0  0  0  0  0  0  0  0
   21.6207   17.3036   22.6566 H   0  0  0  0  0  0  0  0  0  0  0  0
   20.0840   18.0990   23.9968 C   0  0  0  0  0  0  0  0  0  0  0  0
   20.7314   17.9555   24.8731 H   0  0  0  0  0  0  0  0  0  0  0  0
   19.0739   17.8235   24.3302 H   0  0  0  0  0  0  0  0  0  0  0  0
   20.1277   19.5993   23.6086 C   0  0  0  0  0  0  0  0  0  0  0  0
   20.4115   20.1812   24.4966 H   0  0  0  0  0  0  0  0  0  0  0  0
   20.9228   19.7775   22.8725 H   0  0  0  0  0  0  0  0  0  0  0  0
   18.7672   20.1379   23.1028 C   0  0  0  0  0  0  0  0  0  0  0  0
   18.0351   20.0986   23.9218 H   0  0  0  0  0  0  0  0  0  0  0  0
   18.3623   19.5031   22.3056 H   0  0  0  0  0  0  0  0  0  0  0  0
   18.8817   21.5907   22.5948 C   0  0  0  0  0  0  0  0  0  0  0  0
   19.2350   22.2593   23.3908 H   0  0  0  0  0  0  0  0  0  0  0  0
   17.9056   21.9603   22.2546 H   0  0  0  0  0  0  0  0  0  0  0  0
   19.5817   21.6644   21.7525 H   0  0  0  0  0  0  0  0  0  0  0  0
  1  2  1  0  0  0  0
  1  3  1  0  0  0  0
  1  4  1  0  0  0  0
  1  5  1  0  0  0  0
  5  6  1  0  0  0  0
  5  7  1  0  0  0  0
  5  8  1  0  0  0  0
  8  9  1  0  0  0  0
  8 10  1  0  0  0  0
  8 11  1  0  0  0  0
 11 12  1  0  0  0  0
 11 13  1  0  0  0  0
 11 14  1  0  0  0  0
 14 15  1  0  0  0  0
 14 16  1  0  0  0  0
 14 17  1  0  0  0  0
 17 18  1  0  0  0  0
 17 19  1  0  0  0  0
 17 20  1  0  0  0  0
 20 21  1  0  0  0  0
 20 22  1  0  0  0  0
 20 23  1  0  0  0  0
M  END
> <VConfSearch Rank>
367

> <Conf_Id>
82

> <Delta U+W>
5.994

> <U+W>
-2.388

> <U>
52.836

> <W>
-55.224

> <W(PB)>
-57.261

> <W(SA)>
2.037

> <Valence>
5.785

> <Coulomb>
46.744

> <VdW>
0.307

> <VdW6>
-7.672

> <VdW12>
7.979

> <Bond>
0.217

> <Angle>
1.470

> <Pdih>
4.098

> <Idih>
0.000

> <Tether>
0.000

$$$$
VeraChem MOL file


 23 22  0  0  0  0  0  0  0  0999 V2000     
   18.0940   19.0872   21.4871 N   0  3  0  0  0  0  0  0  0  0  0  0
   18.1637   19.1674   20.4675 H   0  0  0  0  0  0  0  0  0  0  0  0
   17.1395   18.7759   21.6977 H   0  0  0  0  0  0  0  0  0  0  0  0
   18.7323   18.3404   21.7797 H   0  0  0  0  0  0  0  0  0  0  0  0
   18.4240   20.3969   22.1766 C   0  0  0  0  0  0  0  0  0  0  0  0
   18.2716   20.2747   23.2522 H   0  0  0  0  0  0  0  0  0  0  0  0
   17.7064   21.1381   21.8144 H   0  0  0  0  0  0  0  0  0  0  0  0
   19.8541   20.9061   21.9044 C   0  0  0  0  0  0  0  0  0  0  0  0
   20.0955   20.7830   20.8402 H   0  0  0  0  0  0  0  0  0  0  0  0
   19.8638   21.9884   22.0892 H   0  0  0  0  0  0  0  0  0  0  0  0
   20.9634   20.2658   22.7817 C   0  0  0  0  0  0  0  0  0  0  0  0
   20.7891   20.5046   23.8400 H   0  0  0  0  0  0  0  0  0  0  0  0
   21.9115   20.7572   22.5225 H   0  0  0  0  0  0  0  0  0  0  0  0
   21.1507   18.7373   22.6029 C   0  0  0  0  0  0  0  0  0  0  0  0
   20.8641   18.4365   21.5865 H   0  0  0  0  0  0  0  0  0  0  0  0
   22.2213   18.5046   22.6891 H   0  0  0  0  0  0  0  0  0  0  0  0
   20.3962   17.9023   23.6662 C   0  0  0  0  0  0  0  0  0  0  0  0
   19.3421   18.1984   23.7265 H   0  0  0  0  0  0  0  0  0  0  0  0
   20.8247   18.1062   24.6576 H   0  0  0  0  0  0  0  0  0  0  0  0
   20.4893   16.3895   23.3753 C   0  0  0  0  0  0  0  0  0  0  0  0
   20.0403   16.1419   22.4048 H   0  0  0  0  0  0  0  0  0  0  0  0
   19.9621   15.8134   24.1468 H   0  0  0  0  0  0  0  0  0  0  0  0
   21.5349   16.0549   23.3622 H   0  0  0  0  0  0  0  0  0  0  0  0
  1  2  1  0  0  0  0
  1  3  1  0  0  0  0
  1  4  1  0  0  0  0
  1  5  1  0  0  0  0
  5  6  1  0  0  0  0
  5  7  1  0  0  0  0
  5  8  1  0  0  0  0
  8  9  1  0  0  0  0
  8 10  1  0  0  0  0
  8 11  1  0  0  0  0
 11 12  1  0  0  0  0
 11 13  1  0  0  0  0
 11 14  1  0  0  0  0
 14 15  1  0  0  0  0
 14 16  1  0  0  0  0
 14 17  1  0  0  0  0
 17 18  1  0  0  0  0
 17 19  1  0  0  0  0
 17 20  1  0  0  0  0
 20 21  1  0  0  0  0
 20 22  1  0  0  0  0
 20 23  1  0  0  0  0
M  END
> <VConfSearch Rank>
368

> <Conf_Id>
5

> <Delta U+W>
6.087

> <U+W>
-2.295

> <U>
52.836

> <W>
-55.131

> <W(PB)>
-57.202

> <W(SA)>
2.071

> <Valence>
5.785

> <Coulomb>
46.744

> <VdW>
0.307

> <VdW6>
-7.672

> <VdW12>
7.980

> <Bond>
0.217

> <Angle>
1.470

> <Pdih>
4.098

> <Idih>
0.000

> <Tether>
0.000

$$$$
VeraChem MOL file


 23 22  0  0  0  0  0  0  0  0999 V2000     
   16.5602   19.4216   20.5328 N   0  3  0  0  0  0  0  0  0  0  0  0
   16.2717   18.4386   20.5717 H   0  0  0  0  0  0  0  0  0  0  0  0
   16.2539   19.7862   19.6243 H   0  0  0  0  0  0  0  0  0  0  0  0
   16.0249   19.9215   21.2500 H   0  0  0  0  0  0  0  0  0  0  0  0
   18.0542   19.5808   20.7285 C   0  0  0  0  0  0  0  0  0  0  0  0
   18.2940   20.6444   20.6457 H   0  0  0  0  0  0  0  0  0  0  0  0
   18.5593   19.0505   19.9166 H   0  0  0  0  0  0  0  0  0  0  0  0
   18.5464   19.0427   22.0837 C   0  0  0  0  0  0  0  0  0  0  0  0
   18.0247   19.5667   22.8957 H   0  0  0  0  0  0  0  0  0  0  0  0
   18.2890   17.9785   22.1692 H   0  0  0  0  0  0  0  0  0  0  0  0
   20.0722   19.2235   22.2436 C   0  0  0  0  0  0  0  0  0  0  0  0
   20.3262   20.2888   22.1522 H   0  0  0  0  0  0  0  0  0  0  0  0
   20.5902   18.7022   21.4265 H   0  0  0  0  0  0  0  0  0  0  0  0
   20.5775   18.6863   23.6019 C   0  0  0  0  0  0  0  0  0  0  0  0
   20.0597   19.2075   24.4190 H   0  0  0  0  0  0  0  0  0  0  0  0
   20.3236   17.6211   23.6934 H   0  0  0  0  0  0  0  0  0  0  0  0
   22.1035   18.8671   23.7614 C   0  0  0  0  0  0  0  0  0  0  0  0
   22.3624   19.9316   23.6730 H   0  0  0  0  0  0  0  0  0  0  0  0
   22.6263   18.3453   22.9475 H   0  0  0  0  0  0  0  0  0  0  0  0
   22.6044   18.3296   25.1188 C   0  0  0  0  0  0  0  0  0  0  0  0
   23.6895   18.4667   25.2136 H   0  0  0  0  0  0  0  0  0  0  0  0
   22.3901   17.2578   25.2224 H   0  0  0  0  0  0  0  0  0  0  0  0
   22.1242   18.8565   25.9536 H   0  0  0  0  0  0  0  0  0  0  0  0
  1  2  1  0  0  0  0
  1  3  1  0  0  0  0
  1  4  1  0  0  0  0
  1  5  1  0  0  0  0
  5  6  1  0  0  0  0
  5  7  1  0  0  0  0
  5  8  1  0  0  0  0
  8  9  1  0  0  0  0
  8 10  1  0  0  0  0
  8 11  1  0  0  0  0
 11 12  1  0  0  0  0
 11 13  1  0  0  0  0
 11 14  1  0  0  0  0
 14 15  1  0  0  0  0
 14 16  1  0  0  0  0
 14 17  1  0  0  0  0
 17 18  1  0  0  0  0
 17 19  1  0  0  0  0
 17 20  1  0  0  0  0
 20 21  1  0  0  0  0
 20 22  1  0  0  0  0
 20 23  1  0  0  0  0
M  END
> <VConfSearch Rank>
369

> <Conf_Id>
40

> <Delta U+W>
0.000

> <U+W>
-8.382

> <U>
46.604

> <W>
-54.986

> <W(PB)>
-57.162

> <W(SA)>
2.176

> <Valence>
1.727

> <Coulomb>
44.434

> <VdW>
0.443

> <VdW6>
-4.623

> <VdW12>
5.066

> <Bond>
0.112

> <Angle>
0.386

> <Pdih>
1.228

> <Idih>
0.000

> <Tether>
0.000

$$$$
VeraChem MOL file


 23 22  0  0  0  0  0  0  0  0999 V2000     
   17.5596   16.9934   24.5626 N   0  3  0  0  0  0  0  0  0  0  0  0
   18.0182   16.7038   25.4325 H   0  0  0  0  0  0  0  0  0  0  0  0
   17.5537   16.1794   23.9395 H   0  0  0  0  0  0  0  0  0  0  0  0
   16.5818   17.1979   24.7951 H   0  0  0  0  0  0  0  0  0  0  0  0
   18.2489   18.1851   23.9297 C   0  0  0  0  0  0  0  0  0  0  0  0
   18.1932   19.0201   24.6333 H   0  0  0  0  0  0  0  0  0  0  0  0
   17.6909   18.4554   23.0296 H   0  0  0  0  0  0  0  0  0  0  0  0
   19.7209   17.9091   23.5688 C   0  0  0  0  0  0  0  0  0  0  0  0
   20.2573   17.5929   24.4734 H   0  0  0  0  0  0  0  0  0  0  0  0
   19.7774   17.0712   22.8612 H   0  0  0  0  0  0  0  0  0  0  0  0
   20.4341   19.1445   22.9700 C   0  0  0  0  0  0  0  0  0  0  0  0
   21.4977   18.9015   22.8487 H   0  0  0  0  0  0  0  0  0  0  0  0
   20.3844   19.9781   23.6842 H   0  0  0  0  0  0  0  0  0  0  0  0
   19.8431   19.5867   21.6070 C   0  0  0  0  0  0  0  0  0  0  0  0
   19.9121   18.7594   20.8873 H   0  0  0  0  0  0  0  0  0  0  0  0
   18.7736   19.8059   21.7240 H   0  0  0  0  0  0  0  0  0  0  0  0
   20.5293   20.8425   21.0165 C   0  0  0  0  0  0  0  0  0  0  0  0
   20.4541   21.6767   21.7281 H   0  0  0  0  0  0  0  0  0  0  0  0
   19.9782   21.1549   20.1183 H   0  0  0  0  0  0  0  0  0  0  0  0
   22.0101   20.6151   20.6359 C   0  0  0  0  0  0  0  0  0  0  0  0
   22.6298   20.4233   21.5205 H   0  0  0  0  0  0  0  0  0  0  0  0
   22.4181   21.5023   20.1346 H   0  0  0  0  0  0  0  0  0  0  0  0
   22.1155   19.7644   19.9502 H   0  0  0  0  0  0  0  0  0  0  0  0
  1  2  1  0  0  0  0
  1  3  1  0  0  0  0
  1  4  1  0  0  0  0
  1  5  1  0  0  0  0
  5  6  1  0  0  0  0
  5  7  1  0  0  0  0
  5  8  1  0  0  0  0
  8  9  1  0  0  0  0
  8 10  1  0  0  0  0
  8 11  1  0  0  0  0
 11 12  1  0  0  0  0
 11 13  1  0  0  0  0
 11 14  1  0  0  0  0
 14 15  1  0  0  0  0
 14 16  1  0  0  0  0
 14 17  1  0  0  0  0
 17 18  1  0  0  0  0
 17 19  1  0  0  0  0
 17 20  1  0  0  0  0
 20 21  1  0  0  0  0
 20 22  1  0  0  0  0
 20 23  1  0  0  0  0
M  END
> <VConfSearch Rank>
370

> <Conf_Id>
65

> <Delta U+W>
1.004

> <U+W>
-7.378

> <U>
48.047

> <W>
-55.425

> <W(PB)>
-57.542

> <W(SA)>
2.116

> <Valence>
2.583

> <Coulomb>
44.791

> <VdW>
0.673

> <VdW6>
-5.788

> <VdW12>
6.462

> <Bond>
0.177

> <Angle>
0.787

> <Pdih>
1.619

> <Idih>
0.000

> <Tether>
0.000

$$$$
VeraChem MOL file


 23 22  0  0  0  0  0  0  0  0999 V2000     
   21.9212   17.7287   25.1539 N   0  3  0  0  0  0  0  0  0  0  0  0
   22.3924   18.4951   25.6452 H   0  0  0  0  0  0  0  0  0  0  0  0
   22.6079   16.9737   25.0517 H   0  0  0  0  0  0  0  0  0  0  0  0
   21.1849   17.3795   25.7758 H   0  0  0  0  0  0  0  0  0  0  0  0
   21.3675   18.1713   23.8148 C   0  0  0  0  0  0  0  0  0  0  0  0
   20.9100   17.3010   23.3376 H   0  0  0  0  0  0  0  0  0  0  0  0
   22.2057   18.5025   23.1958 H   0  0  0  0  0  0  0  0  0  0  0  0
   20.3324   19.3059   23.9351 C   0  0  0  0  0  0  0  0  0  0  0  0
   19.4897   18.9733   24.5558 H   0  0  0  0  0  0  0  0  0  0  0  0
   20.7921   20.1548   24.4585 H   0  0  0  0  0  0  0  0  0  0  0  0
   19.8082   19.7886   22.5619 C   0  0  0  0  0  0  0  0  0  0  0  0
   20.6525   20.1298   21.9469 H   0  0  0  0  0  0  0  0  0  0  0  0
   19.1691   20.6656   22.7274 H   0  0  0  0  0  0  0  0  0  0  0  0
   19.0105   18.7006   21.7987 C   0  0  0  0  0  0  0  0  0  0  0  0
   19.6425   17.8144   21.6552 H   0  0  0  0  0  0  0  0  0  0  0  0
   18.1544   18.3747   22.4055 H   0  0  0  0  0  0  0  0  0  0  0  0
   18.5106   19.1645   20.4090 C   0  0  0  0  0  0  0  0  0  0  0  0
   18.0621   18.3049   19.8915 H   0  0  0  0  0  0  0  0  0  0  0  0
   19.3641   19.4819   19.7936 H   0  0  0  0  0  0  0  0  0  0  0  0
   17.4665   20.3024   20.4771 C   0  0  0  0  0  0  0  0  0  0  0  0
   17.9028   21.2280   20.8723 H   0  0  0  0  0  0  0  0  0  0  0  0
   16.6176   20.0220   21.1142 H   0  0  0  0  0  0  0  0  0  0  0  0
   17.0752   20.5246   19.4759 H   0  0  0  0  0  0  0  0  0  0  0  0
  1  2  1  0  0  0  0
  1  3  1  0  0  0  0
  1  4  1  0  0  0  0
  1  5  1  0  0  0  0
  5  6  1  0  0  0  0
  5  7  1  0  0  0  0
  5  8  1  0  0  0  0
  8  9  1  0  0  0  0
  8 10  1  0  0  0  0
  8 11  1  0  0  0  0
 11 12  1  0  0  0  0
 11 13  1  0  0  0  0
 11 14  1  0  0  0  0
 14 15  1  0  0  0  0
 14 16  1  0  0  0  0
 14 17  1  0  0  0  0
 17 18  1  0  0  0  0
 17 19  1  0  0  0  0
 17 20  1  0  0  0  0
 20 21  1  0  0  0  0
 20 22  1  0  0  0  0
 20 23  1  0  0  0  0
M  END
> <VConfSearch Rank>
371

> <Conf_Id>
92

> <Delta U+W>
0.973

> <U+W>
-7.409

> <U>
48.047

> <W>
-55.456

> <W(PB)>
-57.595

> <W(SA)>
2.138

> <Valence>
2.583

> <Coulomb>
44.791

> <VdW>
0.674

> <VdW6>
-5.789

> <VdW12>
6.462

> <Bond>
0.177

> <Angle>
0.787

> <Pdih>
1.619

> <Idih>
0.000

> <Tether>
0.000

$$$$
VeraChem MOL file


 23 22  0  0  0  0  0  0  0  0999 V2000     
   20.5204   15.6958   21.5219 N   0  3  0  0  0  0  0  0  0  0  0  0
   20.5880   15.4668   20.5244 H   0  0  0  0  0  0  0  0  0  0  0  0
   19.9979   14.9345   21.9673 H   0  0  0  0  0  0  0  0  0  0  0  0
   21.4732   15.6684   21.8991 H   0  0  0  0  0  0  0  0  0  0  0  0
   19.8614   17.0414   21.7474 C   0  0  0  0  0  0  0  0  0  0  0  0
   18.8654   17.0091   21.2974 H   0  0  0  0  0  0  0  0  0  0  0  0
   20.4522   17.7961   21.2220 H   0  0  0  0  0  0  0  0  0  0  0  0
   19.7449   17.4142   23.2374 C   0  0  0  0  0  0  0  0  0  0  0  0
   19.1878   16.6263   23.7617 H   0  0  0  0  0  0  0  0  0  0  0  0
   20.7452   17.4457   23.6895 H   0  0  0  0  0  0  0  0  0  0  0  0
   19.0302   18.7678   23.4612 C   0  0  0  0  0  0  0  0  0  0  0  0
   18.9005   18.9231   24.5412 H   0  0  0  0  0  0  0  0  0  0  0  0
   18.0202   18.7244   23.0303 H   0  0  0  0  0  0  0  0  0  0  0  0
   19.8019   19.9689   22.8636 C   0  0  0  0  0  0  0  0  0  0  0  0
   20.8220   19.9898   23.2716 H   0  0  0  0  0  0  0  0  0  0  0  0
   19.8965   19.8510   21.7758 H   0  0  0  0  0  0  0  0  0  0  0  0
   19.0994   21.3108   23.1679 C   0  0  0  0  0  0  0  0  0  0  0  0
   19.0068   21.4436   24.2550 H   0  0  0  0  0  0  0  0  0  0  0  0
   18.0780   21.2952   22.7624 H   0  0  0  0  0  0  0  0  0  0  0  0
   19.8691   22.5079   22.5703 C   0  0  0  0  0  0  0  0  0  0  0  0
   20.8847   22.5698   22.9827 H   0  0  0  0  0  0  0  0  0  0  0  0
   19.3555   23.4512   22.7971 H   0  0  0  0  0  0  0  0  0  0  0  0
   19.9481   22.4214   21.4787 H   0  0  0  0  0  0  0  0  0  0  0  0
  1  2  1  0  0  0  0
  1  3  1  0  0  0  0
  1  4  1  0  0  0  0
  1  5  1  0  0  0  0
  5  6  1  0  0  0  0
  5  7  1  0  0  0  0
  5  8  1  0  0  0  0
  8  9  1  0  0  0  0
  8 10  1  0  0  0  0
  8 11  1  0  0  0  0
 11 12  1  0  0  0  0
 11 13  1  0  0  0  0
 11 14  1  0  0  0  0
 14 15  1  0  0  0  0
 14 16  1  0  0  0  0
 14 17  1  0  0  0  0
 17 18  1  0  0  0  0
 17 19  1  0  0  0  0
 17 20  1  0  0  0  0
 20 21  1  0  0  0  0
 20 22  1  0  0  0  0
 20 23  1  0  0  0  0
M  END
> <VConfSearch Rank>
372

> <Conf_Id>
42

> <Delta U+W>
0.365

> <U+W>
-8.017

> <U>
47.375

> <W>
-55.392

> <W(PB)>
-57.543

> <W(SA)>
2.152

> <Valence>
2.032

> <Coulomb>
44.843

> <VdW>
0.499

> <VdW6>
-5.218

> <VdW12>
5.717

> <Bond>
0.135

> <Angle>
0.514

> <Pdih>
1.383

> <Idih>
0.000

> <Tether>
0.000

$$$$
VeraChem MOL file


 23 22  0  0  0  0  0  0  0  0999 V2000     
   17.0104   18.4721   24.1321 N   0  3  0  0  0  0  0  0  0  0  0  0
   16.5869   18.0007   23.3265 H   0  0  0  0  0  0  0  0  0  0  0  0
   16.2452   18.7257   24.7662 H   0  0  0  0  0  0  0  0  0  0  0  0
   17.5860   17.7794   24.6202 H   0  0  0  0  0  0  0  0  0  0  0  0
   17.8199   19.6845   23.7144 C   0  0  0  0  0  0  0  0  0  0  0  0
   18.2221   20.1525   24.6169 H   0  0  0  0  0  0  0  0  0  0  0  0
   17.1339   20.3921   23.2410 H   0  0  0  0  0  0  0  0  0  0  0  0
   18.9700   19.3612   22.7407 C   0  0  0  0  0  0  0  0  0  0  0  0
   18.5669   18.8663   21.8472 H   0  0  0  0  0  0  0  0  0  0  0  0
   19.4069   20.3117   22.4108 H   0  0  0  0  0  0  0  0  0  0  0  0
   20.0715   18.4849   23.3853 C   0  0  0  0  0  0  0  0  0  0  0  0
   19.6170   17.5796   23.8086 H   0  0  0  0  0  0  0  0  0  0  0  0
   20.5186   19.0260   24.2306 H   0  0  0  0  0  0  0  0  0  0  0  0
   21.1910   18.0431   22.4072 C   0  0  0  0  0  0  0  0  0  0  0  0
   21.8814   17.3964   22.9665 H   0  0  0  0  0  0  0  0  0  0  0  0
   20.7710   17.4095   21.6139 H   0  0  0  0  0  0  0  0  0  0  0  0
   22.0127   19.2034   21.7884 C   0  0  0  0  0  0  0  0  0  0  0  0
   23.0572   18.8770   21.6861 H   0  0  0  0  0  0  0  0  0  0  0  0
   22.0315   20.0649   22.4703 H   0  0  0  0  0  0  0  0  0  0  0  0
   21.5098   19.6341   20.3906 C   0  0  0  0  0  0  0  0  0  0  0  0
   21.5591   18.7972   19.6819 H   0  0  0  0  0  0  0  0  0  0  0  0
   22.1331   20.4447   19.9914 H   0  0  0  0  0  0  0  0  0  0  0  0
   20.4751   19.9929   20.4162 H   0  0  0  0  0  0  0  0  0  0  0  0
  1  2  1  0  0  0  0
  1  3  1  0  0  0  0
  1  4  1  0  0  0  0
  1  5  1  0  0  0  0
  5  6  1  0  0  0  0
  5  7  1  0  0  0  0
  5  8  1  0  0  0  0
  8  9  1  0  0  0  0
  8 10  1  0  0  0  0
  8 11  1  0  0  0  0
 11 12  1  0  0  0  0
 11 13  1  0  0  0  0
 11 14  1  0  0  0  0
 14 15  1  0  0  0  0
 14 16  1  0  0  0  0
 14 17  1  0  0  0  0
 17 18  1  0  0  0  0
 17 19  1  0  0  0  0
 17 20  1  0  0  0  0
 20 21  1  0  0  0  0
 20 22  1  0  0  0  0
 20 23  1  0  0  0  0
M  END
> <VConfSearch Rank>
373

> <Conf_Id>
3

> <Delta U+W>
3.283

> <U+W>
-5.099

> <U>
50.701

> <W>
-55.800

> <W(PB)>
-57.867

> <W(SA)>
2.067

> <Valence>
4.880

> <Coulomb>
45.095

> <VdW>
0.726

> <VdW6>
-6.620

> <VdW12>
7.346

> <Bond>
0.222

> <Angle>
1.260

> <Pdih>
3.398

> <Idih>
0.000

> <Tether>
0.000

$$$$
VeraChem MOL file


 23 22  0  0  0  0  0  0  0  0999 V2000     
   17.9530   19.6397   24.7546 N   0  3  0  0  0  0  0  0  0  0  0  0
   18.1799   20.4976   25.2677 H   0  0  0  0  0  0  0  0  0  0  0  0
   17.0894   19.2665   25.1629 H   0  0  0  0  0  0  0  0  0  0  0  0
   17.7374   19.9109   23.7905 H   0  0  0  0  0  0  0  0  0  0  0  0
   19.0848   18.6328   24.8128 C   0  0  0  0  0  0  0  0  0  0  0  0
   18.7680   17.7350   24.2761 H   0  0  0  0  0  0  0  0  0  0  0  0
   19.2370   18.3637   25.8616 H   0  0  0  0  0  0  0  0  0  0  0  0
   20.4105   19.1552   24.2219 C   0  0  0  0  0  0  0  0  0  0  0  0
   20.7428   20.0256   24.8031 H   0  0  0  0  0  0  0  0  0  0  0  0
   21.1828   18.3861   24.3552 H   0  0  0  0  0  0  0  0  0  0  0  0
   20.3290   19.5423   22.7236 C   0  0  0  0  0  0  0  0  0  0  0  0
   21.3078   19.9363   22.4208 H   0  0  0  0  0  0  0  0  0  0  0  0
   19.6136   20.3642   22.5879 H   0  0  0  0  0  0  0  0  0  0  0  0
   19.9428   18.3539   21.8065 C   0  0  0  0  0  0  0  0  0  0  0  0
   20.6753   17.5433   21.9229 H   0  0  0  0  0  0  0  0  0  0  0  0
   18.9752   17.9436   22.1239 H   0  0  0  0  0  0  0  0  0  0  0  0
   19.8336   18.7397   20.3113 C   0  0  0  0  0  0  0  0  0  0  0  0
   19.0940   19.5431   20.1873 H   0  0  0  0  0  0  0  0  0  0  0  0
   19.4452   17.8765   19.7529 H   0  0  0  0  0  0  0  0  0  0  0  0
   21.1796   19.1705   19.6853 C   0  0  0  0  0  0  0  0  0  0  0  0
   21.9460   18.3972   19.8255 H   0  0  0  0  0  0  0  0  0  0  0  0
   21.5491   20.1051   20.1250 H   0  0  0  0  0  0  0  0  0  0  0  0
   21.0651   19.3373   18.6064 H   0  0  0  0  0  0  0  0  0  0  0  0
  1  2  1  0  0  0  0
  1  3  1  0  0  0  0
  1  4  1  0  0  0  0
  1  5  1  0  0  0  0
  5  6  1  0  0  0  0
  5  7  1  0  0  0  0
  5  8  1  0  0  0  0
  8  9  1  0  0  0  0
  8 10  1  0  0  0  0
  8 11  1  0  0  0  0
 11 12  1  0  0  0  0
 11 13  1  0  0  0  0
 11 14  1  0  0  0  0
 14 15  1  0  0  0  0
 14 16  1  0  0  0  0
 14 17  1  0  0  0  0
 17 18  1  0  0  0  0
 17 19  1  0  0  0  0
 17 20  1  0  0  0  0
 20 21  1  0  0  0  0
 20 22  1  0  0  0  0
 20 23  1  0  0  0  0
M  END
> <VConfSearch Rank>
374

> <Conf_Id>
83

> <Delta U+W>
1.229

> <U+W>
-7.154

> <U>
48.727

> <W>
-55.880

> <W(PB)>
-57.960

> <W(SA)>
2.080

> <Valence>
2.671

> <Coulomb>
45.371

> <VdW>
0.684

> <VdW6>
-6.511

> <VdW12>
7.195

> <Bond>
0.203

> <Angle>
0.915

> <Pdih>
1.554

> <Idih>
0.000

> <Tether>
0.000

$$$$
VeraChem MOL file


 23 22  0  0  0  0  0  0  0  0999 V2000     
   21.3832   16.7057   22.0577 N   0  3  0  0  0  0  0  0  0  0  0  0
   22.3782   16.9304   21.9569 H   0  0  0  0  0  0  0  0  0  0  0  0
   20.8862   17.1821   21.2990 H   0  0  0  0  0  0  0  0  0  0  0  0
   21.2860   15.6977   21.8953 H   0  0  0  0  0  0  0  0  0  0  0  0
   20.8494   17.1113   23.4174 C   0  0  0  0  0  0  0  0  0  0  0  0
   21.3978   16.5426   24.1732 H   0  0  0  0  0  0  0  0  0  0  0  0
   19.7980   16.8176   23.4704 H   0  0  0  0  0  0  0  0  0  0  0  0
   20.9869   18.6190   23.7131 C   0  0  0  0  0  0  0  0  0  0  0  0
   20.6282   18.8121   24.7328 H   0  0  0  0  0  0  0  0  0  0  0  0
   22.0513   18.8889   23.7076 H   0  0  0  0  0  0  0  0  0  0  0  0
   20.2229   19.5328   22.7217 C   0  0  0  0  0  0  0  0  0  0  0  0
   20.6251   19.4038   21.7081 H   0  0  0  0  0  0  0  0  0  0  0  0
   20.4221   20.5761   22.9989 H   0  0  0  0  0  0  0  0  0  0  0  0
   18.6934   19.2816   22.7152 C   0  0  0  0  0  0  0  0  0  0  0  0
   18.4941   18.2321   22.4618 H   0  0  0  0  0  0  0  0  0  0  0  0
   18.2882   19.4382   23.7243 H   0  0  0  0  0  0  0  0  0  0  0  0
   17.9272   20.1726   21.7075 C   0  0  0  0  0  0  0  0  0  0  0  0
   16.8764   19.8515   21.6825 H   0  0  0  0  0  0  0  0  0  0  0  0
   18.3212   20.0122   20.6942 H   0  0  0  0  0  0  0  0  0  0  0  0
   17.9774   21.6785   22.0529 C   0  0  0  0  0  0  0  0  0  0  0  0
   17.6193   21.8616   23.0743 H   0  0  0  0  0  0  0  0  0  0  0  0
   17.3403   22.2511   21.3665 H   0  0  0  0  0  0  0  0  0  0  0  0
   18.9951   22.0788   21.9678 H   0  0  0  0  0  0  0  0  0  0  0  0
  1  2  1  0  0  0  0
  1  3  1  0  0  0  0
  1  4  1  0  0  0  0
  1  5  1  0  0  0  0
  5  6  1  0  0  0  0
  5  7  1  0  0  0  0
  5  8  1  0  0  0  0
  8  9  1  0  0  0  0
  8 10  1  0  0  0  0
  8 11  1  0  0  0  0
 11 12  1  0  0  0  0
 11 13  1  0  0  0  0
 11 14  1  0  0  0  0
 14 15  1  0  0  0  0
 14 16  1  0  0  0  0
 14 17  1  0  0  0  0
 17 18  1  0  0  0  0
 17 19  1  0  0  0  0
 17 20  1  0  0  0  0
 20 21  1  0  0  0  0
 20 22  1  0  0  0  0
 20 23  1  0  0  0  0
M  END
> <VConfSearch Rank>
375

> <Conf_Id>
50

> <Delta U+W>
1.252

> <U+W>
-7.130

> <U>
48.727

> <W>
-55.857

> <W(PB)>
-57.937

> <W(SA)>
2.080

> <Valence>
2.671

> <Coulomb>
45.371

> <VdW>
0.684

> <VdW6>
-6.511

> <VdW12>
7.196

> <Bond>
0.203

> <Angle>
0.915

> <Pdih>
1.554

> <Idih>
0.000

> <Tether>
0.000

$$$$
VeraChem MOL file


 23 22  0  0  0  0  0  0  0  0999 V2000     
   17.4233   21.0888   23.2185 N   0  3  0  0  0  0  0  0  0  0  0  0
   18.2126   21.5179   23.7108 H   0  0  0  0  0  0  0  0  0  0  0  0
   16.5817   21.2901   23.7692 H   0  0  0  0  0  0  0  0  0  0  0  0
   17.3200   21.5800   22.3248 H   0  0  0  0  0  0  0  0  0  0  0  0
   17.6248   19.5987   23.0230 C   0  0  0  0  0  0  0  0  0  0  0  0
   16.7307   19.2052   22.5317 H   0  0  0  0  0  0  0  0  0  0  0  0
   17.7032   19.1345   24.0098 H   0  0  0  0  0  0  0  0  0  0  0  0
   18.8670   19.2435   22.1830 C   0  0  0  0  0  0  0  0  0  0  0  0
   18.8637   18.1620   22.0069 H   0  0  0  0  0  0  0  0  0  0  0  0
   18.7860   19.7161   21.1952 H   0  0  0  0  0  0  0  0  0  0  0  0
   20.1914   19.6722   22.8648 C   0  0  0  0  0  0  0  0  0  0  0  0
   20.2376   19.2813   23.8907 H   0  0  0  0  0  0  0  0  0  0  0  0
   20.1987   20.7666   22.9553 H   0  0  0  0  0  0  0  0  0  0  0  0
   21.4563   19.2441   22.0756 C   0  0  0  0  0  0  0  0  0  0  0  0
   21.2369   19.1953   21.0001 H   0  0  0  0  0  0  0  0  0  0  0  0
   22.2128   20.0333   22.1872 H   0  0  0  0  0  0  0  0  0  0  0  0
   22.0973   17.9148   22.5500 C   0  0  0  0  0  0  0  0  0  0  0  0
   22.4062   18.0092   23.6005 H   0  0  0  0  0  0  0  0  0  0  0  0
   23.0196   17.7483   21.9761 H   0  0  0  0  0  0  0  0  0  0  0  0
   21.1869   16.6771   22.3934 C   0  0  0  0  0  0  0  0  0  0  0  0
   20.8133   16.5876   21.3652 H   0  0  0  0  0  0  0  0  0  0  0  0
   20.3289   16.7245   23.0752 H   0  0  0  0  0  0  0  0  0  0  0  0
   21.7424   15.7603   22.6296 H   0  0  0  0  0  0  0  0  0  0  0  0
  1  2  1  0  0  0  0
  1  3  1  0  0  0  0
  1  4  1  0  0  0  0
  1  5  1  0  0  0  0
  5  6  1  0  0  0  0
  5  7  1  0  0  0  0
  5  8  1  0  0  0  0
  8  9  1  0  0  0  0
  8 10  1  0  0  0  0
  8 11  1  0  0  0  0
 11 12  1  0  0  0  0
 11 13  1  0  0  0  0
 11 14  1  0  0  0  0
 14 15  1  0  0  0  0
 14 16  1  0  0  0  0
 14 17  1  0  0  0  0
 17 18  1  0  0  0  0
 17 19  1  0  0  0  0
 17 20  1  0  0  0  0
 20 21  1  0  0  0  0
 20 22  1  0  0  0  0
 20 23  1  0  0  0  0
M  END
> <VConfSearch Rank>
376

> <Conf_Id>
55

> <Delta U+W>
3.232

> <U+W>
-5.150

> <U>
50.625

> <W>
-55.776

> <W(PB)>
-57.839

> <W(SA)>
2.064

> <Valence>
4.837

> <Coulomb>
45.097

> <VdW>
0.692

> <VdW6>
-6.655

> <VdW12>
7.347

> <Bond>
0.223

> <Angle>
1.167

> <Pdih>
3.447

> <Idih>
0.000

> <Tether>
0.000

$$$$
VeraChem MOL file


 23 22  0  0  0  0  0  0  0  0999 V2000     
   19.2534   20.9571   24.9981 N   0  3  0  0  0  0  0  0  0  0  0  0
   18.4062   20.8747   25.5694 H   0  0  0  0  0  0  0  0  0  0  0  0
   19.4695   21.9573   24.9288 H   0  0  0  0  0  0  0  0  0  0  0  0
   20.0168   20.5231   25.5269 H   0  0  0  0  0  0  0  0  0  0  0  0
   19.0783   20.3228   23.6333 C   0  0  0  0  0  0  0  0  0  0  0  0
   20.0010   20.4802   23.0718 H   0  0  0  0  0  0  0  0  0  0  0  0
   18.2717   20.8513   23.1181 H   0  0  0  0  0  0  0  0  0  0  0  0
   18.7454   18.8196   23.7059 C   0  0  0  0  0  0  0  0  0  0  0  0
   19.5250   18.2818   24.2618 H   0  0  0  0  0  0  0  0  0  0  0  0
   17.8179   18.7039   24.2824 H   0  0  0  0  0  0  0  0  0  0  0  0
   18.5430   18.1734   22.3120 C   0  0  0  0  0  0  0  0  0  0  0  0
   18.0298   18.8771   21.6419 H   0  0  0  0  0  0  0  0  0  0  0  0
   17.8592   17.3209   22.4270 H   0  0  0  0  0  0  0  0  0  0  0  0
   19.8379   17.6460   21.6409 C   0  0  0  0  0  0  0  0  0  0  0  0
   20.2864   16.8670   22.2727 H   0  0  0  0  0  0  0  0  0  0  0  0
   19.5580   17.1512   20.7005 H   0  0  0  0  0  0  0  0  0  0  0  0
   20.8954   18.7328   21.3388 C   0  0  0  0  0  0  0  0  0  0  0  0
   21.3020   19.1301   22.2779 H   0  0  0  0  0  0  0  0  0  0  0  0
   20.4276   19.5716   20.8047 H   0  0  0  0  0  0  0  0  0  0  0  0
   22.0605   18.1742   20.4943 C   0  0  0  0  0  0  0  0  0  0  0  0
   21.7032   17.8003   19.5259 H   0  0  0  0  0  0  0  0  0  0  0  0
   22.5647   17.3493   21.0144 H   0  0  0  0  0  0  0  0  0  0  0  0
   22.8066   18.9552   20.2986 H   0  0  0  0  0  0  0  0  0  0  0  0
  1  2  1  0  0  0  0
  1  3  1  0  0  0  0
  1  4  1  0  0  0  0
  1  5  1  0  0  0  0
  5  6  1  0  0  0  0
  5  7  1  0  0  0  0
  5  8  1  0  0  0  0
  8  9  1  0  0  0  0
  8 10  1  0  0  0  0
  8 11  1  0  0  0  0
 11 12  1  0  0  0  0
 11 13  1  0  0  0  0
 11 14  1  0  0  0  0
 14 15  1  0  0  0  0
 14 16  1  0  0  0  0
 14 17  1  0  0  0  0
 17 18  1  0  0  0  0
 17 19  1  0  0  0  0
 17 20  1  0  0  0  0
 20 21  1  0  0  0  0
 20 22  1  0  0  0  0
 20 23  1  0  0  0  0
M  END
> <VConfSearch Rank>
377

> <Conf_Id>
93

> <Delta U+W>
2.589

> <U+W>
-5.793

> <U>
50.122

> <W>
-55.915

> <W(PB)>
-58.031

> <W(SA)>
2.115

> <Valence>
4.132

> <Coulomb>
45.536

> <VdW>
0.454

> <VdW6>
-6.262

> <VdW12>
6.715

> <Bond>
0.182

> <Angle>
1.157

> <Pdih>
2.794

> <Idih>
0.000

> <Tether>
0.000

$$$$
VeraChem MOL file


 23 22  0  0  0  0  0  0  0  0999 V2000     
   20.7096   17.2732   20.1526 N   0  3  0  0  0  0  0  0  0  0  0  0
   20.8875   18.1401   19.6353 H   0  0  0  0  0  0  0  0  0  0  0  0
   20.0504   16.7217   19.5929 H   0  0  0  0  0  0  0  0  0  0  0  0
   21.5907   16.7498   20.1756 H   0  0  0  0  0  0  0  0  0  0  0  0
   20.1770   17.5443   21.5449 C   0  0  0  0  0  0  0  0  0  0  0  0
   19.9841   16.5808   22.0243 H   0  0  0  0  0  0  0  0  0  0  0  0
   19.2255   18.0691   21.4415 H   0  0  0  0  0  0  0  0  0  0  0  0
   21.1502   18.3660   22.4128 C   0  0  0  0  0  0  0  0  0  0  0  0
   22.0938   17.8090   22.4864 H   0  0  0  0  0  0  0  0  0  0  0  0
   21.3900   19.3182   21.9212 H   0  0  0  0  0  0  0  0  0  0  0  0
   20.6179   18.6249   23.8449 C   0  0  0  0  0  0  0  0  0  0  0  0
   21.4815   18.7418   24.5143 H   0  0  0  0  0  0  0  0  0  0  0  0
   20.0764   17.7413   24.2107 H   0  0  0  0  0  0  0  0  0  0  0  0
   19.7354   19.8913   23.9961 C   0  0  0  0  0  0  0  0  0  0  0  0
   19.4810   20.0054   25.0590 H   0  0  0  0  0  0  0  0  0  0  0  0
   20.3220   20.7804   23.7267 H   0  0  0  0  0  0  0  0  0  0  0  0
   18.4294   19.8688   23.1688 C   0  0  0  0  0  0  0  0  0  0  0  0
   17.8906   18.9276   23.3460 H   0  0  0  0  0  0  0  0  0  0  0  0
   18.6646   19.9133   22.0975 H   0  0  0  0  0  0  0  0  0  0  0  0
   17.5114   21.0585   23.5219 C   0  0  0  0  0  0  0  0  0  0  0  0
   16.5948   21.0332   22.9183 H   0  0  0  0  0  0  0  0  0  0  0  0
   18.0145   22.0153   23.3308 H   0  0  0  0  0  0  0  0  0  0  0  0
   17.2182   21.0315   24.5795 H   0  0  0  0  0  0  0  0  0  0  0  0
  1  2  1  0  0  0  0
  1  3  1  0  0  0  0
  1  4  1  0  0  0  0
  1  5  1  0  0  0  0
  5  6  1  0  0  0  0
  5  7  1  0  0  0  0
  5  8  1  0  0  0  0
  8  9  1  0  0  0  0
  8 10  1  0  0  0  0
  8 11  1  0  0  0  0
 11 12  1  0  0  0  0
 11 13  1  0  0  0  0
 11 14  1  0  0  0  0
 14 15  1  0  0  0  0
 14 16  1  0  0  0  0
 14 17  1  0  0  0  0
 17 18  1  0  0  0  0
 17 19  1  0  0  0  0
 17 20  1  0  0  0  0
 20 21  1  0  0  0  0
 20 22  1  0  0  0  0
 20 23  1  0  0  0  0
M  END
> <VConfSearch Rank>
378

> <Conf_Id>
70

> <Delta U+W>
2.599

> <U+W>
-5.783

> <U>
50.122

> <W>
-55.906

> <W(PB)>
-58.010

> <W(SA)>
2.105

> <Valence>
4.132

> <Coulomb>
45.536

> <VdW>
0.454

> <VdW6>
-6.262

> <VdW12>
6.715

> <Bond>
0.182

> <Angle>
1.157

> <Pdih>
2.794

> <Idih>
0.000

> <Tether>
0.000

$$$$
VeraChem MOL file


 23 22  0  0  0  0  0  0  0  0999 V2000     
   19.7184   16.6445   24.1972 N   0  3  0  0  0  0  0  0  0  0  0  0
   18.9458   15.9710   24.1990 H   0  0  0  0  0  0  0  0  0  0  0  0
   20.3100   16.4234   25.0052 H   0  0  0  0  0  0  0  0  0  0  0  0
   20.2759   16.4636   23.3570 H   0  0  0  0  0  0  0  0  0  0  0  0
   19.2180   18.0749   24.2393 C   0  0  0  0  0  0  0  0  0  0  0  0
   20.0866   18.7379   24.2693 H   0  0  0  0  0  0  0  0  0  0  0  0
   18.6591   18.2051   25.1699 H   0  0  0  0  0  0  0  0  0  0  0  0
   18.3183   18.4502   23.0445 C   0  0  0  0  0  0  0  0  0  0  0  0
   17.4326   17.8013   23.0444 H   0  0  0  0  0  0  0  0  0  0  0  0
   17.9411   19.4702   23.1919 H   0  0  0  0  0  0  0  0  0  0  0  0
   19.0248   18.3485   21.6670 C   0  0  0  0  0  0  0  0  0  0  0  0
   18.3237   18.6714   20.8850 H   0  0  0  0  0  0  0  0  0  0  0  0
   19.2454   17.2947   21.4503 H   0  0  0  0  0  0  0  0  0  0  0  0
   20.3344   19.1696   21.5425 C   0  0  0  0  0  0  0  0  0  0  0  0
   21.0823   18.7969   22.2550 H   0  0  0  0  0  0  0  0  0  0  0  0
   20.7571   18.9976   20.5430 H   0  0  0  0  0  0  0  0  0  0  0  0
   20.1325   20.6896   21.7472 C   0  0  0  0  0  0  0  0  0  0  0  0
   19.7769   20.8907   22.7665 H   0  0  0  0  0  0  0  0  0  0  0  0
   19.3569   21.0566   21.0606 H   0  0  0  0  0  0  0  0  0  0  0  0
   21.4400   21.4746   21.5092 C   0  0  0  0  0  0  0  0  0  0  0  0
   21.2796   22.5499   21.6609 H   0  0  0  0  0  0  0  0  0  0  0  0
   21.8066   21.3303   20.4845 H   0  0  0  0  0  0  0  0  0  0  0  0
   22.2268   21.1501   22.2027 H   0  0  0  0  0  0  0  0  0  0  0  0
  1  2  1  0  0  0  0
  1  3  1  0  0  0  0
  1  4  1  0  0  0  0
  1  5  1  0  0  0  0
  5  6  1  0  0  0  0
  5  7  1  0  0  0  0
  5  8  1  0  0  0  0
  8  9  1  0  0  0  0
  8 10  1  0  0  0  0
  8 11  1  0  0  0  0
 11 12  1  0  0  0  0
 11 13  1  0  0  0  0
 11 14  1  0  0  0  0
 14 15  1  0  0  0  0
 14 16  1  0  0  0  0
 14 17  1  0  0  0  0
 17 18  1  0  0  0  0
 17 19  1  0  0  0  0
 17 20  1  0  0  0  0
 20 21  1  0  0  0  0
 20 22  1  0  0  0  0
 20 23  1  0  0  0  0
M  END
> <VConfSearch Rank>
379

> <Conf_Id>
72

> <Delta U+W>
1.051

> <U+W>
-7.331

> <U>
48.590

> <W>
-55.922

> <W(PB)>
-58.012

> <W(SA)>
2.090

> <Valence>
2.601

> <Coulomb>
45.520

> <VdW>
0.469

> <VdW6>
-6.867

> <VdW12>
7.336

> <Bond>
0.205

> <Angle>
0.962

> <Pdih>
1.434

> <Idih>
0.000

> <Tether>
0.000

$$$$
VeraChem MOL file


 23 22  0  0  0  0  0  0  0  0999 V2000     
   16.8529   18.0875   23.4195 N   0  3  0  0  0  0  0  0  0  0  0  0
   16.2579   17.3458   23.0350 H   0  0  0  0  0  0  0  0  0  0  0  0
   16.2307   18.8514   23.7025 H   0  0  0  0  0  0  0  0  0  0  0  0
   17.2801   17.7145   24.2734 H   0  0  0  0  0  0  0  0  0  0  0  0
   17.8946   18.5481   22.4204 C   0  0  0  0  0  0  0  0  0  0  0  0
   17.3729   18.9047   21.5282 H   0  0  0  0  0  0  0  0  0  0  0  0
   18.4995   17.6812   22.1420 H   0  0  0  0  0  0  0  0  0  0  0  0
   18.8055   19.6627   22.9678 C   0  0  0  0  0  0  0  0  0  0  0  0
   18.1850   20.5135   23.2789 H   0  0  0  0  0  0  0  0  0  0  0  0
   19.3200   19.3103   23.8709 H   0  0  0  0  0  0  0  0  0  0  0  0
   19.8411   20.1539   21.9259 C   0  0  0  0  0  0  0  0  0  0  0  0
   20.4414   20.9598   22.3688 H   0  0  0  0  0  0  0  0  0  0  0  0
   19.3059   20.6129   21.0832 H   0  0  0  0  0  0  0  0  0  0  0  0
   20.7821   19.0500   21.3722 C   0  0  0  0  0  0  0  0  0  0  0  0
   20.1949   18.3301   20.7863 H   0  0  0  0  0  0  0  0  0  0  0  0
   21.4803   19.5100   20.6593 H   0  0  0  0  0  0  0  0  0  0  0  0
   21.5962   18.2796   22.4426 C   0  0  0  0  0  0  0  0  0  0  0  0
   22.2110   17.5221   21.9367 H   0  0  0  0  0  0  0  0  0  0  0  0
   20.9206   17.7238   23.1064 H   0  0  0  0  0  0  0  0  0  0  0  0
   22.5205   19.1901   23.2823 C   0  0  0  0  0  0  0  0  0  0  0  0
   23.1976   19.7662   22.6383 H   0  0  0  0  0  0  0  0  0  0  0  0
   23.1359   18.5893   23.9644 H   0  0  0  0  0  0  0  0  0  0  0  0
   21.9435   19.8958   23.8927 H   0  0  0  0  0  0  0  0  0  0  0  0
  1  2  1  0  0  0  0
  1  3  1  0  0  0  0
  1  4  1  0  0  0  0
  1  5  1  0  0  0  0
  5  6  1  0  0  0  0
  5  7  1  0  0  0  0
  5  8  1  0  0  0  0
  8  9  1  0  0  0  0
  8 10  1  0  0  0  0
  8 11  1  0  0  0  0
 11 12  1  0  0  0  0
 11 13  1  0  0  0  0
 11 14  1  0  0  0  0
 14 15  1  0  0  0  0
 14 16  1  0  0  0  0
 14 17  1  0  0  0  0
 17 18  1  0  0  0  0
 17 19  1  0  0  0  0
 17 20  1  0  0  0  0
 20 21  1  0  0  0  0
 20 22  1  0  0  0  0
 20 23  1  0  0  0  0
M  END
> <VConfSearch Rank>
380

> <Conf_Id>
26

> <Delta U+W>
1.076

> <U+W>
-7.306

> <U>
48.641

> <W>
-55.947

> <W(PB)>
-58.031

> <W(SA)>
2.084

> <Valence>
2.922

> <Coulomb>
45.269

> <VdW>
0.449

> <VdW6>
-7.045

> <VdW12>
7.494

> <Bond>
0.220

> <Angle>
1.205

> <Pdih>
1.497

> <Idih>
0.000

> <Tether>
0.000

$$$$
VeraChem MOL file


 23 22  0  0  0  0  0  0  0  0999 V2000     
   20.9591   16.1633   23.3288 N   0  3  0  0  0  0  0  0  0  0  0  0
   21.5287   16.1272   24.1803 H   0  0  0  0  0  0  0  0  0  0  0  0
   21.2948   15.4141   22.7140 H   0  0  0  0  0  0  0  0  0  0  0  0
   19.9998   15.9214   23.5971 H   0  0  0  0  0  0  0  0  0  0  0  0
   21.0338   17.5190   22.6564 C   0  0  0  0  0  0  0  0  0  0  0  0
   20.4312   17.4758   21.7454 H   0  0  0  0  0  0  0  0  0  0  0  0
   22.0742   17.6988   22.3728 H   0  0  0  0  0  0  0  0  0  0  0  0
   20.5359   18.6669   23.5543 C   0  0  0  0  0  0  0  0  0  0  0  0
   19.4956   18.4809   23.8503 H   0  0  0  0  0  0  0  0  0  0  0  0
   21.1230   18.6778   24.4822 H   0  0  0  0  0  0  0  0  0  0  0  0
   20.6529   20.0528   22.8725 C   0  0  0  0  0  0  0  0  0  0  0  0
   21.7148   20.2718   22.6943 H   0  0  0  0  0  0  0  0  0  0  0  0
   20.3045   20.8264   23.5697 H   0  0  0  0  0  0  0  0  0  0  0  0
   19.8883   20.1838   21.5276 C   0  0  0  0  0  0  0  0  0  0  0  0
   20.0261   21.2042   21.1441 H   0  0  0  0  0  0  0  0  0  0  0  0
   20.3487   19.5237   20.7802 H   0  0  0  0  0  0  0  0  0  0  0  0
   18.3706   19.8778   21.5994 C   0  0  0  0  0  0  0  0  0  0  0  0
   18.2075   18.8285   21.8796 H   0  0  0  0  0  0  0  0  0  0  0  0
   17.9428   19.9901   20.5933 H   0  0  0  0  0  0  0  0  0  0  0  0
   17.6042   20.8029   22.5717 C   0  0  0  0  0  0  0  0  0  0  0  0
   17.9219   20.6469   23.6101 H   0  0  0  0  0  0  0  0  0  0  0  0
   16.5258   20.6039   22.5224 H   0  0  0  0  0  0  0  0  0  0  0  0
   17.7628   21.8592   22.3185 H   0  0  0  0  0  0  0  0  0  0  0  0
  1  2  1  0  0  0  0
  1  3  1  0  0  0  0
  1  4  1  0  0  0  0
  1  5  1  0  0  0  0
  5  6  1  0  0  0  0
  5  7  1  0  0  0  0
  5  8  1  0  0  0  0
  8  9  1  0  0  0  0
  8 10  1  0  0  0  0
  8 11  1  0  0  0  0
 11 12  1  0  0  0  0
 11 13  1  0  0  0  0
 11 14  1  0  0  0  0
 14 15  1  0  0  0  0
 14 16  1  0  0  0  0
 14 17  1  0  0  0  0
 17 18  1  0  0  0  0
 17 19  1  0  0  0  0
 17 20  1  0  0  0  0
 20 21  1  0  0  0  0
 20 22  1  0  0  0  0
 20 23  1  0  0  0  0
M  END
> <VConfSearch Rank>
381

> <Conf_Id>
90

> <Delta U+W>
1.131

> <U+W>
-7.251

> <U>
48.641

> <W>
-55.892

> <W(PB)>
-57.962

> <W(SA)>
2.070

> <Valence>
2.922

> <Coulomb>
45.269

> <VdW>
0.450

> <VdW6>
-7.045

> <VdW12>
7.495

> <Bond>
0.220

> <Angle>
1.205

> <Pdih>
1.497

> <Idih>
0.000

> <Tether>
0.000

$$$$
VeraChem MOL file


 23 22  0  0  0  0  0  0  0  0999 V2000     
   17.4765   20.1321   22.1935 N   0  3  0  0  0  0  0  0  0  0  0  0
   16.8834   20.7939   22.7055 H   0  0  0  0  0  0  0  0  0  0  0  0
   17.6619   19.3448   22.8223 H   0  0  0  0  0  0  0  0  0  0  0  0
   16.9184   19.7724   21.4127 H   0  0  0  0  0  0  0  0  0  0  0  0
   18.7611   20.7801   21.7156 C   0  0  0  0  0  0  0  0  0  0  0  0
   19.2907   21.1678   22.5896 H   0  0  0  0  0  0  0  0  0  0  0  0
   18.4901   21.6277   21.0802 H   0  0  0  0  0  0  0  0  0  0  0  0
   19.6818   19.8248   20.9291 C   0  0  0  0  0  0  0  0  0  0  0  0
   19.1566   19.4789   20.0290 H   0  0  0  0  0  0  0  0  0  0  0  0
   20.5551   20.3890   20.5757 H   0  0  0  0  0  0  0  0  0  0  0  0
   20.1618   18.5986   21.7456 C   0  0  0  0  0  0  0  0  0  0  0  0
   20.7947   17.9743   21.1000 H   0  0  0  0  0  0  0  0  0  0  0  0
   19.2979   17.9793   22.0179 H   0  0  0  0  0  0  0  0  0  0  0  0
   20.9604   18.9896   23.0147 C   0  0  0  0  0  0  0  0  0  0  0  0
   21.7690   19.6775   22.7314 H   0  0  0  0  0  0  0  0  0  0  0  0
   20.3163   19.5401   23.7133 H   0  0  0  0  0  0  0  0  0  0  0  0
   21.5817   17.7758   23.7469 C   0  0  0  0  0  0  0  0  0  0  0  0
   22.2147   18.1442   24.5663 H   0  0  0  0  0  0  0  0  0  0  0  0
   22.2491   17.2311   23.0645 H   0  0  0  0  0  0  0  0  0  0  0  0
   20.5284   16.8056   24.3287 C   0  0  0  0  0  0  0  0  0  0  0  0
   19.8319   17.3316   24.9945 H   0  0  0  0  0  0  0  0  0  0  0  0
   21.0164   16.0141   24.9120 H   0  0  0  0  0  0  0  0  0  0  0  0
   19.9465   16.3192   23.5361 H   0  0  0  0  0  0  0  0  0  0  0  0
  1  2  1  0  0  0  0
  1  3  1  0  0  0  0
  1  4  1  0  0  0  0
  1  5  1  0  0  0  0
  5  6  1  0  0  0  0
  5  7  1  0  0  0  0
  5  8  1  0  0  0  0
  8  9  1  0  0  0  0
  8 10  1  0  0  0  0
  8 11  1  0  0  0  0
 11 12  1  0  0  0  0
 11 13  1  0  0  0  0
 11 14  1  0  0  0  0
 14 15  1  0  0  0  0
 14 16  1  0  0  0  0
 14 17  1  0  0  0  0
 17 18  1  0  0  0  0
 17 19  1  0  0  0  0
 17 20  1  0  0  0  0
 20 21  1  0  0  0  0
 20 22  1  0  0  0  0
 20 23  1  0  0  0  0
M  END
> <VConfSearch Rank>
382

> <Conf_Id>
85

> <Delta U+W>
1.193

> <U+W>
-7.189

> <U>
48.775

> <W>
-55.965

> <W(PB)>
-58.038

> <W(SA)>
2.073

> <Valence>
2.602

> <Coulomb>
45.581

> <VdW>
0.592

> <VdW6>
-6.616

> <VdW12>
7.208

> <Bond>
0.196

> <Angle>
0.832

> <Pdih>
1.574

> <Idih>
0.000

> <Tether>
0.000

$$$$
VeraChem MOL file


 23 22  0  0  0  0  0  0  0  0999 V2000     
   21.1752   20.0984   23.4604 N   0  3  0  0  0  0  0  0  0  0  0  0
   20.1545   20.0221   23.5151 H   0  0  0  0  0  0  0  0  0  0  0  0
   21.4054   21.0952   23.3849 H   0  0  0  0  0  0  0  0  0  0  0  0
   21.5549   19.7712   24.3547 H   0  0  0  0  0  0  0  0  0  0  0  0
   21.7264   19.3033   22.2926 C   0  0  0  0  0  0  0  0  0  0  0  0
   22.8121   19.4325   22.3025 H   0  0  0  0  0  0  0  0  0  0  0  0
   21.3422   19.7331   21.3638 H   0  0  0  0  0  0  0  0  0  0  0  0
   21.3981   17.7974   22.3486 C   0  0  0  0  0  0  0  0  0  0  0  0
   22.1373   17.2716   21.7296 H   0  0  0  0  0  0  0  0  0  0  0  0
   21.5447   17.4234   23.3706 H   0  0  0  0  0  0  0  0  0  0  0  0
   19.9863   17.4076   21.8340 C   0  0  0  0  0  0  0  0  0  0  0  0
   19.9115   16.3122   21.8784 H   0  0  0  0  0  0  0  0  0  0  0  0
   19.8906   17.6652   20.7700 H   0  0  0  0  0  0  0  0  0  0  0  0
   18.8005   18.0024   22.6362 C   0  0  0  0  0  0  0  0  0  0  0  0
   17.9936   17.2571   22.6702 H   0  0  0  0  0  0  0  0  0  0  0  0
   19.0944   18.1672   23.6813 H   0  0  0  0  0  0  0  0  0  0  0  0
   18.2265   19.2953   22.0069 C   0  0  0  0  0  0  0  0  0  0  0  0
   17.7891   19.0577   21.0269 H   0  0  0  0  0  0  0  0  0  0  0  0
   19.0199   20.0271   21.8137 H   0  0  0  0  0  0  0  0  0  0  0  0
   17.1447   19.9346   22.9030 C   0  0  0  0  0  0  0  0  0  0  0  0
   16.3105   19.2404   23.0692 H   0  0  0  0  0  0  0  0  0  0  0  0
   16.7391   20.8406   22.4343 H   0  0  0  0  0  0  0  0  0  0  0  0
   17.5535   20.2162   23.8820 H   0  0  0  0  0  0  0  0  0  0  0  0
  1  2  1  0  0  0  0
  1  3  1  0  0  0  0
  1  4  1  0  0  0  0
  1  5  1  0  0  0  0
  5  6  1  0  0  0  0
  5  7  1  0  0  0  0
  5  8  1  0  0  0  0
  8  9  1  0  0  0  0
  8 10  1  0  0  0  0
  8 11  1  0  0  0  0
 11 12  1  0  0  0  0
 11 13  1  0  0  0  0
 11 14  1  0  0  0  0
 14 15  1  0  0  0  0
 14 16  1  0  0  0  0
 14 17  1  0  0  0  0
 17 18  1  0  0  0  0
 17 19  1  0  0  0  0
 17 20  1  0  0  0  0
 20 21  1  0  0  0  0
 20 22  1  0  0  0  0
 20 23  1  0  0  0  0
M  END
> <VConfSearch Rank>
383

> <Conf_Id>
82

> <Delta U+W>
5.994

> <U+W>
-2.388

> <U>
52.836

> <W>
-55.224

> <W(PB)>
-57.261

> <W(SA)>
2.037

> <Valence>
5.785

> <Coulomb>
46.744

> <VdW>
0.307

> <VdW6>
-7.672

> <VdW12>
7.979

> <Bond>
0.217

> <Angle>
1.470

> <Pdih>
4.098

> <Idih>
0.000

> <Tether>
0.000

$$$$
VeraChem MOL file


 23 22  0  0  0  0  0  0  0  0999 V2000     
   20.3724   17.0578   23.1174 N   0  3  0  0  0  0  0  0  0  0  0  0
   20.2096   16.7896   24.0934 H   0  0  0  0  0  0  0  0  0  0  0  0
   20.4778   16.1890   22.5823 H   0  0  0  0  0  0  0  0  0  0  0  0
   19.5231   17.5238   22.7824 H   0  0  0  0  0  0  0  0  0  0  0  0
   21.5863   17.9559   22.9775 C   0  0  0  0  0  0  0  0  0  0  0  0
   21.7524   18.1577   21.9160 H   0  0  0  0  0  0  0  0  0  0  0  0
   22.4449   17.3932   23.3541 H   0  0  0  0  0  0  0  0  0  0  0  0
   21.4762   19.2846   23.7527 C   0  0  0  0  0  0  0  0  0  0  0  0
   21.0573   19.0984   24.7506 H   0  0  0  0  0  0  0  0  0  0  0  0
   22.4950   19.6578   23.9217 H   0  0  0  0  0  0  0  0  0  0  0  0
   20.6742   20.4046   23.0368 C   0  0  0  0  0  0  0  0  0  0  0  0
   21.1729   20.6811   22.0975 H   0  0  0  0  0  0  0  0  0  0  0  0
   20.7248   21.3010   23.6705 H   0  0  0  0  0  0  0  0  0  0  0  0
   19.1798   20.0862   22.7746 C   0  0  0  0  0  0  0  0  0  0  0  0
   18.8000   19.3941   23.5378 H   0  0  0  0  0  0  0  0  0  0  0  0
   18.5991   21.0108   22.8992 H   0  0  0  0  0  0  0  0  0  0  0  0
   18.9128   19.5463   21.3483 C   0  0  0  0  0  0  0  0  0  0  0  0
   19.5755   18.7048   21.1136 H   0  0  0  0  0  0  0  0  0  0  0  0
   19.1480   20.3302   20.6146 H   0  0  0  0  0  0  0  0  0  0  0  0
   17.4436   19.1091   21.1694 C   0  0  0  0  0  0  0  0  0  0  0  0
   17.1804   18.3020   21.8652 H   0  0  0  0  0  0  0  0  0  0  0  0
   17.2696   18.7438   20.1489 H   0  0  0  0  0  0  0  0  0  0  0  0
   16.7587   19.9486   21.3467 H   0  0  0  0  0  0  0  0  0  0  0  0
  1  2  1  0  0  0  0
  1  3  1  0  0  0  0
  1  4  1  0  0  0  0
  1  5  1  0  0  0  0
  5  6  1  0  0  0  0
  5  7  1  0  0  0  0
  5  8  1  0  0  0  0
  8  9  1  0  0  0  0
  8 10  1  0  0  0  0
  8 11  1  0  0  0  0
 11 12  1  0  0  0  0
 11 13  1  0  0  0  0
 11 14  1  0  0  0  0
 14 15  1  0  0  0  0
 14 16  1  0  0  0  0
 14 17  1  0  0  0  0
 17 18  1  0  0  0  0
 17 19  1  0  0  0  0
 17 20  1  0  0  0  0
 20 21  1  0  0  0  0
 20 22  1  0  0  0  0
 20 23  1  0  0  0  0
M  END
> <VConfSearch Rank>
384

> <Conf_Id>
5

> <Delta U+W>
6.087

> <U+W>
-2.295

> <U>
52.836

> <W>
-55.131

> <W(PB)>
-57.202

> <W(SA)>
2.071

> <Valence>
5.785

> <Coulomb>
46.744

> <VdW>
0.307

> <VdW6>
-7.672

> <VdW12>
7.980

> <Bond>
0.217

> <Angle>
1.470

> <Pdih>
4.098

> <Idih>
0.000

> <Tether>
0.000

$$$$
VeraChem MOL file


 23 22  0  0  0  0  0  0  0  0999 V2000     
   19.2286   15.7396   24.5446 N   0  3  0  0  0  0  0  0  0  0  0  0
   18.2118   15.8294   24.6388 H   0  0  0  0  0  0  0  0  0  0  0  0
   19.5650   15.2636   25.3886 H   0  0  0  0  0  0  0  0  0  0  0  0
   19.4037   15.1076   23.7567 H   0  0  0  0  0  0  0  0  0  0  0  0
   19.8998   17.0842   24.3513 C   0  0  0  0  0  0  0  0  0  0  0  0
   20.9785   16.9170   24.2885 H   0  0  0  0  0  0  0  0  0  0  0  0
   19.6973   17.6929   25.2367 H   0  0  0  0  0  0  0  0  0  0  0  0
   19.4162   17.8249   23.0919 C   0  0  0  0  0  0  0  0  0  0  0  0
   19.6068   17.2030   22.2070 H   0  0  0  0  0  0  0  0  0  0  0  0
   18.3301   17.9760   23.1518 H   0  0  0  0  0  0  0  0  0  0  0  0
   20.1234   19.1888   22.9315 C   0  0  0  0  0  0  0  0  0  0  0  0
   21.2100   19.0338   22.8773 H   0  0  0  0  0  0  0  0  0  0  0  0
   19.9347   19.8060   23.8211 H   0  0  0  0  0  0  0  0  0  0  0  0
   19.6450   19.9417   21.6692 C   0  0  0  0  0  0  0  0  0  0  0  0
   19.8338   19.3248   20.7796 H   0  0  0  0  0  0  0  0  0  0  0  0
   18.5585   20.0969   21.7233 H   0  0  0  0  0  0  0  0  0  0  0  0
   20.3524   21.3058   21.5091 C   0  0  0  0  0  0  0  0  0  0  0  0
   21.4397   21.1557   21.4521 H   0  0  0  0  0  0  0  0  0  0  0  0
   20.1645   21.9277   22.3957 H   0  0  0  0  0  0  0  0  0  0  0  0
   19.8723   22.0546   20.2477 C   0  0  0  0  0  0  0  0  0  0  0  0
   20.3854   23.0202   20.1512 H   0  0  0  0  0  0  0  0  0  0  0  0
   18.7928   22.2497   20.2913 H   0  0  0  0  0  0  0  0  0  0  0  0
   20.0779   21.4717   19.3403 H   0  0  0  0  0  0  0  0  0  0  0  0
  1  2  1  0  0  0  0
  1  3  1  0  0  0  0
  1  4  1  0  0  0  0
  1  5  1  0  0  0  0
  5  6  1  0  0  0  0
  5  7  1  0  0  0  0
  5  8  1  0  0  0  0
  8  9  1  0  0  0  0
  8 10  1  0  0  0  0
  8 11  1  0  0  0  0
 11 12  1  0  0  0  0
 11 13  1  0  0  0  0
 11 14  1  0  0  0  0
 14 15  1  0  0  0  0
 14 16  1  0  0  0  0
 14 17  1  0  0  0  0
 17 18  1  0  0  0  0
 17 19  1  0  0  0  0
 17 20  1  0  0  0  0
 20 21  1  0  0  0  0
 20 22  1  0  0  0  0
 20 23  1  0  0  0  0
M  END
> <VConfSearch Rank>
385

> <Conf_Id>
40

> <Delta U+W>
0.000

> <U+W>
-8.382

> <U>
46.604

> <W>
-54.986

> <W(PB)>
-57.162

> <W(SA)>
2.176

> <Valence>
1.727

> <Coulomb>
44.434

> <VdW>
0.443

> <VdW6>
-4.623

> <VdW12>
5.066

> <Bond>
0.112

> <Angle>
0.386

> <Pdih>
1.228

> <Idih>
0.000

> <Tether>
0.000

$$$$
VeraChem MOL file


 23 22  0  0  0  0  0  0  0  0999 V2000     
   19.9135   16.0740   20.5921 N   0  3  0  0  0  0  0  0  0  0  0  0
   20.8045   15.5879   20.7362 H   0  0  0  0  0  0  0  0  0  0  0  0
   19.9716   16.5472   19.6846 H   0  0  0  0  0  0  0  0  0  0  0  0
   19.1907   15.3514   20.5057 H   0  0  0  0  0  0  0  0  0  0  0  0
   19.6096   17.0429   21.7166 C   0  0  0  0  0  0  0  0  0  0  0  0
   19.5336   16.4698   22.6446 H   0  0  0  0  0  0  0  0  0  0  0  0
   18.6371   17.4981   21.5125 H   0  0  0  0  0  0  0  0  0  0  0  0
   20.6785   18.1412   21.8720 C   0  0  0  0  0  0  0  0  0  0  0  0
   21.6570   17.6679   22.0289 H   0  0  0  0  0  0  0  0  0  0  0  0
   20.7544   18.7180   20.9406 H   0  0  0  0  0  0  0  0  0  0  0  0
   20.3897   19.0973   23.0537 C   0  0  0  0  0  0  0  0  0  0  0  0
   21.2477   19.7726   23.1664 H   0  0  0  0  0  0  0  0  0  0  0  0
   20.3240   18.5186   23.9854 H   0  0  0  0  0  0  0  0  0  0  0  0
   19.0957   19.9285   22.8611 C   0  0  0  0  0  0  0  0  0  0  0  0
   19.1706   20.5228   21.9400 H   0  0  0  0  0  0  0  0  0  0  0  0
   18.2416   19.2523   22.7238 H   0  0  0  0  0  0  0  0  0  0  0  0
   18.7812   20.8637   24.0540 C   0  0  0  0  0  0  0  0  0  0  0  0
   18.6947   20.2732   24.9768 H   0  0  0  0  0  0  0  0  0  0  0  0
   17.7964   21.3234   23.8905 H   0  0  0  0  0  0  0  0  0  0  0  0
   19.8260   21.9859   24.2503 C   0  0  0  0  0  0  0  0  0  0  0  0
   20.8033   21.5817   24.5415 H   0  0  0  0  0  0  0  0  0  0  0  0
   19.5054   22.6743   25.0430 H   0  0  0  0  0  0  0  0  0  0  0  0
   19.9552   22.5708   23.3304 H   0  0  0  0  0  0  0  0  0  0  0  0
  1  2  1  0  0  0  0
  1  3  1  0  0  0  0
  1  4  1  0  0  0  0
  1  5  1  0  0  0  0
  5  6  1  0  0  0  0
  5  7  1  0  0  0  0
  5  8  1  0  0  0  0
  8  9  1  0  0  0  0
  8 10  1  0  0  0  0
  8 11  1  0  0  0  0
 11 12  1  0  0  0  0
 11 13  1  0  0  0  0
 11 14  1  0  0  0  0
 14 15  1  0  0  0  0
 14 16  1  0  0  0  0
 14 17  1  0  0  0  0
 17 18  1  0  0  0  0
 17 19  1  0  0  0  0
 17 20  1  0  0  0  0
 20 21  1  0  0  0  0
 20 22  1  0  0  0  0
 20 23  1  0  0  0  0
M  END
> <VConfSearch Rank>
386

> <Conf_Id>
65

> <Delta U+W>
1.004

> <U+W>
-7.378

> <U>
48.047

> <W>
-55.425

> <W(PB)>
-57.542

> <W(SA)>
2.116

> <Valence>
2.583

> <Coulomb>
44.791

> <VdW>
0.673

> <VdW6>
-5.788

> <VdW12>
6.462

> <Bond>
0.177

> <Angle>
0.787

> <Pdih>
1.619

> <Idih>
0.000

> <Tether>
0.000

$$$$
VeraChem MOL file


 23 22  0  0  0  0  0  0  0  0999 V2000     
   22.6204   17.9572   24.4827 N   0  3  0  0  0  0  0  0  0  0  0  0
   23.2540   18.7463   24.6459 H   0  0  0  0  0  0  0  0  0  0  0  0
   23.2077   17.1377   24.2943 H   0  0  0  0  0  0  0  0  0  0  0  0
   22.1308   17.7763   25.3649 H   0  0  0  0  0  0  0  0  0  0  0  0
   21.6561   18.2319   23.3468 C   0  0  0  0  0  0  0  0  0  0  0  0
   21.0370   17.3416   23.2105 H   0  0  0  0  0  0  0  0  0  0  0  0
   22.2419   18.3866   22.4367 H   0  0  0  0  0  0  0  0  0  0  0  0
   20.7591   19.4585   23.6002 C   0  0  0  0  0  0  0  0  0  0  0  0
   20.1696   19.3031   24.5136 H   0  0  0  0  0  0  0  0  0  0  0  0
   21.3953   20.3348   23.7823 H   0  0  0  0  0  0  0  0  0  0  0  0
   19.8121   19.7647   22.4157 C   0  0  0  0  0  0  0  0  0  0  0  0
   20.4052   19.9294   21.5056 H   0  0  0  0  0  0  0  0  0  0  0  0
   19.2948   20.7099   22.6255 H   0  0  0  0  0  0  0  0  0  0  0  0
   18.7692   18.6456   22.1658 C   0  0  0  0  0  0  0  0  0  0  0  0
   19.2871   17.6954   21.9805 H   0  0  0  0  0  0  0  0  0  0  0  0
   18.1626   18.4959   23.0696 H   0  0  0  0  0  0  0  0  0  0  0  0
   17.8387   18.9287   20.9614 C   0  0  0  0  0  0  0  0  0  0  0  0
   17.2147   18.0417   20.7829 H   0  0  0  0  0  0  0  0  0  0  0  0
   18.4397   19.0690   20.0520 H   0  0  0  0  0  0  0  0  0  0  0  0
   16.9156   20.1510   21.1688 C   0  0  0  0  0  0  0  0  0  0  0  0
   17.4883   21.0848   21.2263 H   0  0  0  0  0  0  0  0  0  0  0  0
   16.3274   20.0501   22.0901 H   0  0  0  0  0  0  0  0  0  0  0  0
   16.2126   20.2475   20.3312 H   0  0  0  0  0  0  0  0  0  0  0  0
  1  2  1  0  0  0  0
  1  3  1  0  0  0  0
  1  4  1  0  0  0  0
  1  5  1  0  0  0  0
  5  6  1  0  0  0  0
  5  7  1  0  0  0  0
  5  8  1  0  0  0  0
  8  9  1  0  0  0  0
  8 10  1  0  0  0  0
  8 11  1  0  0  0  0
 11 12  1  0  0  0  0
 11 13  1  0  0  0  0
 11 14  1  0  0  0  0
 14 15  1  0  0  0  0
 14 16  1  0  0  0  0
 14 17  1  0  0  0  0
 17 18  1  0  0  0  0
 17 19  1  0  0  0  0
 17 20  1  0  0  0  0
 20 21  1  0  0  0  0
 20 22  1  0  0  0  0
 20 23  1  0  0  0  0
M  END
> <VConfSearch Rank>
387

> <Conf_Id>
92

> <Delta U+W>
0.973

> <U+W>
-7.409

> <U>
48.047

> <W>
-55.456

> <W(PB)>
-57.595

> <W(SA)>
2.138

> <Valence>
2.583

> <Coulomb>
44.791

> <VdW>
0.674

> <VdW6>
-5.789

> <VdW12>
6.462

> <Bond>
0.177

> <Angle>
0.787

> <Pdih>
1.619

> <Idih>
0.000

> <Tether>
0.000

$$$$
VeraChem MOL file


 23 22  0  0  0  0  0  0  0  0999 V2000     
   22.6725   19.8666   24.3674 N   0  3  0  0  0  0  0  0  0  0  0  0
   22.6777   20.6564   25.0218 H   0  0  0  0  0  0  0  0  0  0  0  0
   23.5346   19.9310   23.8164 H   0  0  0  0  0  0  0  0  0  0  0  0
   22.7379   19.0126   24.9307 H   0  0  0  0  0  0  0  0  0  0  0  0
   21.4381   19.8715   23.4888 C   0  0  0  0  0  0  0  0  0  0  0  0
   21.4173   20.8177   22.9413 H   0  0  0  0  0  0  0  0  0  0  0  0
   20.5622   19.8319   24.1413 H   0  0  0  0  0  0  0  0  0  0  0  0
   21.4011   18.6962   22.4937 C   0  0  0  0  0  0  0  0  0  0  0  0
   22.3077   18.7218   21.8745 H   0  0  0  0  0  0  0  0  0  0  0  0
   21.4229   17.7459   23.0436 H   0  0  0  0  0  0  0  0  0  0  0  0
   20.1610   18.7338   21.5696 C   0  0  0  0  0  0  0  0  0  0  0  0
   20.2482   17.9256   20.8303 H   0  0  0  0  0  0  0  0  0  0  0  0
   20.1557   19.6747   21.0018 H   0  0  0  0  0  0  0  0  0  0  0  0
   18.8259   18.5793   22.3370 C   0  0  0  0  0  0  0  0  0  0  0  0
   18.8478   17.6542   22.9296 H   0  0  0  0  0  0  0  0  0  0  0  0
   18.7021   19.4087   23.0462 H   0  0  0  0  0  0  0  0  0  0  0  0
   17.6140   18.5474   21.3793 C   0  0  0  0  0  0  0  0  0  0  0  0
   17.7231   17.7152   20.6697 H   0  0  0  0  0  0  0  0  0  0  0  0
   17.5877   19.4705   20.7834 H   0  0  0  0  0  0  0  0  0  0  0  0
   16.2830   18.3946   22.1458 C   0  0  0  0  0  0  0  0  0  0  0  0
   16.2660   17.4625   22.7255 H   0  0  0  0  0  0  0  0  0  0  0  0
   15.4348   18.3735   21.4492 H   0  0  0  0  0  0  0  0  0  0  0  0
   16.1284   19.2315   22.8393 H   0  0  0  0  0  0  0  0  0  0  0  0
  1  2  1  0  0  0  0
  1  3  1  0  0  0  0
  1  4  1  0  0  0  0
  1  5  1  0  0  0  0
  5  6  1  0  0  0  0
  5  7  1  0  0  0  0
  5  8  1  0  0  0  0
  8  9  1  0  0  0  0
  8 10  1  0  0  0  0
  8 11  1  0  0  0  0
 11 12  1  0  0  0  0
 11 13  1  0  0  0  0
 11 14  1  0  0  0  0
 14 15  1  0  0  0  0
 14 16  1  0  0  0  0
 14 17  1  0  0  0  0
 17 18  1  0  0  0  0
 17 19  1  0  0  0  0
 17 20  1  0  0  0  0
 20 21  1  0  0  0  0
 20 22  1  0  0  0  0
 20 23  1  0  0  0  0
M  END
> <VConfSearch Rank>
388

> <Conf_Id>
42

> <Delta U+W>
0.365

> <U+W>
-8.017

> <U>
47.375

> <W>
-55.392

> <W(PB)>
-57.543

> <W(SA)>
2.152

> <Valence>
2.032

> <Coulomb>
44.843

> <VdW>
0.499

> <VdW6>
-5.218

> <VdW12>
5.717

> <Bond>
0.135

> <Angle>
0.514

> <Pdih>
1.383

> <Idih>
0.000

> <Tether>
0.000

$$$$
VeraChem MOL file


 23 22  0  0  0  0  0  0  0  0999 V2000     
   20.6322   21.4982   20.8839 N   0  3  0  0  0  0  0  0  0  0  0  0
   21.3987   20.9912   20.4298 H   0  0  0  0  0  0  0  0  0  0  0  0
   20.8014   22.4977   20.7278 H   0  0  0  0  0  0  0  0  0  0  0  0
   19.7717   21.2588   20.3824 H   0  0  0  0  0  0  0  0  0  0  0  0
   20.5348   21.1680   22.3607 C   0  0  0  0  0  0  0  0  0  0  0  0
   19.7181   21.7563   22.7878 H   0  0  0  0  0  0  0  0  0  0  0  0
   21.4677   21.4883   22.8326 H   0  0  0  0  0  0  0  0  0  0  0  0
   20.3044   19.6722   22.6515 C   0  0  0  0  0  0  0  0  0  0  0  0
   21.1111   19.0812   22.1981 H   0  0  0  0  0  0  0  0  0  0  0  0
   20.3722   19.5275   23.7367 H   0  0  0  0  0  0  0  0  0  0  0  0
   18.9282   19.1701   22.1506 C   0  0  0  0  0  0  0  0  0  0  0  0
   18.8180   19.4092   21.0847 H   0  0  0  0  0  0  0  0  0  0  0  0
   18.1299   19.7176   22.6706 H   0  0  0  0  0  0  0  0  0  0  0  0
   18.7026   17.6454   22.3224 C   0  0  0  0  0  0  0  0  0  0  0  0
   17.7193   17.4070   21.8937 H   0  0  0  0  0  0  0  0  0  0  0  0
   19.4307   17.0856   21.7193 H   0  0  0  0  0  0  0  0  0  0  0  0
   18.7227   17.1438   23.7895 C   0  0  0  0  0  0  0  0  0  0  0  0
   17.9826   16.3379   23.8941 H   0  0  0  0  0  0  0  0  0  0  0  0
   18.3974   17.9420   24.4712 H   0  0  0  0  0  0  0  0  0  0  0  0
   20.0972   16.5873   24.2291 C   0  0  0  0  0  0  0  0  0  0  0  0
   20.3955   15.7389   23.5995 H   0  0  0  0  0  0  0  0  0  0  0  0
   20.0535   16.2319   25.2667 H   0  0  0  0  0  0  0  0  0  0  0  0
   20.8872   17.3439   24.1705 H   0  0  0  0  0  0  0  0  0  0  0  0
  1  2  1  0  0  0  0
  1  3  1  0  0  0  0
  1  4  1  0  0  0  0
  1  5  1  0  0  0  0
  5  6  1  0  0  0  0
  5  7  1  0  0  0  0
  5  8  1  0  0  0  0
  8  9  1  0  0  0  0
  8 10  1  0  0  0  0
  8 11  1  0  0  0  0
 11 12  1  0  0  0  0
 11 13  1  0  0  0  0
 11 14  1  0  0  0  0
 14 15  1  0  0  0  0
 14 16  1  0  0  0  0
 14 17  1  0  0  0  0
 17 18  1  0  0  0  0
 17 19  1  0  0  0  0
 17 20  1  0  0  0  0
 20 21  1  0  0  0  0
 20 22  1  0  0  0  0
 20 23  1  0  0  0  0
M  END
> <VConfSearch Rank>
389

> <Conf_Id>
3

> <Delta U+W>
3.283

> <U+W>
-5.099

> <U>
50.701

> <W>
-55.800

> <W(PB)>
-57.867

> <W(SA)>
2.067

> <Valence>
4.880

> <Coulomb>
45.095

> <VdW>
0.726

> <VdW6>
-6.620

> <VdW12>
7.346

> <Bond>
0.222

> <Angle>
1.260

> <Pdih>
3.398

> <Idih>
0.000

> <Tether>
0.000

$$$$
VeraChem MOL file


 23 22  0  0  0  0  0  0  0  0999 V2000     
   20.1922   16.5834   24.0470 N   0  3  0  0  0  0  0  0  0  0  0  0
   20.3142   15.7654   23.4416 H   0  0  0  0  0  0  0  0  0  0  0  0
   20.2936   16.2577   25.0142 H   0  0  0  0  0  0  0  0  0  0  0  0
   20.9740   17.2185   23.8599 H   0  0  0  0  0  0  0  0  0  0  0  0
   18.8549   17.2595   23.8174 C   0  0  0  0  0  0  0  0  0  0  0  0
   18.7761   18.1000   24.5115 H   0  0  0  0  0  0  0  0  0  0  0  0
   18.0709   16.5396   24.0678 H   0  0  0  0  0  0  0  0  0  0  0  0
   18.6506   17.7547   22.3709 C   0  0  0  0  0  0  0  0  0  0  0  0
   18.6809   16.8934   21.6904 H   0  0  0  0  0  0  0  0  0  0  0  0
   17.6413   18.1782   22.2827 H   0  0  0  0  0  0  0  0  0  0  0  0
   19.6884   18.8083   21.9078 C   0  0  0  0  0  0  0  0  0  0  0  0
   19.4756   19.0572   20.8601 H   0  0  0  0  0  0  0  0  0  0  0  0
   20.6958   18.3715   21.9195 H   0  0  0  0  0  0  0  0  0  0  0  0
   19.6675   20.1016   22.7620 C   0  0  0  0  0  0  0  0  0  0  0  0
   18.6661   20.5523   22.7267 H   0  0  0  0  0  0  0  0  0  0  0  0
   19.8563   19.8507   23.8140 H   0  0  0  0  0  0  0  0  0  0  0  0
   20.7200   21.1478   22.3215 C   0  0  0  0  0  0  0  0  0  0  0  0
   21.7252   20.7057   22.3653 H   0  0  0  0  0  0  0  0  0  0  0  0
   20.7172   21.9753   23.0448 H   0  0  0  0  0  0  0  0  0  0  0  0
   20.4654   21.7225   20.9094 C   0  0  0  0  0  0  0  0  0  0  0  0
   19.4537   22.1411   20.8298 H   0  0  0  0  0  0  0  0  0  0  0  0
   20.5828   20.9557   20.1338 H   0  0  0  0  0  0  0  0  0  0  0  0
   21.1792   22.5263   20.6877 H   0  0  0  0  0  0  0  0  0  0  0  0
  1  2  1  0  0  0  0
  1  3  1  0  0  0  0
  1  4  1  0  0  0  0
  1  5  1  0  0  0  0
  5  6  1  0  0  0  0
  5  7  1  0  0  0  0
  5  8  1  0  0  0  0
  8  9  1  0  0  0  0
  8 10  1  0  0  0  0
  8 11  1  0  0  0  0
 11 12  1  0  0  0  0
 11 13  1  0  0  0  0
 11 14  1  0  0  0  0
 14 15  1  0  0  0  0
 14 16  1  0  0  0  0
 14 17  1  0  0  0  0
 17 18  1  0  0  0  0
 17 19  1  0  0  0  0
 17 20  1  0  0  0  0
 20 21  1  0  0  0  0
 20 22  1  0  0  0  0
 20 23  1  0  0  0  0
M  END
> <VConfSearch Rank>
390

> <Conf_Id>
83

> <Delta U+W>
1.229

> <U+W>
-7.154

> <U>
48.727

> <W>
-55.880

> <W(PB)>
-57.960

> <W(SA)>
2.080

> <Valence>
2.671

> <Coulomb>
45.371

> <VdW>
0.684

> <VdW6>
-6.511

> <VdW12>
7.195

> <Bond>
0.203

> <Angle>
0.915

> <Pdih>
1.554

> <Idih>
0.000

> <Tether>
0.000

$$$$
VeraChem MOL file


 23 22  0  0  0  0  0  0  0  0999 V2000     
   17.0898   17.9111   22.0213 N   0  3  0  0  0  0  0  0  0  0  0  0
   17.1167   17.0870   21.4125 H   0  0  0  0  0  0  0  0  0  0  0  0
   17.4554   18.7003   21.4799 H   0  0  0  0  0  0  0  0  0  0  0  0
   16.1020   18.1093   22.2131 H   0  0  0  0  0  0  0  0  0  0  0  0
   17.8791   17.6945   23.2973 C   0  0  0  0  0  0  0  0  0  0  0  0
   17.4157   16.8651   23.8384 H   0  0  0  0  0  0  0  0  0  0  0  0
   17.7844   18.5935   23.9115 H   0  0  0  0  0  0  0  0  0  0  0  0
   19.3700   17.3790   23.0583 C   0  0  0  0  0  0  0  0  0  0  0  0
   19.8485   17.1840   24.0272 H   0  0  0  0  0  0  0  0  0  0  0  0
   19.4507   16.4461   22.4847 H   0  0  0  0  0  0  0  0  0  0  0  0
   20.1463   18.5001   22.3221 C   0  0  0  0  0  0  0  0  0  0  0  0
   19.7235   18.6520   21.3202 H   0  0  0  0  0  0  0  0  0  0  0  0
   21.1773   18.1556   22.1695 H   0  0  0  0  0  0  0  0  0  0  0  0
   20.1582   19.8432   23.0957 C   0  0  0  0  0  0  0  0  0  0  0  0
   19.1267   20.1764   23.2702 H   0  0  0  0  0  0  0  0  0  0  0  0
   20.6070   19.6951   24.0876 H   0  0  0  0  0  0  0  0  0  0  0  0
   20.9093   20.9751   22.3534 C   0  0  0  0  0  0  0  0  0  0  0  0
   20.7703   21.9128   22.9094 H   0  0  0  0  0  0  0  0  0  0  0  0
   20.4577   21.1350   21.3643 H   0  0  0  0  0  0  0  0  0  0  0  0
   22.4243   20.7111   22.1970 C   0  0  0  0  0  0  0  0  0  0  0  0
   22.8935   20.5152   23.1699 H   0  0  0  0  0  0  0  0  0  0  0  0
   22.9221   21.5835   21.7543 H   0  0  0  0  0  0  0  0  0  0  0  0
   22.6195   19.8536   21.5415 H   0  0  0  0  0  0  0  0  0  0  0  0
  1  2  1  0  0  0  0
  1  3  1  0  0  0  0
  1  4  1  0  0  0  0
  1  5  1  0  0  0  0
  5  6  1  0  0  0  0
  5  7  1  0  0  0  0
  5  8  1  0  0  0  0
  8  9  1  0  0  0  0
  8 10  1  0  0  0  0
  8 11  1  0  0  0  0
 11 12  1  0  0  0  0
 11 13  1  0  0  0  0
 11 14  1  0  0  0  0
 14 15  1  0  0  0  0
 14 16  1  0  0  0  0
 14 17  1  0  0  0  0
 17 18  1  0  0  0  0
 17 19  1  0  0  0  0
 17 20  1  0  0  0  0
 20 21  1  0  0  0  0
 20 22  1  0  0  0  0
 20 23  1  0  0  0  0
M  END
> <VConfSearch Rank>
391

> <Conf_Id>
50

> <Delta U+W>
1.252

> <U+W>
-7.130

> <U>
48.727

> <W>
-55.857

> <W(PB)>
-57.937

> <W(SA)>
2.080

> <Valence>
2.671

> <Coulomb>
45.371

> <VdW>
0.684

> <VdW6>
-6.511

> <VdW12>
7.196

> <Bond>
0.203

> <Angle>
0.915

> <Pdih>
1.554

> <Idih>
0.000

> <Tether>
0.000

$$$$
VeraChem MOL file


 23 22  0  0  0  0  0  0  0  0999 V2000     
   17.1932   17.3343   23.2746 N   0  3  0  0  0  0  0  0  0  0  0  0
   17.9453   16.7448   23.6437 H   0  0  0  0  0  0  0  0  0  0  0  0
   16.4699   16.7043   22.9111 H   0  0  0  0  0  0  0  0  0  0  0  0
   16.7819   17.8342   24.0693 H   0  0  0  0  0  0  0  0  0  0  0  0
   17.6969   18.2874   22.2083 C   0  0  0  0  0  0  0  0  0  0  0  0
   16.8373   18.8506   21.8346 H   0  0  0  0  0  0  0  0  0  0  0  0
   18.0986   17.6925   21.3836 H   0  0  0  0  0  0  0  0  0  0  0  0
   18.7723   19.2705   22.7099 C   0  0  0  0  0  0  0  0  0  0  0  0
   18.9889   19.9815   21.9048 H   0  0  0  0  0  0  0  0  0  0  0  0
   18.3659   19.8619   23.5412 H   0  0  0  0  0  0  0  0  0  0  0  0
   20.0723   18.5555   23.1587 C   0  0  0  0  0  0  0  0  0  0  0  0
   20.4346   17.8871   22.3654 H   0  0  0  0  0  0  0  0  0  0  0  0
   19.8376   17.9111   24.0164 H   0  0  0  0  0  0  0  0  0  0  0  0
   21.1978   19.5347   23.5836 C   0  0  0  0  0  0  0  0  0  0  0  0
   20.7658   20.4620   23.9844 H   0  0  0  0  0  0  0  0  0  0  0  0
   21.7492   19.0807   24.4186 H   0  0  0  0  0  0  0  0  0  0  0  0
   22.2259   19.8628   22.4707 C   0  0  0  0  0  0  0  0  0  0  0  0
   22.7262   18.9392   22.1476 H   0  0  0  0  0  0  0  0  0  0  0  0
   23.0120   20.5000   22.8994 H   0  0  0  0  0  0  0  0  0  0  0  0
   21.6261   20.5776   21.2401 C   0  0  0  0  0  0  0  0  0  0  0  0
   21.0683   21.4754   21.5361 H   0  0  0  0  0  0  0  0  0  0  0  0
   20.9528   19.9146   20.6828 H   0  0  0  0  0  0  0  0  0  0  0  0
   22.4224   20.8890   20.5518 H   0  0  0  0  0  0  0  0  0  0  0  0
  1  2  1  0  0  0  0
  1  3  1  0  0  0  0
  1  4  1  0  0  0  0
  1  5  1  0  0  0  0
  5  6  1  0  0  0  0
  5  7  1  0  0  0  0
  5  8  1  0  0  0  0
  8  9  1  0  0  0  0
  8 10  1  0  0  0  0
  8 11  1  0  0  0  0
 11 12  1  0  0  0  0
 11 13  1  0  0  0  0
 11 14  1  0  0  0  0
 14 15  1  0  0  0  0
 14 16  1  0  0  0  0
 14 17  1  0  0  0  0
 17 18  1  0  0  0  0
 17 19  1  0  0  0  0
 17 20  1  0  0  0  0
 20 21  1  0  0  0  0
 20 22  1  0  0  0  0
 20 23  1  0  0  0  0
M  END
> <VConfSearch Rank>
392

> <Conf_Id>
55

> <Delta U+W>
3.232

> <U+W>
-5.150

> <U>
50.625

> <W>
-55.776

> <W(PB)>
-57.839

> <W(SA)>
2.064

> <Valence>
4.837

> <Coulomb>
45.097

> <VdW>
0.692

> <VdW6>
-6.655

> <VdW12>
7.347

> <Bond>
0.223

> <Angle>
1.167

> <Pdih>
3.447

> <Idih>
0.000

> <Tether>
0.000

$$$$
VeraChem MOL file


 23 22  0  0  0  0  0  0  0  0999 V2000     
   18.5526   16.4405   23.8244 N   0  3  0  0  0  0  0  0  0  0  0  0
   17.9385   16.4735   24.6445 H   0  0  0  0  0  0  0  0  0  0  0  0
   19.0869   15.5673   23.8876 H   0  0  0  0  0  0  0  0  0  0  0  0
   17.9493   16.3619   22.9993 H   0  0  0  0  0  0  0  0  0  0  0  0
   19.4596   17.6518   23.7486 C   0  0  0  0  0  0  0  0  0  0  0  0
   20.1054   17.5306   22.8770 H   0  0  0  0  0  0  0  0  0  0  0  0
   20.0902   17.6556   24.6418 H   0  0  0  0  0  0  0  0  0  0  0  0
   18.6839   18.9807   23.6597 C   0  0  0  0  0  0  0  0  0  0  0  0
   18.0108   18.9731   22.7921 H   0  0  0  0  0  0  0  0  0  0  0  0
   18.0434   19.0609   24.5482 H   0  0  0  0  0  0  0  0  0  0  0  0
   19.6091   20.2227   23.6056 C   0  0  0  0  0  0  0  0  0  0  0  0
   20.4810   20.0712   24.2571 H   0  0  0  0  0  0  0  0  0  0  0  0
   19.0628   21.0743   24.0343 H   0  0  0  0  0  0  0  0  0  0  0  0
   20.0714   20.6328   22.1831 C   0  0  0  0  0  0  0  0  0  0  0  0
   19.1938   20.8830   21.5711 H   0  0  0  0  0  0  0  0  0  0  0  0
   20.6569   21.5588   22.2680 H   0  0  0  0  0  0  0  0  0  0  0  0
   20.9210   19.5691   21.4502 C   0  0  0  0  0  0  0  0  0  0  0  0
   20.3027   18.6926   21.2168 H   0  0  0  0  0  0  0  0  0  0  0  0
   21.7375   19.2285   22.1021 H   0  0  0  0  0  0  0  0  0  0  0  0
   21.5120   20.1200   20.1349 C   0  0  0  0  0  0  0  0  0  0  0  0
   22.1711   20.9770   20.3259 H   0  0  0  0  0  0  0  0  0  0  0  0
   20.7172   20.4455   19.4511 H   0  0  0  0  0  0  0  0  0  0  0  0
   22.1025   19.3494   19.6226 H   0  0  0  0  0  0  0  0  0  0  0  0
  1  2  1  0  0  0  0
  1  3  1  0  0  0  0
  1  4  1  0  0  0  0
  1  5  1  0  0  0  0
  5  6  1  0  0  0  0
  5  7  1  0  0  0  0
  5  8  1  0  0  0  0
  8  9  1  0  0  0  0
  8 10  1  0  0  0  0
  8 11  1  0  0  0  0
 11 12  1  0  0  0  0
 11 13  1  0  0  0  0
 11 14  1  0  0  0  0
 14 15  1  0  0  0  0
 14 16  1  0  0  0  0
 14 17  1  0  0  0  0
 17 18  1  0  0  0  0
 17 19  1  0  0  0  0
 17 20  1  0  0  0  0
 20 21  1  0  0  0  0
 20 22  1  0  0  0  0
 20 23  1  0  0  0  0
M  END
> <VConfSearch Rank>
393

> <Conf_Id>
93

> <Delta U+W>
2.589

> <U+W>
-5.793

> <U>
50.122

> <W>
-55.915

> <W(PB)>
-58.031

> <W(SA)>
2.115

> <Valence>
4.132

> <Coulomb>
45.536

> <VdW>
0.454

> <VdW6>
-6.262

> <VdW12>
6.715

> <Bond>
0.182

> <Angle>
1.157

> <Pdih>
2.794

> <Idih>
0.000

> <Tether>
0.000

$$$$
VeraChem MOL file


 23 22  0  0  0  0  0  0  0  0999 V2000     
   16.8720   18.3982   23.8069 N   0  3  0  0  0  0  0  0  0  0  0  0
   17.3163   17.9930   24.6370 H   0  0  0  0  0  0  0  0  0  0  0  0
   16.2681   17.6719   23.4072 H   0  0  0  0  0  0  0  0  0  0  0  0
   16.2567   19.1511   24.1317 H   0  0  0  0  0  0  0  0  0  0  0  0
   17.8933   18.8960   22.8045 C   0  0  0  0  0  0  0  0  0  0  0  0
   17.3518   19.2858   21.9384 H   0  0  0  0  0  0  0  0  0  0  0  0
   18.4851   18.0390   22.4780 H   0  0  0  0  0  0  0  0  0  0  0  0
   18.8116   19.9946   23.3752 C   0  0  0  0  0  0  0  0  0  0  0  0
   18.1796   20.8329   23.6974 H   0  0  0  0  0  0  0  0  0  0  0  0
   19.3279   19.6324   24.2742 H   0  0  0  0  0  0  0  0  0  0  0  0
   19.8421   20.5220   22.3449 C   0  0  0  0  0  0  0  0  0  0  0  0
   20.0889   21.5596   22.6094 H   0  0  0  0  0  0  0  0  0  0  0  0
   19.3850   20.5708   21.3467 H   0  0  0  0  0  0  0  0  0  0  0  0
   21.1722   19.7267   22.2839 C   0  0  0  0  0  0  0  0  0  0  0  0
   21.8416   20.2347   21.5758 H   0  0  0  0  0  0  0  0  0  0  0  0
   21.6716   19.7733   23.2614 H   0  0  0  0  0  0  0  0  0  0  0  0
   21.0200   18.2487   21.8560 C   0  0  0  0  0  0  0  0  0  0  0  0
   20.4213   18.1853   20.9366 H   0  0  0  0  0  0  0  0  0  0  0  0
   20.4848   17.6878   22.6331 H   0  0  0  0  0  0  0  0  0  0  0  0
   22.3912   17.5800   21.6211 C   0  0  0  0  0  0  0  0  0  0  0  0
   22.2651   16.5294   21.3291 H   0  0  0  0  0  0  0  0  0  0  0  0
   23.0037   17.6054   22.5319 H   0  0  0  0  0  0  0  0  0  0  0  0
   22.9466   18.0870   20.8213 H   0  0  0  0  0  0  0  0  0  0  0  0
  1  2  1  0  0  0  0
  1  3  1  0  0  0  0
  1  4  1  0  0  0  0
  1  5  1  0  0  0  0
  5  6  1  0  0  0  0
  5  7  1  0  0  0  0
  5  8  1  0  0  0  0
  8  9  1  0  0  0  0
  8 10  1  0  0  0  0
  8 11  1  0  0  0  0
 11 12  1  0  0  0  0
 11 13  1  0  0  0  0
 11 14  1  0  0  0  0
 14 15  1  0  0  0  0
 14 16  1  0  0  0  0
 14 17  1  0  0  0  0
 17 18  1  0  0  0  0
 17 19  1  0  0  0  0
 17 20  1  0  0  0  0
 20 21  1  0  0  0  0
 20 22  1  0  0  0  0
 20 23  1  0  0  0  0
M  END
> <VConfSearch Rank>
394

> <Conf_Id>
70

> <Delta U+W>
2.599

> <U+W>
-5.783

> <U>
50.122

> <W>
-55.906

> <W(PB)>
-58.010

> <W(SA)>
2.105

> <Valence>
4.132

> <Coulomb>
45.536

> <VdW>
0.454

> <VdW6>
-6.262

> <VdW12>
6.715

> <Bond>
0.182

> <Angle>
1.157

> <Pdih>
2.794

> <Idih>
0.000

> <Tether>
0.000

$$$$
VeraChem MOL file


 23 22  0  0  0  0  0  0  0  0999 V2000     
   21.3471   16.7122   23.3355 N   0  3  0  0  0  0  0  0  0  0  0  0
   22.1824   16.3856   22.8394 H   0  0  0  0  0  0  0  0  0  0  0  0
   21.0754   15.9677   23.9864 H   0  0  0  0  0  0  0  0  0  0  0  0
   21.6268   17.5194   23.9008 H   0  0  0  0  0  0  0  0  0  0  0  0
   20.2246   17.0616   22.3783 C   0  0  0  0  0  0  0  0  0  0  0  0
   19.3575   17.3684   22.9691 H   0  0  0  0  0  0  0  0  0  0  0  0
   19.9585   16.1531   21.8312 H   0  0  0  0  0  0  0  0  0  0  0  0
   20.5913   18.1745   21.3760 C   0  0  0  0  0  0  0  0  0  0  0  0
   21.4409   17.8417   20.7651 H   0  0  0  0  0  0  0  0  0  0  0  0
   19.7563   18.3110   20.6770 H   0  0  0  0  0  0  0  0  0  0  0  0
   20.9426   19.5314   22.0413 C   0  0  0  0  0  0  0  0  0  0  0  0
   21.1493   20.2688   21.2535 H   0  0  0  0  0  0  0  0  0  0  0  0
   21.8806   19.4271   22.6029 H   0  0  0  0  0  0  0  0  0  0  0  0
   19.8523   20.0957   22.9887 C   0  0  0  0  0  0  0  0  0  0  0  0
   19.6993   19.4139   23.8358 H   0  0  0  0  0  0  0  0  0  0  0  0
   20.2220   21.0361   23.4205 H   0  0  0  0  0  0  0  0  0  0  0  0
   18.5008   20.3636   22.2854 C   0  0  0  0  0  0  0  0  0  0  0  0
   18.0777   19.4235   21.9072 H   0  0  0  0  0  0  0  0  0  0  0  0
   18.6585   21.0154   21.4147 H   0  0  0  0  0  0  0  0  0  0  0  0
   17.4829   21.0224   23.2404 C   0  0  0  0  0  0  0  0  0  0  0  0
   16.5298   21.2029   22.7265 H   0  0  0  0  0  0  0  0  0  0  0  0
   17.8543   21.9873   23.6094 H   0  0  0  0  0  0  0  0  0  0  0  0
   17.2818   20.3794   24.1072 H   0  0  0  0  0  0  0  0  0  0  0  0
  1  2  1  0  0  0  0
  1  3  1  0  0  0  0
  1  4  1  0  0  0  0
  1  5  1  0  0  0  0
  5  6  1  0  0  0  0
  5  7  1  0  0  0  0
  5  8  1  0  0  0  0
  8  9  1  0  0  0  0
  8 10  1  0  0  0  0
  8 11  1  0  0  0  0
 11 12  1  0  0  0  0
 11 13  1  0  0  0  0
 11 14  1  0  0  0  0
 14 15  1  0  0  0  0
 14 16  1  0  0  0  0
 14 17  1  0  0  0  0
 17 18  1  0  0  0  0
 17 19  1  0  0  0  0
 17 20  1  0  0  0  0
 20 21  1  0  0  0  0
 20 22  1  0  0  0  0
 20 23  1  0  0  0  0
M  END
> <VConfSearch Rank>
395

> <Conf_Id>
72

> <Delta U+W>
1.051

> <U+W>
-7.331

> <U>
48.590

> <W>
-55.922

> <W(PB)>
-58.012

> <W(SA)>
2.090

> <Valence>
2.601

> <Coulomb>
45.520

> <VdW>
0.469

> <VdW6>
-6.867

> <VdW12>
7.336

> <Bond>
0.205

> <Angle>
0.962

> <Pdih>
1.434

> <Idih>
0.000

> <Tether>
0.000

$$$$
VeraChem MOL file


 23 22  0  0  0  0  0  0  0  0999 V2000     
   18.6863   19.8424   25.4266 N   0  3  0  0  0  0  0  0  0  0  0  0
   18.3815   20.7640   25.7580 H   0  0  0  0  0  0  0  0  0  0  0  0
   19.1249   19.3697   26.2235 H   0  0  0  0  0  0  0  0  0  0  0  0
   17.8394   19.3149   25.1918 H   0  0  0  0  0  0  0  0  0  0  0  0
   19.6298   19.9526   24.2462 C   0  0  0  0  0  0  0  0  0  0  0  0
   20.4923   20.5482   24.5572 H   0  0  0  0  0  0  0  0  0  0  0  0
   19.1094   20.4904   23.4493 H   0  0  0  0  0  0  0  0  0  0  0  0
   20.1063   18.5844   23.7240 C   0  0  0  0  0  0  0  0  0  0  0  0
   20.5941   18.0378   24.5419 H   0  0  0  0  0  0  0  0  0  0  0  0
   19.2404   17.9808   23.4236 H   0  0  0  0  0  0  0  0  0  0  0  0
   21.1007   18.7088   22.5430 C   0  0  0  0  0  0  0  0  0  0  0  0
   21.4180   17.7041   22.2334 H   0  0  0  0  0  0  0  0  0  0  0  0
   22.0117   19.2103   22.8978 H   0  0  0  0  0  0  0  0  0  0  0  0
   20.5569   19.4835   21.3122 C   0  0  0  0  0  0  0  0  0  0  0  0
   20.3959   20.5352   21.5849 H   0  0  0  0  0  0  0  0  0  0  0  0
   21.3334   19.4963   20.5350 H   0  0  0  0  0  0  0  0  0  0  0  0
   19.2490   18.9180   20.7023 C   0  0  0  0  0  0  0  0  0  0  0  0
   18.9567   19.5508   19.8527 H   0  0  0  0  0  0  0  0  0  0  0  0
   18.4283   18.9921   21.4283 H   0  0  0  0  0  0  0  0  0  0  0  0
   19.3823   17.4583   20.2124 C   0  0  0  0  0  0  0  0  0  0  0  0
   20.2060   17.3571   19.4940 H   0  0  0  0  0  0  0  0  0  0  0  0
   18.4598   17.1342   19.7135 H   0  0  0  0  0  0  0  0  0  0  0  0
   19.5667   16.7694   21.0461 H   0  0  0  0  0  0  0  0  0  0  0  0
  1  2  1  0  0  0  0
  1  3  1  0  0  0  0
  1  4  1  0  0  0  0
  1  5  1  0  0  0  0
  5  6  1  0  0  0  0
  5  7  1  0  0  0  0
  5  8  1  0  0  0  0
  8  9  1  0  0  0  0
  8 10  1  0  0  0  0
  8 11  1  0  0  0  0
 11 12  1  0  0  0  0
 11 13  1  0  0  0  0
 11 14  1  0  0  0  0
 14 15  1  0  0  0  0
 14 16  1  0  0  0  0
 14 17  1  0  0  0  0
 17 18  1  0  0  0  0
 17 19  1  0  0  0  0
 17 20  1  0  0  0  0
 20 21  1  0  0  0  0
 20 22  1  0  0  0  0
 20 23  1  0  0  0  0
M  END
> <VConfSearch Rank>
396

> <Conf_Id>
26

> <Delta U+W>
1.076

> <U+W>
-7.306

> <U>
48.641

> <W>
-55.947

> <W(PB)>
-58.031

> <W(SA)>
2.084

> <Valence>
2.922

> <Coulomb>
45.269

> <VdW>
0.449

> <VdW6>
-7.045

> <VdW12>
7.494

> <Bond>
0.220

> <Angle>
1.205

> <Pdih>
1.497

> <Idih>
0.000

> <Tether>
0.000

$$$$
VeraChem MOL file


 23 22  0  0  0  0  0  0  0  0999 V2000     
   17.4356   20.9276   23.2566 N   0  3  0  0  0  0  0  0  0  0  0  0
   16.9466   20.7380   24.1374 H   0  0  0  0  0  0  0  0  0  0  0  0
   16.7553   21.3667   22.6270 H   0  0  0  0  0  0  0  0  0  0  0  0
   18.1544   21.6306   23.4560 H   0  0  0  0  0  0  0  0  0  0  0  0
   18.0269   19.6683   22.6564 C   0  0  0  0  0  0  0  0  0  0  0  0
   18.5034   19.9388   21.7105 H   0  0  0  0  0  0  0  0  0  0  0  0
   17.2064   18.9778   22.4435 H   0  0  0  0  0  0  0  0  0  0  0  0
   19.0536   18.9842   23.5782 C   0  0  0  0  0  0  0  0  0  0  0  0
   19.8712   19.6809   23.8031 H   0  0  0  0  0  0  0  0  0  0  0  0
   18.5748   18.7507   24.5384 H   0  0  0  0  0  0  0  0  0  0  0  0
   19.6229   17.6772   22.9725 C   0  0  0  0  0  0  0  0  0  0  0  0
   18.8062   16.9496   22.8679 H   0  0  0  0  0  0  0  0  0  0  0  0
   20.3285   17.2291   23.6848 H   0  0  0  0  0  0  0  0  0  0  0  0
   20.3150   17.8459   21.5929 C   0  0  0  0  0  0  0  0  0  0  0  0
   20.6925   16.8665   21.2682 H   0  0  0  0  0  0  0  0  0  0  0  0
   19.5673   18.1366   20.8428 H   0  0  0  0  0  0  0  0  0  0  0  0
   21.4808   18.8666   21.5604 C   0  0  0  0  0  0  0  0  0  0  0  0
   21.1081   19.8762   21.7793 H   0  0  0  0  0  0  0  0  0  0  0  0
   21.8806   18.9090   20.5376 H   0  0  0  0  0  0  0  0  0  0  0  0
   22.6316   18.5136   22.5298 C   0  0  0  0  0  0  0  0  0  0  0  0
   22.3064   18.5657   23.5762 H   0  0  0  0  0  0  0  0  0  0  0  0
   23.4665   19.2157   22.4076 H   0  0  0  0  0  0  0  0  0  0  0  0
   23.0125   17.5021   22.3379 H   0  0  0  0  0  0  0  0  0  0  0  0
  1  2  1  0  0  0  0
  1  3  1  0  0  0  0
  1  4  1  0  0  0  0
  1  5  1  0  0  0  0
  5  6  1  0  0  0  0
  5  7  1  0  0  0  0
  5  8  1  0  0  0  0
  8  9  1  0  0  0  0
  8 10  1  0  0  0  0
  8 11  1  0  0  0  0
 11 12  1  0  0  0  0
 11 13  1  0  0  0  0
 11 14  1  0  0  0  0
 14 15  1  0  0  0  0
 14 16  1  0  0  0  0
 14 17  1  0  0  0  0
 17 18  1  0  0  0  0
 17 19  1  0  0  0  0
 17 20  1  0  0  0  0
 20 21  1  0  0  0  0
 20 22  1  0  0  0  0
 20 23  1  0  0  0  0
M  END
> <VConfSearch Rank>
397

> <Conf_Id>
90

> <Delta U+W>
1.131

> <U+W>
-7.251

> <U>
48.641

> <W>
-55.892

> <W(PB)>
-57.962

> <W(SA)>
2.070

> <Valence>
2.922

> <Coulomb>
45.269

> <VdW>
0.450

> <VdW6>
-7.045

> <VdW12>
7.495

> <Bond>
0.220

> <Angle>
1.205

> <Pdih>
1.497

> <Idih>
0.000

> <Tether>
0.000

$$$$
VeraChem MOL file


 23 22  0  0  0  0  0  0  0  0999 V2000     
   18.2853   16.7947   22.3275 N   0  3  0  0  0  0  0  0  0  0  0  0
   17.2807   16.5984   22.2625 H   0  0  0  0  0  0  0  0  0  0  0  0
   18.4310   17.3401   23.1825 H   0  0  0  0  0  0  0  0  0  0  0  0
   18.7582   15.8946   22.4570 H   0  0  0  0  0  0  0  0  0  0  0  0
   18.7963   17.5280   21.1030 C   0  0  0  0  0  0  0  0  0  0  0  0
   18.2324   18.4593   21.0058 H   0  0  0  0  0  0  0  0  0  0  0  0
   18.5795   16.9079   20.2289 H   0  0  0  0  0  0  0  0  0  0  0  0
   20.3069   17.8355   21.1503 C   0  0  0  0  0  0  0  0  0  0  0  0
   20.8649   16.8910   21.2002 H   0  0  0  0  0  0  0  0  0  0  0  0
   20.5987   18.3133   20.2056 H   0  0  0  0  0  0  0  0  0  0  0  0
   20.7282   18.7429   22.3334 C   0  0  0  0  0  0  0  0  0  0  0  0
   21.8160   18.8912   22.2907 H   0  0  0  0  0  0  0  0  0  0  0  0
   20.5270   18.2264   23.2805 H   0  0  0  0  0  0  0  0  0  0  0  0
   20.0262   20.1243   22.3184 C   0  0  0  0  0  0  0  0  0  0  0  0
   20.1682   20.5876   21.3322 H   0  0  0  0  0  0  0  0  0  0  0  0
   18.9430   20.0006   22.4492 H   0  0  0  0  0  0  0  0  0  0  0  0
   20.5598   21.0954   23.3990 C   0  0  0  0  0  0  0  0  0  0  0  0
   20.0906   22.0784   23.2526 H   0  0  0  0  0  0  0  0  0  0  0  0
   21.6397   21.2473   23.2624 H   0  0  0  0  0  0  0  0  0  0  0  0
   20.2800   20.6199   24.8429 C   0  0  0  0  0  0  0  0  0  0  0  0
   19.2091   20.4354   24.9975 H   0  0  0  0  0  0  0  0  0  0  0  0
   20.5966   21.3826   25.5662 H   0  0  0  0  0  0  0  0  0  0  0  0
   20.8261   19.6977   25.0769 H   0  0  0  0  0  0  0  0  0  0  0  0
  1  2  1  0  0  0  0
  1  3  1  0  0  0  0
  1  4  1  0  0  0  0
  1  5  1  0  0  0  0
  5  6  1  0  0  0  0
  5  7  1  0  0  0  0
  5  8  1  0  0  0  0
  8  9  1  0  0  0  0
  8 10  1  0  0  0  0
  8 11  1  0  0  0  0
 11 12  1  0  0  0  0
 11 13  1  0  0  0  0
 11 14  1  0  0  0  0
 14 15  1  0  0  0  0
 14 16  1  0  0  0  0
 14 17  1  0  0  0  0
 17 18  1  0  0  0  0
 17 19  1  0  0  0  0
 17 20  1  0  0  0  0
 20 21  1  0  0  0  0
 20 22  1  0  0  0  0
 20 23  1  0  0  0  0
M  END
> <VConfSearch Rank>
398

> <Conf_Id>
85

> <Delta U+W>
1.193

> <U+W>
-7.189

> <U>
48.775

> <W>
-55.965

> <W(PB)>
-58.038

> <W(SA)>
2.073

> <Valence>
2.602

> <Coulomb>
45.581

> <VdW>
0.592

> <VdW6>
-6.616

> <VdW12>
7.208

> <Bond>
0.196

> <Angle>
0.832

> <Pdih>
1.574

> <Idih>
0.000

> <Tether>
0.000

$$$$
VeraChem MOL file


 23 22  0  0  0  0  0  0  0  0999 V2000     
   20.8103   17.1908   22.2504 N   0  3  0  0  0  0  0  0  0  0  0  0
   20.9928   18.1949   22.1538 H   0  0  0  0  0  0  0  0  0  0  0  0
   21.1570   16.7321   21.4009 H   0  0  0  0  0  0  0  0  0  0  0  0
   21.3831   16.8493   23.0291 H   0  0  0  0  0  0  0  0  0  0  0  0
   19.3360   16.9171   22.4765 C   0  0  0  0  0  0  0  0  0  0  0  0
   19.2232   15.8336   22.5706 H   0  0  0  0  0  0  0  0  0  0  0  0
   18.7801   17.2403   21.5924 H   0  0  0  0  0  0  0  0  0  0  0  0
   18.7581   17.5945   23.7358 C   0  0  0  0  0  0  0  0  0  0  0  0
   17.8554   17.0415   24.0277 H   0  0  0  0  0  0  0  0  0  0  0  0
   19.4602   17.4826   24.5726 H   0  0  0  0  0  0  0  0  0  0  0  0
   18.3647   19.0864   23.5638 C   0  0  0  0  0  0  0  0  0  0  0  0
   17.9205   19.4202   24.5119 H   0  0  0  0  0  0  0  0  0  0  0  0
   17.5647   19.1796   22.8163 H   0  0  0  0  0  0  0  0  0  0  0  0
   19.5332   20.0447   23.2179 C   0  0  0  0  0  0  0  0  0  0  0  0
   19.3595   21.0040   23.7253 H   0  0  0  0  0  0  0  0  0  0  0  0
   20.4748   19.6589   23.6304 H   0  0  0  0  0  0  0  0  0  0  0  0
   19.6617   20.3264   21.7009 C   0  0  0  0  0  0  0  0  0  0  0  0
   18.7679   20.8650   21.3557 H   0  0  0  0  0  0  0  0  0  0  0  0
   19.6921   19.3928   21.1266 H   0  0  0  0  0  0  0  0  0  0  0  0
   20.9154   21.1677   21.3810 C   0  0  0  0  0  0  0  0  0  0  0  0
   20.8851   22.1333   21.9025 H   0  0  0  0  0  0  0  0  0  0  0  0
   20.9818   21.3699   20.3040 H   0  0  0  0  0  0  0  0  0  0  0  0
   21.8330   20.6463   21.6826 H   0  0  0  0  0  0  0  0  0  0  0  0
  1  2  1  0  0  0  0
  1  3  1  0  0  0  0
  1  4  1  0  0  0  0
  1  5  1  0  0  0  0
  5  6  1  0  0  0  0
  5  7  1  0  0  0  0
  5  8  1  0  0  0  0
  8  9  1  0  0  0  0
  8 10  1  0  0  0  0
  8 11  1  0  0  0  0
 11 12  1  0  0  0  0
 11 13  1  0  0  0  0
 11 14  1  0  0  0  0
 14 15  1  0  0  0  0
 14 16  1  0  0  0  0
 14 17  1  0  0  0  0
 17 18  1  0  0  0  0
 17 19  1  0  0  0  0
 17 20  1  0  0  0  0
 20 21  1  0  0  0  0
 20 22  1  0  0  0  0
 20 23  1  0  0  0  0
M  END
> <VConfSearch Rank>
399

> <Conf_Id>
82

> <Delta U+W>
5.994

> <U+W>
-2.388

> <U>
52.836

> <W>
-55.224

> <W(PB)>
-57.261

> <W(SA)>
2.037

> <Valence>
5.785

> <Coulomb>
46.744

> <VdW>
0.307

> <VdW6>
-7.672

> <VdW12>
7.979

> <Bond>
0.217

> <Angle>
1.470

> <Pdih>
4.098

> <Idih>
0.000

> <Tether>
0.000

$$$$
VeraChem MOL file


 23 22  0  0  0  0  0  0  0  0999 V2000     
   19.8284   19.3705   20.5253 N   0  3  0  0  0  0  0  0  0  0  0  0
   20.3389   18.7252   19.9137 H   0  0  0  0  0  0  0  0  0  0  0  0
   19.1724   19.8892   19.9312 H   0  0  0  0  0  0  0  0  0  0  0  0
   19.2731   18.8030   21.1735 H   0  0  0  0  0  0  0  0  0  0  0  0
   20.7681   20.2988   21.2703 C   0  0  0  0  0  0  0  0  0  0  0  0
   20.1725   21.0052   21.8545 H   0  0  0  0  0  0  0  0  0  0  0  0
   21.3222   20.8646   20.5163 H   0  0  0  0  0  0  0  0  0  0  0  0
   21.7697   19.5713   22.1902 C   0  0  0  0  0  0  0  0  0  0  0  0
   22.1794   18.6939   21.6723 H   0  0  0  0  0  0  0  0  0  0  0  0
   22.6211   20.2448   22.3553 H   0  0  0  0  0  0  0  0  0  0  0  0
   21.2143   19.1604   23.5805 C   0  0  0  0  0  0  0  0  0  0  0  0
   20.9271   20.0558   24.1491 H   0  0  0  0  0  0  0  0  0  0  0  0
   22.0420   18.7080   24.1440 H   0  0  0  0  0  0  0  0  0  0  0  0
   20.0419   18.1465   23.5530 C   0  0  0  0  0  0  0  0  0  0  0  0
   20.1124   17.5094   22.6614 H   0  0  0  0  0  0  0  0  0  0  0  0
   20.1480   17.4672   24.4104 H   0  0  0  0  0  0  0  0  0  0  0  0
   18.6512   18.8199   23.6499 C   0  0  0  0  0  0  0  0  0  0  0  0
   18.5442   19.6155   22.9030 H   0  0  0  0  0  0  0  0  0  0  0  0
   18.5534   19.3094   24.6292 H   0  0  0  0  0  0  0  0  0  0  0  0
   17.5085   17.7968   23.4785 C   0  0  0  0  0  0  0  0  0  0  0  0
   17.5538   17.3096   22.4960 H   0  0  0  0  0  0  0  0  0  0  0  0
   16.5312   18.2893   23.5652 H   0  0  0  0  0  0  0  0  0  0  0  0
   17.5604   17.0160   24.2486 H   0  0  0  0  0  0  0  0  0  0  0  0
  1  2  1  0  0  0  0
  1  3  1  0  0  0  0
  1  4  1  0  0  0  0
  1  5  1  0  0  0  0
  5  6  1  0  0  0  0
  5  7  1  0  0  0  0
  5  8  1  0  0  0  0
  8  9  1  0  0  0  0
  8 10  1  0  0  0  0
  8 11  1  0  0  0  0
 11 12  1  0  0  0  0
 11 13  1  0  0  0  0
 11 14  1  0  0  0  0
 14 15  1  0  0  0  0
 14 16  1  0  0  0  0
 14 17  1  0  0  0  0
 17 18  1  0  0  0  0
 17 19  1  0  0  0  0
 17 20  1  0  0  0  0
 20 21  1  0  0  0  0
 20 22  1  0  0  0  0
 20 23  1  0  0  0  0
M  END
> <VConfSearch Rank>
400

> <Conf_Id>
5

> <Delta U+W>
6.087

> <U+W>
-2.295

> <U>
52.836

> <W>
-55.131

> <W(PB)>
-57.202

> <W(SA)>
2.071

> <Valence>
5.785

> <Coulomb>
46.744

> <VdW>
0.307

> <VdW6>
-7.672

> <VdW12>
7.980

> <Bond>
0.217

> <Angle>
1.470

> <Pdih>
4.098

> <Idih>
0.000

> <Tether>
0.000

$$$$
VeraChem MOL file


 23 22  0  0  0  0  0  0  0  0999 V2000     
   22.2634   18.6427   25.5023 N   0  3  0  0  0  0  0  0  0  0  0  0
   22.9654   18.1058   24.9830 H   0  0  0  0  0  0  0  0  0  0  0  0
   22.2943   18.3129   26.4730 H   0  0  0  0  0  0  0  0  0  0  0  0
   22.5753   19.6192   25.5097 H   0  0  0  0  0  0  0  0  0  0  0  0
   20.8802   18.4952   24.9015 C   0  0  0  0  0  0  0  0  0  0  0  0
   20.1814   19.0662   25.5190 H   0  0  0  0  0  0  0  0  0  0  0  0
   20.6007   17.4394   24.9529 H   0  0  0  0  0  0  0  0  0  0  0  0
   20.8001   18.9819   23.4437 C   0  0  0  0  0  0  0  0  0  0  0  0
   21.0972   20.0381   23.3946 H   0  0  0  0  0  0  0  0  0  0  0  0
   21.5151   18.4171   22.8306 H   0  0  0  0  0  0  0  0  0  0  0  0
   19.3760   18.8147   22.8691 C   0  0  0  0  0  0  0  0  0  0  0  0
   18.6630   19.3768   23.4883 H   0  0  0  0  0  0  0  0  0  0  0  0
   19.0805   17.7576   22.9248 H   0  0  0  0  0  0  0  0  0  0  0  0
   19.2841   19.3006   21.4047 C   0  0  0  0  0  0  0  0  0  0  0  0
   19.5794   20.3575   21.3488 H   0  0  0  0  0  0  0  0  0  0  0  0
   19.9970   18.7386   20.7854 H   0  0  0  0  0  0  0  0  0  0  0  0
   17.8597   19.1331   20.8303 C   0  0  0  0  0  0  0  0  0  0  0  0
   17.1431   19.6956   21.4451 H   0  0  0  0  0  0  0  0  0  0  0  0
   17.5606   18.0767   20.8817 H   0  0  0  0  0  0  0  0  0  0  0  0
   17.7718   19.6193   19.3680 C   0  0  0  0  0  0  0  0  0  0  0  0
   16.7536   19.4925   18.9778 H   0  0  0  0  0  0  0  0  0  0  0  0
   18.4534   19.0513   18.7214 H   0  0  0  0  0  0  0  0  0  0  0  0
   18.0327   20.6828   19.2892 H   0  0  0  0  0  0  0  0  0  0  0  0
  1  2  1  0  0  0  0
  1  3  1  0  0  0  0
  1  4  1  0  0  0  0
  1  5  1  0  0  0  0
  5  6  1  0  0  0  0
  5  7  1  0  0  0  0
  5  8  1  0  0  0  0
  8  9  1  0  0  0  0
  8 10  1  0  0  0  0
  8 11  1  0  0  0  0
 11 12  1  0  0  0  0
 11 13  1  0  0  0  0
 11 14  1  0  0  0  0
 14 15  1  0  0  0  0
 14 16  1  0  0  0  0
 14 17  1  0  0  0  0
 17 18  1  0  0  0  0
 17 19  1  0  0  0  0
 17 20  1  0  0  0  0
 20 21  1  0  0  0  0
 20 22  1  0  0  0  0
 20 23  1  0  0  0  0
M  END
> <VConfSearch Rank>
401

> <Conf_Id>
40

> <Delta U+W>
0.000

> <U+W>
-8.382

> <U>
46.604

> <W>
-54.986

> <W(PB)>
-57.162

> <W(SA)>
2.176

> <Valence>
1.727

> <Coulomb>
44.434

> <VdW>
0.443

> <VdW6>
-4.623

> <VdW12>
5.066

> <Bond>
0.112

> <Angle>
0.386

> <Pdih>
1.228

> <Idih>
0.000

> <Tether>
0.000

$$$$
VeraChem MOL file


 23 22  0  0  0  0  0  0  0  0999 V2000     
   21.0946   19.1703   25.9254 N   0  3  0  0  0  0  0  0  0  0  0  0
   21.5701   18.2926   26.1587 H   0  0  0  0  0  0  0  0  0  0  0  0
   20.1970   19.1678   26.4205 H   0  0  0  0  0  0  0  0  0  0  0  0
   21.6552   19.9289   26.3284 H   0  0  0  0  0  0  0  0  0  0  0  0
   20.9152   19.3361   24.4300 C   0  0  0  0  0  0  0  0  0  0  0  0
   21.9075   19.3590   23.9715 H   0  0  0  0  0  0  0  0  0  0  0  0
   20.4330   20.3013   24.2558 H   0  0  0  0  0  0  0  0  0  0  0  0
   20.0768   18.2107   23.7946 C   0  0  0  0  0  0  0  0  0  0  0  0
   20.5478   17.2443   24.0186 H   0  0  0  0  0  0  0  0  0  0  0  0
   19.0795   18.1880   24.2540 H   0  0  0  0  0  0  0  0  0  0  0  0
   19.9396   18.3572   22.2606 C   0  0  0  0  0  0  0  0  0  0  0  0
   19.4315   17.4639   21.8746 H   0  0  0  0  0  0  0  0  0  0  0  0
   20.9385   18.3699   21.8030 H   0  0  0  0  0  0  0  0  0  0  0  0
   19.1541   19.6251   21.8385 C   0  0  0  0  0  0  0  0  0  0  0  0
   18.1480   19.6016   22.2795 H   0  0  0  0  0  0  0  0  0  0  0  0
   19.6492   20.5165   22.2458 H   0  0  0  0  0  0  0  0  0  0  0  0
   19.0407   19.7970   20.3042 C   0  0  0  0  0  0  0  0  0  0  0  0
   20.0447   19.8317   19.8586 H   0  0  0  0  0  0  0  0  0  0  0  0
   18.5774   20.7709   20.0927 H   0  0  0  0  0  0  0  0  0  0  0  0
   18.2054   18.6912   19.6195 C   0  0  0  0  0  0  0  0  0  0  0  0
   18.6934   17.7116   19.6939 H   0  0  0  0  0  0  0  0  0  0  0  0
   18.0755   18.9137   18.5525 H   0  0  0  0  0  0  0  0  0  0  0  0
   17.2073   18.6141   20.0698 H   0  0  0  0  0  0  0  0  0  0  0  0
  1  2  1  0  0  0  0
  1  3  1  0  0  0  0
  1  4  1  0  0  0  0
  1  5  1  0  0  0  0
  5  6  1  0  0  0  0
  5  7  1  0  0  0  0
  5  8  1  0  0  0  0
  8  9  1  0  0  0  0
  8 10  1  0  0  0  0
  8 11  1  0  0  0  0
 11 12  1  0  0  0  0
 11 13  1  0  0  0  0
 11 14  1  0  0  0  0
 14 15  1  0  0  0  0
 14 16  1  0  0  0  0
 14 17  1  0  0  0  0
 17 18  1  0  0  0  0
 17 19  1  0  0  0  0
 17 20  1  0  0  0  0
 20 21  1  0  0  0  0
 20 22  1  0  0  0  0
 20 23  1  0  0  0  0
M  END
> <VConfSearch Rank>
402

> <Conf_Id>
65

> <Delta U+W>
1.004

> <U+W>
-7.378

> <U>
48.047

> <W>
-55.425

> <W(PB)>
-57.542

> <W(SA)>
2.116

> <Valence>
2.583

> <Coulomb>
44.791

> <VdW>
0.673

> <VdW6>
-5.788

> <VdW12>
6.462

> <Bond>
0.177

> <Angle>
0.787

> <Pdih>
1.619

> <Idih>
0.000

> <Tether>
0.000

$$$$
VeraChem MOL file


 23 22  0  0  0  0  0  0  0  0999 V2000     
   22.1170   16.6072   23.8059 N   0  3  0  0  0  0  0  0  0  0  0  0
   21.9580   15.7010   23.3538 H   0  0  0  0  0  0  0  0  0  0  0  0
   22.3550   16.4141   24.7847 H   0  0  0  0  0  0  0  0  0  0  0  0
   22.9499   17.0184   23.3722 H   0  0  0  0  0  0  0  0  0  0  0  0
   20.9109   17.5168   23.6887 C   0  0  0  0  0  0  0  0  0  0  0  0
   21.1400   18.4461   24.2165 H   0  0  0  0  0  0  0  0  0  0  0  0
   20.0717   17.0314   24.1942 H   0  0  0  0  0  0  0  0  0  0  0  0
   20.5278   17.8257   22.2289 C   0  0  0  0  0  0  0  0  0  0  0  0
   21.3699   18.3144   21.7210 H   0  0  0  0  0  0  0  0  0  0  0  0
   20.3471   16.8808   21.6993 H   0  0  0  0  0  0  0  0  0  0  0  0
   19.2656   18.7131   22.1143 C   0  0  0  0  0  0  0  0  0  0  0  0
   18.4225   18.2171   22.6148 H   0  0  0  0  0  0  0  0  0  0  0  0
   18.9958   18.7907   21.0531 H   0  0  0  0  0  0  0  0  0  0  0  0
   19.4641   20.1322   22.7053 C   0  0  0  0  0  0  0  0  0  0  0  0
   19.7580   20.0530   23.7602 H   0  0  0  0  0  0  0  0  0  0  0  0
   20.2940   20.6353   22.1902 H   0  0  0  0  0  0  0  0  0  0  0  0
   18.1957   21.0159   22.6248 C   0  0  0  0  0  0  0  0  0  0  0  0
   18.3851   21.9534   23.1662 H   0  0  0  0  0  0  0  0  0  0  0  0
   17.3646   20.5222   23.1477 H   0  0  0  0  0  0  0  0  0  0  0  0
   17.7714   21.3558   21.1778 C   0  0  0  0  0  0  0  0  0  0  0  0
   17.4494   20.4614   20.6304 H   0  0  0  0  0  0  0  0  0  0  0  0
   18.5966   21.8210   20.6231 H   0  0  0  0  0  0  0  0  0  0  0  0
   16.9298   22.0606   21.1802 H   0  0  0  0  0  0  0  0  0  0  0  0
  1  2  1  0  0  0  0
  1  3  1  0  0  0  0
  1  4  1  0  0  0  0
  1  5  1  0  0  0  0
  5  6  1  0  0  0  0
  5  7  1  0  0  0  0
  5  8  1  0  0  0  0
  8  9  1  0  0  0  0
  8 10  1  0  0  0  0
  8 11  1  0  0  0  0
 11 12  1  0  0  0  0
 11 13  1  0  0  0  0
 11 14  1  0  0  0  0
 14 15  1  0  0  0  0
 14 16  1  0  0  0  0
 14 17  1  0  0  0  0
 17 18  1  0  0  0  0
 17 19  1  0  0  0  0
 17 20  1  0  0  0  0
 20 21  1  0  0  0  0
 20 22  1  0  0  0  0
 20 23  1  0  0  0  0
M  END
> <VConfSearch Rank>
403

> <Conf_Id>
92

> <Delta U+W>
0.973

> <U+W>
-7.409

> <U>
48.047

> <W>
-55.456

> <W(PB)>
-57.595

> <W(SA)>
2.138

> <Valence>
2.583

> <Coulomb>
44.791

> <VdW>
0.674

> <VdW6>
-5.789

> <VdW12>
6.462

> <Bond>
0.177

> <Angle>
0.787

> <Pdih>
1.619

> <Idih>
0.000

> <Tether>
0.000

$$$$
VeraChem MOL file


 23 22  0  0  0  0  0  0  0  0999 V2000     
   21.2594   15.7806   22.7492 N   0  3  0  0  0  0  0  0  0  0  0  0
   21.2239   15.2145   23.6038 H   0  0  0  0  0  0  0  0  0  0  0  0
   22.2163   15.7139   22.3876 H   0  0  0  0  0  0  0  0  0  0  0  0
   20.6462   15.3259   22.0651 H   0  0  0  0  0  0  0  0  0  0  0  0
   20.8514   17.2167   23.0078 C   0  0  0  0  0  0  0  0  0  0  0  0
   21.5258   17.6284   23.7635 H   0  0  0  0  0  0  0  0  0  0  0  0
   19.8384   17.2086   23.4182 H   0  0  0  0  0  0  0  0  0  0  0  0
   20.8946   18.0936   21.7421 C   0  0  0  0  0  0  0  0  0  0  0  0
   21.9057   18.0574   21.3151 H   0  0  0  0  0  0  0  0  0  0  0  0
   20.2178   17.6795   20.9828 H   0  0  0  0  0  0  0  0  0  0  0  0
   20.5210   19.5682   22.0230 C   0  0  0  0  0  0  0  0  0  0  0  0
   20.6630   20.1492   21.1012 H   0  0  0  0  0  0  0  0  0  0  0  0
   21.2158   19.9874   22.7641 H   0  0  0  0  0  0  0  0  0  0  0  0
   19.0642   19.7432   22.5153 C   0  0  0  0  0  0  0  0  0  0  0  0
   18.3742   19.2937   21.7878 H   0  0  0  0  0  0  0  0  0  0  0  0
   18.9210   19.2072   23.4631 H   0  0  0  0  0  0  0  0  0  0  0  0
   18.7012   21.2315   22.7158 C   0  0  0  0  0  0  0  0  0  0  0  0
   18.8329   21.7766   21.7705 H   0  0  0  0  0  0  0  0  0  0  0  0
   19.3891   21.6864   23.4423 H   0  0  0  0  0  0  0  0  0  0  0  0
   17.2486   21.4048   23.2080 C   0  0  0  0  0  0  0  0  0  0  0  0
   16.5346   20.9888   22.4853 H   0  0  0  0  0  0  0  0  0  0  0  0
   17.0096   22.4675   23.3440 H   0  0  0  0  0  0  0  0  0  0  0  0
   17.0947   20.8992   24.1703 H   0  0  0  0  0  0  0  0  0  0  0  0
  1  2  1  0  0  0  0
  1  3  1  0  0  0  0
  1  4  1  0  0  0  0
  1  5  1  0  0  0  0
  5  6  1  0  0  0  0
  5  7  1  0  0  0  0
  5  8  1  0  0  0  0
  8  9  1  0  0  0  0
  8 10  1  0  0  0  0
  8 11  1  0  0  0  0
 11 12  1  0  0  0  0
 11 13  1  0  0  0  0
 11 14  1  0  0  0  0
 14 15  1  0  0  0  0
 14 16  1  0  0  0  0
 14 17  1  0  0  0  0
 17 18  1  0  0  0  0
 17 19  1  0  0  0  0
 17 20  1  0  0  0  0
 20 21  1  0  0  0  0
 20 22  1  0  0  0  0
 20 23  1  0  0  0  0
M  END
> <VConfSearch Rank>
404

> <Conf_Id>
42

> <Delta U+W>
0.365

> <U+W>
-8.017

> <U>
47.375

> <W>
-55.392

> <W(PB)>
-57.543

> <W(SA)>
2.152

> <Valence>
2.032

> <Coulomb>
44.843

> <VdW>
0.499

> <VdW6>
-5.218

> <VdW12>
5.717

> <Bond>
0.135

> <Angle>
0.514

> <Pdih>
1.383

> <Idih>
0.000

> <Tether>
0.000

$$$$
VeraChem MOL file


 23 22  0  0  0  0  0  0  0  0999 V2000     
   20.5519   16.6287   20.6468 N   0  3  0  0  0  0  0  0  0  0  0  0
   20.8545   17.2704   19.9070 H   0  0  0  0  0  0  0  0  0  0  0  0
   20.4265   15.7086   20.2113 H   0  0  0  0  0  0  0  0  0  0  0  0
   21.3285   16.5425   21.3092 H   0  0  0  0  0  0  0  0  0  0  0  0
   19.2829   17.1078   21.3247 C   0  0  0  0  0  0  0  0  0  0  0  0
   19.0028   16.3710   22.0823 H   0  0  0  0  0  0  0  0  0  0  0  0
   18.4943   17.1342   20.5678 H   0  0  0  0  0  0  0  0  0  0  0  0
   19.4107   18.4989   21.9758 C   0  0  0  0  0  0  0  0  0  0  0  0
   19.7189   19.2320   21.2187 H   0  0  0  0  0  0  0  0  0  0  0  0
   18.4148   18.7981   22.3248 H   0  0  0  0  0  0  0  0  0  0  0  0
   20.3993   18.5137   23.1671 C   0  0  0  0  0  0  0  0  0  0  0  0
   21.3693   18.1152   22.8418 H   0  0  0  0  0  0  0  0  0  0  0  0
   20.0363   17.8330   23.9495 H   0  0  0  0  0  0  0  0  0  0  0  0
   20.6424   19.9179   23.7789 C   0  0  0  0  0  0  0  0  0  0  0  0
   21.3881   19.8049   24.5780 H   0  0  0  0  0  0  0  0  0  0  0  0
   21.1063   20.5791   23.0341 H   0  0  0  0  0  0  0  0  0  0  0  0
   19.3847   20.5922   24.3856 C   0  0  0  0  0  0  0  0  0  0  0  0
   19.6870   21.1576   25.2783 H   0  0  0  0  0  0  0  0  0  0  0  0
   18.6745   19.8309   24.7371 H   0  0  0  0  0  0  0  0  0  0  0  0
   18.6859   21.5732   23.4152 C   0  0  0  0  0  0  0  0  0  0  0  0
   19.3669   22.3811   23.1177 H   0  0  0  0  0  0  0  0  0  0  0  0
   17.8140   22.0340   23.8971 H   0  0  0  0  0  0  0  0  0  0  0  0
   18.3368   21.0748   22.5042 H   0  0  0  0  0  0  0  0  0  0  0  0
  1  2  1  0  0  0  0
  1  3  1  0  0  0  0
  1  4  1  0  0  0  0
  1  5  1  0  0  0  0
  5  6  1  0  0  0  0
  5  7  1  0  0  0  0
  5  8  1  0  0  0  0
  8  9  1  0  0  0  0
  8 10  1  0  0  0  0
  8 11  1  0  0  0  0
 11 12  1  0  0  0  0
 11 13  1  0  0  0  0
 11 14  1  0  0  0  0
 14 15  1  0  0  0  0
 14 16  1  0  0  0  0
 14 17  1  0  0  0  0
 17 18  1  0  0  0  0
 17 19  1  0  0  0  0
 17 20  1  0  0  0  0
 20 21  1  0  0  0  0
 20 22  1  0  0  0  0
 20 23  1  0  0  0  0
M  END
> <VConfSearch Rank>
405

> <Conf_Id>
3

> <Delta U+W>
3.283

> <U+W>
-5.099

> <U>
50.701

> <W>
-55.800

> <W(PB)>
-57.867

> <W(SA)>
2.067

> <Valence>
4.880

> <Coulomb>
45.095

> <VdW>
0.726

> <VdW6>
-6.620

> <VdW12>
7.346

> <Bond>
0.222

> <Angle>
1.260

> <Pdih>
3.398

> <Idih>
0.000

> <Tether>
0.000

$$$$
VeraChem MOL file


 23 22  0  0  0  0  0  0  0  0999 V2000     
   21.0527   21.6772   22.8018 N   0  3  0  0  0  0  0  0  0  0  0  0
   20.9914   22.2343   21.9436 H   0  0  0  0  0  0  0  0  0  0  0  0
   21.5203   22.2602   23.5042 H   0  0  0  0  0  0  0  0  0  0  0  0
   20.0952   21.5199   23.1304 H   0  0  0  0  0  0  0  0  0  0  0  0
   21.7877   20.3710   22.5739 C   0  0  0  0  0  0  0  0  0  0  0  0
   21.8448   19.8428   23.5289 H   0  0  0  0  0  0  0  0  0  0  0  0
   22.8067   20.6132   22.2600 H   0  0  0  0  0  0  0  0  0  0  0  0
   21.1283   19.4653   21.5137 C   0  0  0  0  0  0  0  0  0  0  0  0
   21.1245   19.9887   20.5484 H   0  0  0  0  0  0  0  0  0  0  0  0
   21.7531   18.5730   21.3747 H   0  0  0  0  0  0  0  0  0  0  0  0
   19.6833   19.0271   21.8628 C   0  0  0  0  0  0  0  0  0  0  0  0
   19.2997   18.4259   21.0283 H   0  0  0  0  0  0  0  0  0  0  0  0
   19.0312   19.9080   21.9299 H   0  0  0  0  0  0  0  0  0  0  0  0
   19.5948   18.2075   23.1754 C   0  0  0  0  0  0  0  0  0  0  0  0
   20.2264   17.3120   23.0960 H   0  0  0  0  0  0  0  0  0  0  0  0
   20.0007   18.7990   24.0065 H   0  0  0  0  0  0  0  0  0  0  0  0
   18.1506   17.7893   23.5442 C   0  0  0  0  0  0  0  0  0  0  0  0
   17.5164   18.6821   23.6357 H   0  0  0  0  0  0  0  0  0  0  0  0
   18.1636   17.3191   24.5375 H   0  0  0  0  0  0  0  0  0  0  0  0
   17.5177   16.8025   22.5367 C   0  0  0  0  0  0  0  0  0  0  0  0
   18.1501   15.9154   22.4022 H   0  0  0  0  0  0  0  0  0  0  0  0
   17.3655   17.2689   21.5555 H   0  0  0  0  0  0  0  0  0  0  0  0
   16.5371   16.4640   22.8955 H   0  0  0  0  0  0  0  0  0  0  0  0
  1  2  1  0  0  0  0
  1  3  1  0  0  0  0
  1  4  1  0  0  0  0
  1  5  1  0  0  0  0
  5  6  1  0  0  0  0
  5  7  1  0  0  0  0
  5  8  1  0  0  0  0
  8  9  1  0  0  0  0
  8 10  1  0  0  0  0
  8 11  1  0  0  0  0
 11 12  1  0  0  0  0
 11 13  1  0  0  0  0
 11 14  1  0  0  0  0
 14 15  1  0  0  0  0
 14 16  1  0  0  0  0
 14 17  1  0  0  0  0
 17 18  1  0  0  0  0
 17 19  1  0  0  0  0
 17 20  1  0  0  0  0
 20 21  1  0  0  0  0
 20 22  1  0  0  0  0
 20 23  1  0  0  0  0
M  END
> <VConfSearch Rank>
406

> <Conf_Id>
83

> <Delta U+W>
1.229

> <U+W>
-7.154

> <U>
48.727

> <W>
-55.880

> <W(PB)>
-57.960

> <W(SA)>
2.080

> <Valence>
2.671

> <Coulomb>
45.371

> <VdW>
0.684

> <VdW6>
-6.511

> <VdW12>
7.195

> <Bond>
0.203

> <Angle>
0.915

> <Pdih>
1.554

> <Idih>
0.000

> <Tether>
0.000

$$$$
VeraChem MOL file


 23 22  0  0  0  0  0  0  0  0999 V2000     
   19.7295   17.9967   19.8604 N   0  3  0  0  0  0  0  0  0  0  0  0
   19.6196   16.9790   19.8087 H   0  0  0  0  0  0  0  0  0  0  0  0
   20.6036   18.1823   20.3615 H   0  0  0  0  0  0  0  0  0  0  0  0
   19.8557   18.3333   18.8999 H   0  0  0  0  0  0  0  0  0  0  0  0
   18.5451   18.6573   20.5380 C   0  0  0  0  0  0  0  0  0  0  0  0
   17.6576   18.4481   19.9346 H   0  0  0  0  0  0  0  0  0  0  0  0
   18.7104   19.7376   20.5326 H   0  0  0  0  0  0  0  0  0  0  0  0
   18.3069   18.1717   21.9825 C   0  0  0  0  0  0  0  0  0  0  0  0
   17.4035   18.6585   22.3733 H   0  0  0  0  0  0  0  0  0  0  0  0
   18.0912   17.0951   21.9670 H   0  0  0  0  0  0  0  0  0  0  0  0
   19.4898   18.4418   22.9465 C   0  0  0  0  0  0  0  0  0  0  0  0
   20.3810   17.8976   22.6068 H   0  0  0  0  0  0  0  0  0  0  0  0
   19.2313   18.0223   23.9274 H   0  0  0  0  0  0  0  0  0  0  0  0
   19.8212   19.9483   23.0985 C   0  0  0  0  0  0  0  0  0  0  0  0
   20.0562   20.3744   22.1143 H   0  0  0  0  0  0  0  0  0  0  0  0
   18.9364   20.4869   23.4650 H   0  0  0  0  0  0  0  0  0  0  0  0
   21.0193   20.2237   24.0394 C   0  0  0  0  0  0  0  0  0  0  0  0
   21.2590   21.2955   23.9989 H   0  0  0  0  0  0  0  0  0  0  0  0
   21.9103   19.6959   23.6716 H   0  0  0  0  0  0  0  0  0  0  0  0
   20.7518   19.8305   25.5102 C   0  0  0  0  0  0  0  0  0  0  0  0
   19.8462   20.3198   25.8914 H   0  0  0  0  0  0  0  0  0  0  0  0
   21.5915   20.1358   26.1478 H   0  0  0  0  0  0  0  0  0  0  0  0
   20.6309   18.7461   25.6230 H   0  0  0  0  0  0  0  0  0  0  0  0
  1  2  1  0  0  0  0
  1  3  1  0  0  0  0
  1  4  1  0  0  0  0
  1  5  1  0  0  0  0
  5  6  1  0  0  0  0
  5  7  1  0  0  0  0
  5  8  1  0  0  0  0
  8  9  1  0  0  0  0
  8 10  1  0  0  0  0
  8 11  1  0  0  0  0
 11 12  1  0  0  0  0
 11 13  1  0  0  0  0
 11 14  1  0  0  0  0
 14 15  1  0  0  0  0
 14 16  1  0  0  0  0
 14 17  1  0  0  0  0
 17 18  1  0  0  0  0
 17 19  1  0  0  0  0
 17 20  1  0  0  0  0
 20 21  1  0  0  0  0
 20 22  1  0  0  0  0
 20 23  1  0  0  0  0
M  END
> <VConfSearch Rank>
407

> <Conf_Id>
50

> <Delta U+W>
1.252

> <U+W>
-7.130

> <U>
48.727

> <W>
-55.857

> <W(PB)>
-57.937

> <W(SA)>
2.080

> <Valence>
2.671

> <Coulomb>
45.371

> <VdW>
0.684

> <VdW6>
-6.511

> <VdW12>
7.196

> <Bond>
0.203

> <Angle>
0.915

> <Pdih>
1.554

> <Idih>
0.000

> <Tether>
0.000

$$$$
VeraChem MOL file


 23 22  0  0  0  0  0  0  0  0999 V2000     
   21.6621   19.2242   25.1997 N   0  3  0  0  0  0  0  0  0  0  0  0
   20.9585   18.5356   25.4832 H   0  0  0  0  0  0  0  0  0  0  0  0
   21.9181   19.7540   26.0398 H   0  0  0  0  0  0  0  0  0  0  0  0
   22.4960   18.7037   24.9092 H   0  0  0  0  0  0  0  0  0  0  0  0
   21.1504   20.1304   24.0970 C   0  0  0  0  0  0  0  0  0  0  0  0
   21.9346   20.8600   23.8772 H   0  0  0  0  0  0  0  0  0  0  0  0
   20.2799   20.6709   24.4784 H   0  0  0  0  0  0  0  0  0  0  0  0
   20.7709   19.3837   22.8035 C   0  0  0  0  0  0  0  0  0  0  0  0
   20.5211   20.1278   22.0390 H   0  0  0  0  0  0  0  0  0  0  0  0
   21.6466   18.8385   22.4273 H   0  0  0  0  0  0  0  0  0  0  0  0
   19.5872   18.4034   23.0053 C   0  0  0  0  0  0  0  0  0  0  0  0
   18.7369   18.9210   23.4705 H   0  0  0  0  0  0  0  0  0  0  0  0
   19.8961   17.6254   23.7162 H   0  0  0  0  0  0  0  0  0  0  0  0
   19.1338   17.7082   21.6949 C   0  0  0  0  0  0  0  0  0  0  0  0
   19.9813   17.6082   21.0028 H   0  0  0  0  0  0  0  0  0  0  0  0
   18.8297   16.6811   21.9398 H   0  0  0  0  0  0  0  0  0  0  0  0
   17.9389   18.3893   20.9797 C   0  0  0  0  0  0  0  0  0  0  0  0
   17.0646   18.3928   21.6456 H   0  0  0  0  0  0  0  0  0  0  0  0
   17.6571   17.7768   20.1118 H   0  0  0  0  0  0  0  0  0  0  0  0
   18.2214   19.8292   20.4982 C   0  0  0  0  0  0  0  0  0  0  0  0
   19.1251   19.8691   19.8766 H   0  0  0  0  0  0  0  0  0  0  0  0
   18.3478   20.5151   21.3449 H   0  0  0  0  0  0  0  0  0  0  0  0
   17.3833   20.2034   19.8962 H   0  0  0  0  0  0  0  0  0  0  0  0
  1  2  1  0  0  0  0
  1  3  1  0  0  0  0
  1  4  1  0  0  0  0
  1  5  1  0  0  0  0
  5  6  1  0  0  0  0
  5  7  1  0  0  0  0
  5  8  1  0  0  0  0
  8  9  1  0  0  0  0
  8 10  1  0  0  0  0
  8 11  1  0  0  0  0
 11 12  1  0  0  0  0
 11 13  1  0  0  0  0
 11 14  1  0  0  0  0
 14 15  1  0  0  0  0
 14 16  1  0  0  0  0
 14 17  1  0  0  0  0
 17 18  1  0  0  0  0
 17 19  1  0  0  0  0
 17 20  1  0  0  0  0
 20 21  1  0  0  0  0
 20 22  1  0  0  0  0
 20 23  1  0  0  0  0
M  END
> <VConfSearch Rank>
408

> <Conf_Id>
55

> <Delta U+W>
3.232

> <U+W>
-5.150

> <U>
50.625

> <W>
-55.776

> <W(PB)>
-57.839

> <W(SA)>
2.064

> <Valence>
4.837

> <Coulomb>
45.097

> <VdW>
0.692

> <VdW6>
-6.655

> <VdW12>
7.347

> <Bond>
0.223

> <Angle>
1.167

> <Pdih>
3.447

> <Idih>
0.000

> <Tether>
0.000

$$$$
VeraChem MOL file


 23 22  0  0  0  0  0  0  0  0999 V2000     
   18.9782   16.2852   23.8621 N   0  3  0  0  0  0  0  0  0  0  0  0
   19.6467   15.6612   24.3254 H   0  0  0  0  0  0  0  0  0  0  0  0
   18.2900   15.6875   23.3918 H   0  0  0  0  0  0  0  0  0  0  0  0
   18.4783   16.7922   24.5994 H   0  0  0  0  0  0  0  0  0  0  0  0
   19.6628   17.2267   22.8922 C   0  0  0  0  0  0  0  0  0  0  0  0
   18.8905   17.8309   22.4129 H   0  0  0  0  0  0  0  0  0  0  0  0
   20.1482   16.6211   22.1221 H   0  0  0  0  0  0  0  0  0  0  0  0
   20.7087   18.1336   23.5698 C   0  0  0  0  0  0  0  0  0  0  0  0
   20.2446   18.7148   24.3778 H   0  0  0  0  0  0  0  0  0  0  0  0
   21.4613   17.4897   24.0441 H   0  0  0  0  0  0  0  0  0  0  0  0
   21.4270   19.0814   22.5762 C   0  0  0  0  0  0  0  0  0  0  0  0
   21.5985   18.5656   21.6212 H   0  0  0  0  0  0  0  0  0  0  0  0
   22.4257   19.3032   22.9772 H   0  0  0  0  0  0  0  0  0  0  0  0
   20.7116   20.4353   22.3300 C   0  0  0  0  0  0  0  0  0  0  0  0
   20.6394   20.9886   23.2766 H   0  0  0  0  0  0  0  0  0  0  0  0
   21.3474   21.0425   21.6707 H   0  0  0  0  0  0  0  0  0  0  0  0
   19.3057   20.3154   21.6979 C   0  0  0  0  0  0  0  0  0  0  0  0
   18.6139   19.8482   22.4106 H   0  0  0  0  0  0  0  0  0  0  0  0
   19.3483   19.6673   20.8114 H   0  0  0  0  0  0  0  0  0  0  0  0
   18.7426   21.6954   21.2964 C   0  0  0  0  0  0  0  0  0  0  0  0
   19.3852   22.1836   20.5522 H   0  0  0  0  0  0  0  0  0  0  0  0
   18.6642   22.3583   22.1681 H   0  0  0  0  0  0  0  0  0  0  0  0
   17.7406   21.5930   20.8599 H   0  0  0  0  0  0  0  0  0  0  0  0
  1  2  1  0  0  0  0
  1  3  1  0  0  0  0
  1  4  1  0  0  0  0
  1  5  1  0  0  0  0
  5  6  1  0  0  0  0
  5  7  1  0  0  0  0
  5  8  1  0  0  0  0
  8  9  1  0  0  0  0
  8 10  1  0  0  0  0
  8 11  1  0  0  0  0
 11 12  1  0  0  0  0
 11 13  1  0  0  0  0
 11 14  1  0  0  0  0
 14 15  1  0  0  0  0
 14 16  1  0  0  0  0
 14 17  1  0  0  0  0
 17 18  1  0  0  0  0
 17 19  1  0  0  0  0
 17 20  1  0  0  0  0
 20 21  1  0  0  0  0
 20 22  1  0  0  0  0
 20 23  1  0  0  0  0
M  END
> <VConfSearch Rank>
409

> <Conf_Id>
93

> <Delta U+W>
2.589

> <U+W>
-5.793

> <U>
50.122

> <W>
-55.915

> <W(PB)>
-58.031

> <W(SA)>
2.115

> <Valence>
4.132

> <Coulomb>
45.536

> <VdW>
0.454

> <VdW6>
-6.262

> <VdW12>
6.715

> <Bond>
0.182

> <Angle>
1.157

> <Pdih>
2.794

> <Idih>
0.000

> <Tether>
0.000

$$$$
VeraChem MOL file


 23 22  0  0  0  0  0  0  0  0999 V2000     
   21.0078   16.1262   22.8874 N   0  3  0  0  0  0  0  0  0  0  0  0
   20.3709   15.9234   23.6646 H   0  0  0  0  0  0  0  0  0  0  0  0
   21.9621   16.0220   23.2487 H   0  0  0  0  0  0  0  0  0  0  0  0
   20.8728   15.3897   22.1872 H   0  0  0  0  0  0  0  0  0  0  0  0
   20.7723   17.5063   22.3082 C   0  0  0  0  0  0  0  0  0  0  0  0
   21.5012   17.6640   21.5087 H   0  0  0  0  0  0  0  0  0  0  0  0
   20.9684   18.2362   23.0958 H   0  0  0  0  0  0  0  0  0  0  0  0
   19.3474   17.6904   21.7502 C   0  0  0  0  0  0  0  0  0  0  0  0
   19.1880   16.9358   20.9684 H   0  0  0  0  0  0  0  0  0  0  0  0
   18.6021   17.4895   22.5313 H   0  0  0  0  0  0  0  0  0  0  0  0
   19.1110   19.0934   21.1363 C   0  0  0  0  0  0  0  0  0  0  0  0
   18.3378   19.0011   20.3610 H   0  0  0  0  0  0  0  0  0  0  0  0
   20.0162   19.4329   20.6136 H   0  0  0  0  0  0  0  0  0  0  0  0
   18.6379   20.1761   22.1409 C   0  0  0  0  0  0  0  0  0  0  0  0
   18.4376   21.0990   21.5792 H   0  0  0  0  0  0  0  0  0  0  0  0
   17.6774   19.8730   22.5802 H   0  0  0  0  0  0  0  0  0  0  0  0
   19.6436   20.4878   23.2731 C   0  0  0  0  0  0  0  0  0  0  0  0
   20.6382   20.6807   22.8473 H   0  0  0  0  0  0  0  0  0  0  0  0
   19.7368   19.6207   23.9397 H   0  0  0  0  0  0  0  0  0  0  0  0
   19.1996   21.7071   24.1091 C   0  0  0  0  0  0  0  0  0  0  0  0
   19.9184   21.9074   24.9143 H   0  0  0  0  0  0  0  0  0  0  0  0
   18.2181   21.5337   24.5692 H   0  0  0  0  0  0  0  0  0  0  0  0
   19.1312   22.6093   23.4873 H   0  0  0  0  0  0  0  0  0  0  0  0
  1  2  1  0  0  0  0
  1  3  1  0  0  0  0
  1  4  1  0  0  0  0
  1  5  1  0  0  0  0
  5  6  1  0  0  0  0
  5  7  1  0  0  0  0
  5  8  1  0  0  0  0
  8  9  1  0  0  0  0
  8 10  1  0  0  0  0
  8 11  1  0  0  0  0
 11 12  1  0  0  0  0
 11 13  1  0  0  0  0
 11 14  1  0  0  0  0
 14 15  1  0  0  0  0
 14 16  1  0  0  0  0
 14 17  1  0  0  0  0
 17 18  1  0  0  0  0
 17 19  1  0  0  0  0
 17 20  1  0  0  0  0
 20 21  1  0  0  0  0
 20 22  1  0  0  0  0
 20 23  1  0  0  0  0
M  END
> <VConfSearch Rank>
410

> <Conf_Id>
70

> <Delta U+W>
2.599

> <U+W>
-5.783

> <U>
50.122

> <W>
-55.906

> <W(PB)>
-58.010

> <W(SA)>
2.105

> <Valence>
4.132

> <Coulomb>
45.536

> <VdW>
0.454

> <VdW6>
-6.262

> <VdW12>
6.715

> <Bond>
0.182

> <Angle>
1.157

> <Pdih>
2.794

> <Idih>
0.000

> <Tether>
0.000

$$$$
VeraChem MOL file


 23 22  0  0  0  0  0  0  0  0999 V2000     
   19.8177   16.8595   24.4742 N   0  3  0  0  0  0  0  0  0  0  0  0
   20.4684   16.0678   24.4563 H   0  0  0  0  0  0  0  0  0  0  0  0
   19.0788   16.6244   25.1454 H   0  0  0  0  0  0  0  0  0  0  0  0
   20.3275   17.6619   24.8561 H   0  0  0  0  0  0  0  0  0  0  0  0
   19.2557   17.1573   23.0981 C   0  0  0  0  0  0  0  0  0  0  0  0
   18.5477   17.9849   23.1921 H   0  0  0  0  0  0  0  0  0  0  0  0
   18.7035   16.2741   22.7656 H   0  0  0  0  0  0  0  0  0  0  0  0
   20.3336   17.5109   22.0537 C   0  0  0  0  0  0  0  0  0  0  0  0
   21.0184   16.6598   21.9424 H   0  0  0  0  0  0  0  0  0  0  0  0
   19.8516   17.6362   21.0757 H   0  0  0  0  0  0  0  0  0  0  0  0
   21.1528   18.7824   22.3990 C   0  0  0  0  0  0  0  0  0  0  0  0
   21.8636   18.9775   21.5842 H   0  0  0  0  0  0  0  0  0  0  0  0
   21.7674   18.5867   23.2879 H   0  0  0  0  0  0  0  0  0  0  0  0
   20.3058   20.0575   22.6472 C   0  0  0  0  0  0  0  0  0  0  0  0
   19.6546   19.9136   23.5196 H   0  0  0  0  0  0  0  0  0  0  0  0
   20.9862   20.8792   22.9102 H   0  0  0  0  0  0  0  0  0  0  0  0
   19.4550   20.4815   21.4269 C   0  0  0  0  0  0  0  0  0  0  0  0
   18.7179   19.7027   21.1899 H   0  0  0  0  0  0  0  0  0  0  0  0
   20.1005   20.5889   20.5440 H   0  0  0  0  0  0  0  0  0  0  0  0
   18.7138   21.8107   21.6840 C   0  0  0  0  0  0  0  0  0  0  0  0
   18.1137   22.0952   20.8099 H   0  0  0  0  0  0  0  0  0  0  0  0
   19.4217   22.6253   21.8857 H   0  0  0  0  0  0  0  0  0  0  0  0
   18.0370   21.7251   22.5440 H   0  0  0  0  0  0  0  0  0  0  0  0
  1  2  1  0  0  0  0
  1  3  1  0  0  0  0
  1  4  1  0  0  0  0
  1  5  1  0  0  0  0
  5  6  1  0  0  0  0
  5  7  1  0  0  0  0
  5  8  1  0  0  0  0
  8  9  1  0  0  0  0
  8 10  1  0  0  0  0
  8 11  1  0  0  0  0
 11 12  1  0  0  0  0
 11 13  1  0  0  0  0
 11 14  1  0  0  0  0
 14 15  1  0  0  0  0
 14 16  1  0  0  0  0
 14 17  1  0  0  0  0
 17 18  1  0  0  0  0
 17 19  1  0  0  0  0
 17 20  1  0  0  0  0
 20 21  1  0  0  0  0
 20 22  1  0  0  0  0
 20 23  1  0  0  0  0
M  END
> <VConfSearch Rank>
411

> <Conf_Id>
72

> <Delta U+W>
1.051

> <U+W>
-7.331

> <U>
48.590

> <W>
-55.922

> <W(PB)>
-58.012

> <W(SA)>
2.090

> <Valence>
2.601

> <Coulomb>
45.520

> <VdW>
0.469

> <VdW6>
-6.867

> <VdW12>
7.336

> <Bond>
0.205

> <Angle>
0.962

> <Pdih>
1.434

> <Idih>
0.000

> <Tether>
0.000

$$$$
VeraChem MOL file


 23 22  0  0  0  0  0  0  0  0999 V2000     
   17.1907   17.3605   21.7826 N   0  3  0  0  0  0  0  0  0  0  0  0
   17.0957   16.3906   21.4630 H   0  0  0  0  0  0  0  0  0  0  0  0
   16.4760   17.9070   21.2914 H   0  0  0  0  0  0  0  0  0  0  0  0
   16.9475   17.3716   22.7783 H   0  0  0  0  0  0  0  0  0  0  0  0
   18.5844   17.9008   21.5346 C   0  0  0  0  0  0  0  0  0  0  0  0
   18.7873   17.8331   20.4624 H   0  0  0  0  0  0  0  0  0  0  0  0
   19.2932   17.2559   22.0605 H   0  0  0  0  0  0  0  0  0  0  0  0
   18.7601   19.3570   22.0040 C   0  0  0  0  0  0  0  0  0  0  0  0
   18.0190   19.9896   21.4977 H   0  0  0  0  0  0  0  0  0  0  0  0
   18.5440   19.4286   23.0776 H   0  0  0  0  0  0  0  0  0  0  0  0
   20.1757   19.9129   21.7104 C   0  0  0  0  0  0  0  0  0  0  0  0
   20.2284   20.9568   22.0472 H   0  0  0  0  0  0  0  0  0  0  0  0
   20.3254   19.9453   20.6224 H   0  0  0  0  0  0  0  0  0  0  0  0
   21.3383   19.1033   22.3459 C   0  0  0  0  0  0  0  0  0  0  0  0
   21.3850   18.1080   21.8838 H   0  0  0  0  0  0  0  0  0  0  0  0
   22.2877   19.5926   22.0884 H   0  0  0  0  0  0  0  0  0  0  0  0
   21.2626   18.9383   23.8851 C   0  0  0  0  0  0  0  0  0  0  0  0
   22.1245   18.3421   24.2160 H   0  0  0  0  0  0  0  0  0  0  0  0
   20.3722   18.3580   24.1617 H   0  0  0  0  0  0  0  0  0  0  0  0
   21.2665   20.2831   24.6467 C   0  0  0  0  0  0  0  0  0  0  0  0
   22.1426   20.8868   24.3763 H   0  0  0  0  0  0  0  0  0  0  0  0
   21.2984   20.1114   25.7303 H   0  0  0  0  0  0  0  0  0  0  0  0
   20.3650   20.8699   24.4314 H   0  0  0  0  0  0  0  0  0  0  0  0
  1  2  1  0  0  0  0
  1  3  1  0  0  0  0
  1  4  1  0  0  0  0
  1  5  1  0  0  0  0
  5  6  1  0  0  0  0
  5  7  1  0  0  0  0
  5  8  1  0  0  0  0
  8  9  1  0  0  0  0
  8 10  1  0  0  0  0
  8 11  1  0  0  0  0
 11 12  1  0  0  0  0
 11 13  1  0  0  0  0
 11 14  1  0  0  0  0
 14 15  1  0  0  0  0
 14 16  1  0  0  0  0
 14 17  1  0  0  0  0
 17 18  1  0  0  0  0
 17 19  1  0  0  0  0
 17 20  1  0  0  0  0
 20 21  1  0  0  0  0
 20 22  1  0  0  0  0
 20 23  1  0  0  0  0
M  END
> <VConfSearch Rank>
412

> <Conf_Id>
26

> <Delta U+W>
1.076

> <U+W>
-7.306

> <U>
48.641

> <W>
-55.947

> <W(PB)>
-58.031

> <W(SA)>
2.084

> <Valence>
2.922

> <Coulomb>
45.269

> <VdW>
0.449

> <VdW6>
-7.045

> <VdW12>
7.494

> <Bond>
0.220

> <Angle>
1.205

> <Pdih>
1.497

> <Idih>
0.000

> <Tether>
0.000

$$$$
VeraChem MOL file


 23 22  0  0  0  0  0  0  0  0999 V2000     
   19.8468   18.9368   25.7487 N   0  3  0  0  0  0  0  0  0  0  0  0
   19.3765   19.7270   26.2018 H   0  0  0  0  0  0  0  0  0  0  0  0
   20.5748   18.6134   26.3948 H   0  0  0  0  0  0  0  0  0  0  0  0
   19.1592   18.1806   25.6715 H   0  0  0  0  0  0  0  0  0  0  0  0
   20.4210   19.3193   24.3998 C   0  0  0  0  0  0  0  0  0  0  0  0
   20.9305   18.4429   23.9909 H   0  0  0  0  0  0  0  0  0  0  0  0
   21.1634   20.1060   24.5592 H   0  0  0  0  0  0  0  0  0  0  0  0
   19.3522   19.8097   23.4053 C   0  0  0  0  0  0  0  0  0  0  0  0
   18.5993   19.0256   23.2546 H   0  0  0  0  0  0  0  0  0  0  0  0
   18.8217   20.6664   23.8415 H   0  0  0  0  0  0  0  0  0  0  0  0
   19.9539   20.2352   22.0430 C   0  0  0  0  0  0  0  0  0  0  0  0
   20.6128   21.1002   22.2010 H   0  0  0  0  0  0  0  0  0  0  0  0
   19.1468   20.5938   21.3904 H   0  0  0  0  0  0  0  0  0  0  0  0
   20.7590   19.1271   21.3117 C   0  0  0  0  0  0  0  0  0  0  0  0
   21.1230   19.5308   20.3568 H   0  0  0  0  0  0  0  0  0  0  0  0
   21.6597   18.8870   21.8924 H   0  0  0  0  0  0  0  0  0  0  0  0
   19.9771   17.8178   21.0349 C   0  0  0  0  0  0  0  0  0  0  0  0
   19.6923   17.3382   21.9810 H   0  0  0  0  0  0  0  0  0  0  0  0
   20.6481   17.1096   20.5291 H   0  0  0  0  0  0  0  0  0  0  0  0
   18.7222   18.0271   20.1575 C   0  0  0  0  0  0  0  0  0  0  0  0
   17.9716   18.6421   20.6691 H   0  0  0  0  0  0  0  0  0  0  0  0
   18.2538   17.0632   19.9199 H   0  0  0  0  0  0  0  0  0  0  0  0
   18.9809   18.5175   19.2100 H   0  0  0  0  0  0  0  0  0  0  0  0
  1  2  1  0  0  0  0
  1  3  1  0  0  0  0
  1  4  1  0  0  0  0
  1  5  1  0  0  0  0
  5  6  1  0  0  0  0
  5  7  1  0  0  0  0
  5  8  1  0  0  0  0
  8  9  1  0  0  0  0
  8 10  1  0  0  0  0
  8 11  1  0  0  0  0
 11 12  1  0  0  0  0
 11 13  1  0  0  0  0
 11 14  1  0  0  0  0
 14 15  1  0  0  0  0
 14 16  1  0  0  0  0
 14 17  1  0  0  0  0
 17 18  1  0  0  0  0
 17 19  1  0  0  0  0
 17 20  1  0  0  0  0
 20 21  1  0  0  0  0
 20 22  1  0  0  0  0
 20 23  1  0  0  0  0
M  END
> <VConfSearch Rank>
413

> <Conf_Id>
90

> <Delta U+W>
1.131

> <U+W>
-7.251

> <U>
48.641

> <W>
-55.892

> <W(PB)>
-57.962

> <W(SA)>
2.070

> <Valence>
2.922

> <Coulomb>
45.269

> <VdW>
0.450

> <VdW6>
-7.045

> <VdW12>
7.495

> <Bond>
0.220

> <Angle>
1.205

> <Pdih>
1.497

> <Idih>
0.000

> <Tether>
0.000

$$$$
VeraChem MOL file


 23 22  0  0  0  0  0  0  0  0999 V2000     
   17.8765   20.5210   23.4733 N   0  3  0  0  0  0  0  0  0  0  0  0
   17.7916   21.5013   23.7626 H   0  0  0  0  0  0  0  0  0  0  0  0
   18.6306   20.1069   24.0296 H   0  0  0  0  0  0  0  0  0  0  0  0
   17.0062   20.0526   23.7447 H   0  0  0  0  0  0  0  0  0  0  0  0
   18.1442   20.3936   21.9865 C   0  0  0  0  0  0  0  0  0  0  0  0
   19.0647   20.9379   21.7600 H   0  0  0  0  0  0  0  0  0  0  0  0
   17.3222   20.8830   21.4570 H   0  0  0  0  0  0  0  0  0  0  0  0
   18.2684   18.9346   21.5019 C   0  0  0  0  0  0  0  0  0  0  0  0
   17.3221   18.4108   21.6915 H   0  0  0  0  0  0  0  0  0  0  0  0
   18.4040   18.9359   20.4122 H   0  0  0  0  0  0  0  0  0  0  0  0
   19.4301   18.1490   22.1606 C   0  0  0  0  0  0  0  0  0  0  0  0
   19.4274   17.1238   21.7656 H   0  0  0  0  0  0  0  0  0  0  0  0
   19.2478   18.0618   23.2391 H   0  0  0  0  0  0  0  0  0  0  0  0
   20.8179   18.7888   21.9031 C   0  0  0  0  0  0  0  0  0  0  0  0
   20.9453   18.9457   20.8231 H   0  0  0  0  0  0  0  0  0  0  0  0
   20.8696   19.7821   22.3685 H   0  0  0  0  0  0  0  0  0  0  0  0
   21.9959   17.9263   22.4168 C   0  0  0  0  0  0  0  0  0  0  0  0
   22.9392   18.3944   22.1025 H   0  0  0  0  0  0  0  0  0  0  0  0
   21.9695   16.9373   21.9382 H   0  0  0  0  0  0  0  0  0  0  0  0
   22.0100   17.7602   23.9535 C   0  0  0  0  0  0  0  0  0  0  0  0
   22.0098   18.7359   24.4564 H   0  0  0  0  0  0  0  0  0  0  0  0
   22.9100   17.2188   24.2727 H   0  0  0  0  0  0  0  0  0  0  0  0
   21.1411   17.1907   24.3057 H   0  0  0  0  0  0  0  0  0  0  0  0
  1  2  1  0  0  0  0
  1  3  1  0  0  0  0
  1  4  1  0  0  0  0
  1  5  1  0  0  0  0
  5  6  1  0  0  0  0
  5  7  1  0  0  0  0
  5  8  1  0  0  0  0
  8  9  1  0  0  0  0
  8 10  1  0  0  0  0
  8 11  1  0  0  0  0
 11 12  1  0  0  0  0
 11 13  1  0  0  0  0
 11 14  1  0  0  0  0
 14 15  1  0  0  0  0
 14 16  1  0  0  0  0
 14 17  1  0  0  0  0
 17 18  1  0  0  0  0
 17 19  1  0  0  0  0
 17 20  1  0  0  0  0
 20 21  1  0  0  0  0
 20 22  1  0  0  0  0
 20 23  1  0  0  0  0
M  END
> <VConfSearch Rank>
414

> <Conf_Id>
85

> <Delta U+W>
1.193

> <U+W>
-7.189

> <U>
48.775

> <W>
-55.965

> <W(PB)>
-58.038

> <W(SA)>
2.073

> <Valence>
2.602

> <Coulomb>
45.581

> <VdW>
0.592

> <VdW6>
-6.616

> <VdW12>
7.208

> <Bond>
0.196

> <Angle>
0.832

> <Pdih>
1.574

> <Idih>
0.000

> <Tether>
0.000

$$$$
VeraChem MOL file


 23 22  0  0  0  0  0  0  0  0999 V2000     
   18.5595   20.6122   22.8599 N   0  3  0  0  0  0  0  0  0  0  0  0
   19.4064   20.2201   23.2837 H   0  0  0  0  0  0  0  0  0  0  0  0
   17.9330   20.8886   23.6237 H   0  0  0  0  0  0  0  0  0  0  0  0
   18.8315   21.4712   22.3710 H   0  0  0  0  0  0  0  0  0  0  0  0
   17.9004   19.6184   21.9230 C   0  0  0  0  0  0  0  0  0  0  0  0
   17.0125   20.1069   21.5126 H   0  0  0  0  0  0  0  0  0  0  0  0
   17.5729   18.7526   22.5046 H   0  0  0  0  0  0  0  0  0  0  0  0
   18.8038   19.1578   20.7608 C   0  0  0  0  0  0  0  0  0  0  0  0
   18.1521   18.7895   19.9574 H   0  0  0  0  0  0  0  0  0  0  0  0
   19.3368   20.0210   20.3405 H   0  0  0  0  0  0  0  0  0  0  0  0
   19.8089   18.0277   21.1110 C   0  0  0  0  0  0  0  0  0  0  0  0
   20.3410   17.7636   20.1866 H   0  0  0  0  0  0  0  0  0  0  0  0
   19.2646   17.1197   21.4056 H   0  0  0  0  0  0  0  0  0  0  0  0
   20.8655   18.3895   22.1861 C   0  0  0  0  0  0  0  0  0  0  0  0
   21.8138   17.9014   21.9214 H   0  0  0  0  0  0  0  0  0  0  0  0
   21.0729   19.4676   22.1663 H   0  0  0  0  0  0  0  0  0  0  0  0
   20.4719   17.9225   23.6089 C   0  0  0  0  0  0  0  0  0  0  0  0
   20.4369   16.8242   23.6327 H   0  0  0  0  0  0  0  0  0  0  0  0
   19.4631   18.2622   23.8716 H   0  0  0  0  0  0  0  0  0  0  0  0
   21.4749   18.4206   24.6708 C   0  0  0  0  0  0  0  0  0  0  0  0
   22.4868   18.0497   24.4612 H   0  0  0  0  0  0  0  0  0  0  0  0
   21.1883   18.0677   25.6701 H   0  0  0  0  0  0  0  0  0  0  0  0
   21.5134   19.5172   24.6994 H   0  0  0  0  0  0  0  0  0  0  0  0
  1  2  1  0  0  0  0
  1  3  1  0  0  0  0
  1  4  1  0  0  0  0
  1  5  1  0  0  0  0
  5  6  1  0  0  0  0
  5  7  1  0  0  0  0
  5  8  1  0  0  0  0
  8  9  1  0  0  0  0
  8 10  1  0  0  0  0
  8 11  1  0  0  0  0
 11 12  1  0  0  0  0
 11 13  1  0  0  0  0
 11 14  1  0  0  0  0
 14 15  1  0  0  0  0
 14 16  1  0  0  0  0
 14 17  1  0  0  0  0
 17 18  1  0  0  0  0
 17 19  1  0  0  0  0
 17 20  1  0  0  0  0
 20 21  1  0  0  0  0
 20 22  1  0  0  0  0
 20 23  1  0  0  0  0
M  END
> <VConfSearch Rank>
415

> <Conf_Id>
82

> <Delta U+W>
5.994

> <U+W>
-2.388

> <U>
52.836

> <W>
-55.224

> <W(PB)>
-57.261

> <W(SA)>
2.037

> <Valence>
5.785

> <Coulomb>
46.744

> <VdW>
0.307

> <VdW6>
-7.672

> <VdW12>
7.979

> <Bond>
0.217

> <Angle>
1.470

> <Pdih>
4.098

> <Idih>
0.000

> <Tether>
0.000

$$$$
VeraChem MOL file


 23 22  0  0  0  0  0  0  0  0999 V2000     
   19.8635   20.8808   23.3941 N   0  3  0  0  0  0  0  0  0  0  0  0
   20.7228   21.1920   23.8586 H   0  0  0  0  0  0  0  0  0  0  0  0
   19.3069   21.7207   23.2016 H   0  0  0  0  0  0  0  0  0  0  0  0
   20.1327   20.4770   22.4913 H   0  0  0  0  0  0  0  0  0  0  0  0
   19.0994   19.8807   24.2401 C   0  0  0  0  0  0  0  0  0  0  0  0
   18.1646   19.6326   23.7304 H   0  0  0  0  0  0  0  0  0  0  0  0
   18.8508   20.3814   25.1798 H   0  0  0  0  0  0  0  0  0  0  0  0
   19.8859   18.5907   24.5498 C   0  0  0  0  0  0  0  0  0  0  0  0
   20.9205   18.8423   24.8181 H   0  0  0  0  0  0  0  0  0  0  0  0
   19.4458   18.1393   25.4489 H   0  0  0  0  0  0  0  0  0  0  0  0
   19.8704   17.5196   23.4261 C   0  0  0  0  0  0  0  0  0  0  0  0
   18.8421   17.1733   23.2522 H   0  0  0  0  0  0  0  0  0  0  0  0
   20.4158   16.6424   23.8011 H   0  0  0  0  0  0  0  0  0  0  0  0
   20.5214   17.9531   22.0876 C   0  0  0  0  0  0  0  0  0  0  0  0
   21.3069   18.6981   22.2718 H   0  0  0  0  0  0  0  0  0  0  0  0
   21.0345   17.0845   21.6518 H   0  0  0  0  0  0  0  0  0  0  0  0
   19.4951   18.4685   21.0494 C   0  0  0  0  0  0  0  0  0  0  0  0
   18.8513   19.2441   21.4811 H   0  0  0  0  0  0  0  0  0  0  0  0
   18.8258   17.6452   20.7624 H   0  0  0  0  0  0  0  0  0  0  0  0
   20.1892   19.0209   19.7865 C   0  0  0  0  0  0  0  0  0  0  0  0
   20.8429   19.8685   20.0294 H   0  0  0  0  0  0  0  0  0  0  0  0
   19.4462   19.3674   19.0562 H   0  0  0  0  0  0  0  0  0  0  0  0
   20.7999   18.2474   19.3028 H   0  0  0  0  0  0  0  0  0  0  0  0
  1  2  1  0  0  0  0
  1  3  1  0  0  0  0
  1  4  1  0  0  0  0
  1  5  1  0  0  0  0
  5  6  1  0  0  0  0
  5  7  1  0  0  0  0
  5  8  1  0  0  0  0
  8  9  1  0  0  0  0
  8 10  1  0  0  0  0
  8 11  1  0  0  0  0
 11 12  1  0  0  0  0
 11 13  1  0  0  0  0
 11 14  1  0  0  0  0
 14 15  1  0  0  0  0
 14 16  1  0  0  0  0
 14 17  1  0  0  0  0
 17 18  1  0  0  0  0
 17 19  1  0  0  0  0
 17 20  1  0  0  0  0
 20 21  1  0  0  0  0
 20 22  1  0  0  0  0
 20 23  1  0  0  0  0
M  END
> <VConfSearch Rank>
416

> <Conf_Id>
5

> <Delta U+W>
6.087

> <U+W>
-2.295

> <U>
52.836

> <W>
-55.131

> <W(PB)>
-57.202

> <W(SA)>
2.071

> <Valence>
5.785

> <Coulomb>
46.744

> <VdW>
0.307

> <VdW6>
-7.672

> <VdW12>
7.980

> <Bond>
0.217

> <Angle>
1.470

> <Pdih>
4.098

> <Idih>
0.000

> <Tether>
0.000

$$$$
VeraChem MOL file


 23 22  0  0  0  0  0  0  0  0999 V2000     
   21.3482   17.2879   25.6528 N   0  3  0  0  0  0  0  0  0  0  0  0
   21.1099   18.0177   26.3322 H   0  0  0  0  0  0  0  0  0  0  0  0
   22.2433   16.8848   25.9503 H   0  0  0  0  0  0  0  0  0  0  0  0
   20.6437   16.5489   25.7446 H   0  0  0  0  0  0  0  0  0  0  0  0
   21.4175   17.8312   24.2400 C   0  0  0  0  0  0  0  0  0  0  0  0
   21.7036   17.0105   23.5766 H   0  0  0  0  0  0  0  0  0  0  0  0
   22.2048   18.5893   24.2082 H   0  0  0  0  0  0  0  0  0  0  0  0
   20.0888   18.4439   23.7629 C   0  0  0  0  0  0  0  0  0  0  0  0
   19.2978   17.6835   23.8120 H   0  0  0  0  0  0  0  0  0  0  0  0
   19.7972   19.2566   24.4415 H   0  0  0  0  0  0  0  0  0  0  0  0
   20.2013   18.9853   22.3206 C   0  0  0  0  0  0  0  0  0  0  0  0
   20.4984   18.1703   21.6457 H   0  0  0  0  0  0  0  0  0  0  0  0
   20.9972   19.7418   22.2745 H   0  0  0  0  0  0  0  0  0  0  0  0
   18.8719   19.6032   21.8310 C   0  0  0  0  0  0  0  0  0  0  0  0
   18.0760   18.8468   21.8768 H   0  0  0  0  0  0  0  0  0  0  0  0
   18.5747   20.4180   22.5057 H   0  0  0  0  0  0  0  0  0  0  0  0
   18.9848   20.1446   20.3885 C   0  0  0  0  0  0  0  0  0  0  0  0
   19.2796   19.3325   19.7091 H   0  0  0  0  0  0  0  0  0  0  0  0
   19.7782   20.9036   20.3379 H   0  0  0  0  0  0  0  0  0  0  0  0
   17.6554   20.7608   19.9031 C   0  0  0  0  0  0  0  0  0  0  0  0
   17.7553   21.1395   18.8776 H   0  0  0  0  0  0  0  0  0  0  0  0
   17.3517   21.5991   20.5436 H   0  0  0  0  0  0  0  0  0  0  0  0
   16.8492   20.0157   19.9099 H   0  0  0  0  0  0  0  0  0  0  0  0
  1  2  1  0  0  0  0
  1  3  1  0  0  0  0
  1  4  1  0  0  0  0
  1  5  1  0  0  0  0
  5  6  1  0  0  0  0
  5  7  1  0  0  0  0
  5  8  1  0  0  0  0
  8  9  1  0  0  0  0
  8 10  1  0  0  0  0
  8 11  1  0  0  0  0
 11 12  1  0  0  0  0
 11 13  1  0  0  0  0
 11 14  1  0  0  0  0
 14 15  1  0  0  0  0
 14 16  1  0  0  0  0
 14 17  1  0  0  0  0
 17 18  1  0  0  0  0
 17 19  1  0  0  0  0
 17 20  1  0  0  0  0
 20 21  1  0  0  0  0
 20 22  1  0  0  0  0
 20 23  1  0  0  0  0
M  END
> <VConfSearch Rank>
417

> <Conf_Id>
40

> <Delta U+W>
0.000

> <U+W>
-8.382

> <U>
46.604

> <W>
-54.986

> <W(PB)>
-57.162

> <W(SA)>
2.176

> <Valence>
1.727

> <Coulomb>
44.434

> <VdW>
0.443

> <VdW6>
-4.623

> <VdW12>
5.066

> <Bond>
0.112

> <Angle>
0.386

> <Pdih>
1.228

> <Idih>
0.000

> <Tether>
0.000

$$$$
VeraChem MOL file


 23 22  0  0  0  0  0  0  0  0999 V2000     
   23.3076   19.3769   22.2999 N   0  3  0  0  0  0  0  0  0  0  0  0
   23.5931   19.2598   21.3224 H   0  0  0  0  0  0  0  0  0  0  0  0
   23.5637   18.5160   22.7939 H   0  0  0  0  0  0  0  0  0  0  0  0
   23.8859   20.1283   22.6911 H   0  0  0  0  0  0  0  0  0  0  0  0
   21.8286   19.6817   22.4244 C   0  0  0  0  0  0  0  0  0  0  0  0
   21.6327   20.6220   21.9020 H   0  0  0  0  0  0  0  0  0  0  0  0
   21.6042   19.8237   23.4846 H   0  0  0  0  0  0  0  0  0  0  0  0
   20.9327   18.5706   21.8448 C   0  0  0  0  0  0  0  0  0  0  0  0
   21.2023   18.4067   20.7929 H   0  0  0  0  0  0  0  0  0  0  0  0
   21.1282   17.6262   22.3700 H   0  0  0  0  0  0  0  0  0  0  0  0
   19.4256   18.9098   21.9283 C   0  0  0  0  0  0  0  0  0  0  0  0
   18.8679   18.1283   21.3962 H   0  0  0  0  0  0  0  0  0  0  0  0
   19.2315   19.8500   21.3938 H   0  0  0  0  0  0  0  0  0  0  0  0
   18.9065   19.0187   23.3848 C   0  0  0  0  0  0  0  0  0  0  0  0
   19.0821   18.0711   23.9125 H   0  0  0  0  0  0  0  0  0  0  0  0
   19.4814   19.7833   23.9236 H   0  0  0  0  0  0  0  0  0  0  0  0
   17.4066   19.3906   23.4779 C   0  0  0  0  0  0  0  0  0  0  0  0
   17.2269   20.3433   22.9605 H   0  0  0  0  0  0  0  0  0  0  0  0
   17.1515   19.5616   24.5332 H   0  0  0  0  0  0  0  0  0  0  0  0
   16.4652   18.3042   22.9098 C   0  0  0  0  0  0  0  0  0  0  0  0
   16.5935   18.1841   21.8270 H   0  0  0  0  0  0  0  0  0  0  0  0
   15.4162   18.5736   23.0888 H   0  0  0  0  0  0  0  0  0  0  0  0
   16.6482   17.3333   23.3883 H   0  0  0  0  0  0  0  0  0  0  0  0
  1  2  1  0  0  0  0
  1  3  1  0  0  0  0
  1  4  1  0  0  0  0
  1  5  1  0  0  0  0
  5  6  1  0  0  0  0
  5  7  1  0  0  0  0
  5  8  1  0  0  0  0
  8  9  1  0  0  0  0
  8 10  1  0  0  0  0
  8 11  1  0  0  0  0
 11 12  1  0  0  0  0
 11 13  1  0  0  0  0
 11 14  1  0  0  0  0
 14 15  1  0  0  0  0
 14 16  1  0  0  0  0
 14 17  1  0  0  0  0
 17 18  1  0  0  0  0
 17 19  1  0  0  0  0
 17 20  1  0  0  0  0
 20 21  1  0  0  0  0
 20 22  1  0  0  0  0
 20 23  1  0  0  0  0
M  END
> <VConfSearch Rank>
418

> <Conf_Id>
65

> <Delta U+W>
1.004

> <U+W>
-7.378

> <U>
48.047

> <W>
-55.425

> <W(PB)>
-57.542

> <W(SA)>
2.116

> <Valence>
2.583

> <Coulomb>
44.791

> <VdW>
0.673

> <VdW6>
-5.788

> <VdW12>
6.462

> <Bond>
0.177

> <Angle>
0.787

> <Pdih>
1.619

> <Idih>
0.000

> <Tether>
0.000

$$$$
VeraChem MOL file


 23 22  0  0  0  0  0  0  0  0999 V2000     
   19.5293   17.2599   25.7125 N   0  3  0  0  0  0  0  0  0  0  0  0
   18.6868   17.5465   26.2214 H   0  0  0  0  0  0  0  0  0  0  0  0
   20.2722   17.1408   26.4095 H   0  0  0  0  0  0  0  0  0  0  0  0
   19.3415   16.3335   25.3159 H   0  0  0  0  0  0  0  0  0  0  0  0
   19.9143   18.2643   24.6453 C   0  0  0  0  0  0  0  0  0  0  0  0
   20.8321   17.9110   24.1687 H   0  0  0  0  0  0  0  0  0  0  0  0
   20.1271   19.2164   25.1390 H   0  0  0  0  0  0  0  0  0  0  0  0
   18.8174   18.4657   23.5825 C   0  0  0  0  0  0  0  0  0  0  0  0
   18.6041   17.5099   23.0855 H   0  0  0  0  0  0  0  0  0  0  0  0
   17.8890   18.7743   24.0813 H   0  0  0  0  0  0  0  0  0  0  0  0
   19.1948   19.5293   22.5243 C   0  0  0  0  0  0  0  0  0  0  0  0
   19.3980   20.4868   23.0236 H   0  0  0  0  0  0  0  0  0  0  0  0
   18.3234   19.6942   21.8775 H   0  0  0  0  0  0  0  0  0  0  0  0
   20.4143   19.1206   21.6592 C   0  0  0  0  0  0  0  0  0  0  0  0
   21.2790   18.9319   22.3090 H   0  0  0  0  0  0  0  0  0  0  0  0
   20.2024   18.1736   21.1440 H   0  0  0  0  0  0  0  0  0  0  0  0
   20.8195   20.1938   20.6198 C   0  0  0  0  0  0  0  0  0  0  0  0
   21.7541   19.8788   20.1350 H   0  0  0  0  0  0  0  0  0  0  0  0
   21.0429   21.1408   21.1307 H   0  0  0  0  0  0  0  0  0  0  0  0
   19.7503   20.4308   19.5288 C   0  0  0  0  0  0  0  0  0  0  0  0
   18.8352   20.8672   19.9478 H   0  0  0  0  0  0  0  0  0  0  0  0
   19.4851   19.4922   19.0251 H   0  0  0  0  0  0  0  0  0  0  0  0
   20.1269   21.1254   18.7669 H   0  0  0  0  0  0  0  0  0  0  0  0
  1  2  1  0  0  0  0
  1  3  1  0  0  0  0
  1  4  1  0  0  0  0
  1  5  1  0  0  0  0
  5  6  1  0  0  0  0
  5  7  1  0  0  0  0
  5  8  1  0  0  0  0
  8  9  1  0  0  0  0
  8 10  1  0  0  0  0
  8 11  1  0  0  0  0
 11 12  1  0  0  0  0
 11 13  1  0  0  0  0
 11 14  1  0  0  0  0
 14 15  1  0  0  0  0
 14 16  1  0  0  0  0
 14 17  1  0  0  0  0
 17 18  1  0  0  0  0
 17 19  1  0  0  0  0
 17 20  1  0  0  0  0
 20 21  1  0  0  0  0
 20 22  1  0  0  0  0
 20 23  1  0  0  0  0
M  END
> <VConfSearch Rank>
419

> <Conf_Id>
92

> <Delta U+W>
0.973

> <U+W>
-7.409

> <U>
48.047

> <W>
-55.456

> <W(PB)>
-57.595

> <W(SA)>
2.138

> <Valence>
2.583

> <Coulomb>
44.791

> <VdW>
0.674

> <VdW6>
-5.789

> <VdW12>
6.462

> <Bond>
0.177

> <Angle>
0.787

> <Pdih>
1.619

> <Idih>
0.000

> <Tether>
0.000

$$$$
VeraChem MOL file


 23 22  0  0  0  0  0  0  0  0999 V2000     
   19.8442   15.6655   23.8485 N   0  3  0  0  0  0  0  0  0  0  0  0
   20.2816   14.9080   23.3130 H   0  0  0  0  0  0  0  0  0  0  0  0
   18.9656   15.2950   24.2250 H   0  0  0  0  0  0  0  0  0  0  0  0
   20.4570   15.8579   24.6474 H   0  0  0  0  0  0  0  0  0  0  0  0
   19.6193   16.8992   22.9982 C   0  0  0  0  0  0  0  0  0  0  0  0
   18.9846   16.6163   22.1540 H   0  0  0  0  0  0  0  0  0  0  0  0
   20.5890   17.2186   22.6080 H   0  0  0  0  0  0  0  0  0  0  0  0
   18.9627   18.0561   23.7750 C   0  0  0  0  0  0  0  0  0  0  0  0
   18.0110   17.7088   24.1989 H   0  0  0  0  0  0  0  0  0  0  0  0
   19.5997   18.3396   24.6234 H   0  0  0  0  0  0  0  0  0  0  0  0
   18.6948   19.2954   22.8889 C   0  0  0  0  0  0  0  0  0  0  0  0
   18.1448   20.0397   23.4814 H   0  0  0  0  0  0  0  0  0  0  0  0
   18.0363   19.0143   22.0552 H   0  0  0  0  0  0  0  0  0  0  0  0
   19.9893   19.9400   22.3375 C   0  0  0  0  0  0  0  0  0  0  0  0
   20.6595   20.1896   23.1717 H   0  0  0  0  0  0  0  0  0  0  0  0
   20.5254   19.2221   21.7024 H   0  0  0  0  0  0  0  0  0  0  0  0
   19.6912   21.2158   21.5187 C   0  0  0  0  0  0  0  0  0  0  0  0
   19.1617   21.9455   22.1473 H   0  0  0  0  0  0  0  0  0  0  0  0
   19.0204   20.9719   20.6829 H   0  0  0  0  0  0  0  0  0  0  0  0
   20.9828   21.8570   20.9681 C   0  0  0  0  0  0  0  0  0  0  0  0
   21.6602   22.1429   21.7834 H   0  0  0  0  0  0  0  0  0  0  0  0
   20.7509   22.7612   20.3904 H   0  0  0  0  0  0  0  0  0  0  0  0
   21.5175   21.1628   20.3068 H   0  0  0  0  0  0  0  0  0  0  0  0
  1  2  1  0  0  0  0
  1  3  1  0  0  0  0
  1  4  1  0  0  0  0
  1  5  1  0  0  0  0
  5  6  1  0  0  0  0
  5  7  1  0  0  0  0
  5  8  1  0  0  0  0
  8  9  1  0  0  0  0
  8 10  1  0  0  0  0
  8 11  1  0  0  0  0
 11 12  1  0  0  0  0
 11 13  1  0  0  0  0
 11 14  1  0  0  0  0
 14 15  1  0  0  0  0
 14 16  1  0  0  0  0
 14 17  1  0  0  0  0
 17 18  1  0  0  0  0
 17 19  1  0  0  0  0
 17 20  1  0  0  0  0
 20 21  1  0  0  0  0
 20 22  1  0  0  0  0
 20 23  1  0  0  0  0
M  END
> <VConfSearch Rank>
420

> <Conf_Id>
42

> <Delta U+W>
0.365

> <U+W>
-8.017

> <U>
47.375

> <W>
-55.392

> <W(PB)>
-57.543

> <W(SA)>
2.152

> <Valence>
2.032

> <Coulomb>
44.843

> <VdW>
0.499

> <VdW6>
-5.218

> <VdW12>
5.717

> <Bond>
0.135

> <Angle>
0.514

> <Pdih>
1.383

> <Idih>
0.000

> <Tether>
0.000

$$$$
VeraChem MOL file


 23 22  0  0  0  0  0  0  0  0999 V2000     
   20.5993   16.7556   20.5227 N   0  3  0  0  0  0  0  0  0  0  0  0
   21.5752   16.7464   20.8361 H   0  0  0  0  0  0  0  0  0  0  0  0
   20.5752   16.2944   19.6070 H   0  0  0  0  0  0  0  0  0  0  0  0
   20.0681   16.1646   21.1692 H   0  0  0  0  0  0  0  0  0  0  0  0
   20.0413   18.1641   20.4581 C   0  0  0  0  0  0  0  0  0  0  0  0
   19.0112   18.1057   20.0962 H   0  0  0  0  0  0  0  0  0  0  0  0
   20.6296   18.7186   19.7218 H   0  0  0  0  0  0  0  0  0  0  0  0
   20.0765   18.9115   21.8055 C   0  0  0  0  0  0  0  0  0  0  0  0
   21.1080   18.9447   22.1803 H   0  0  0  0  0  0  0  0  0  0  0  0
   19.7689   19.9482   21.6217 H   0  0  0  0  0  0  0  0  0  0  0  0
   19.1432   18.2781   22.8659 C   0  0  0  0  0  0  0  0  0  0  0  0
   19.3835   17.2123   22.9741 H   0  0  0  0  0  0  0  0  0  0  0  0
   18.1047   18.3223   22.5094 H   0  0  0  0  0  0  0  0  0  0  0  0
   19.2337   18.9316   24.2694 C   0  0  0  0  0  0  0  0  0  0  0  0
   18.5649   18.3717   24.9377 H   0  0  0  0  0  0  0  0  0  0  0  0
   20.2428   18.7989   24.6833 H   0  0  0  0  0  0  0  0  0  0  0  0
   18.8250   20.4265   24.3210 C   0  0  0  0  0  0  0  0  0  0  0  0
   18.3098   20.6158   25.2732 H   0  0  0  0  0  0  0  0  0  0  0  0
   18.0929   20.6504   23.5326 H   0  0  0  0  0  0  0  0  0  0  0  0
   20.0275   21.3950   24.2299 C   0  0  0  0  0  0  0  0  0  0  0  0
   20.7277   21.2286   25.0588 H   0  0  0  0  0  0  0  0  0  0  0  0
   19.6865   22.4368   24.2869 H   0  0  0  0  0  0  0  0  0  0  0  0
   20.5820   21.2781   23.2924 H   0  0  0  0  0  0  0  0  0  0  0  0
  1  2  1  0  0  0  0
  1  3  1  0  0  0  0
  1  4  1  0  0  0  0
  1  5  1  0  0  0  0
  5  6  1  0  0  0  0
  5  7  1  0  0  0  0
  5  8  1  0  0  0  0
  8  9  1  0  0  0  0
  8 10  1  0  0  0  0
  8 11  1  0  0  0  0
 11 12  1  0  0  0  0
 11 13  1  0  0  0  0
 11 14  1  0  0  0  0
 14 15  1  0  0  0  0
 14 16  1  0  0  0  0
 14 17  1  0  0  0  0
 17 18  1  0  0  0  0
 17 19  1  0  0  0  0
 17 20  1  0  0  0  0
 20 21  1  0  0  0  0
 20 22  1  0  0  0  0
 20 23  1  0  0  0  0
M  END
> <VConfSearch Rank>
421

> <Conf_Id>
3

> <Delta U+W>
3.283

> <U+W>
-5.099

> <U>
50.701

> <W>
-55.800

> <W(PB)>
-57.867

> <W(SA)>
2.067

> <Valence>
4.880

> <Coulomb>
45.095

> <VdW>
0.726

> <VdW6>
-6.620

> <VdW12>
7.346

> <Bond>
0.222

> <Angle>
1.260

> <Pdih>
3.398

> <Idih>
0.000

> <Tether>
0.000

$$$$
VeraChem MOL file


 23 22  0  0  0  0  0  0  0  0999 V2000     
   21.9976   19.5165   24.4283 N   0  3  0  0  0  0  0  0  0  0  0  0
   22.3188   18.6646   24.8991 H   0  0  0  0  0  0  0  0  0  0  0  0
   22.6071   20.2795   24.7416 H   0  0  0  0  0  0  0  0  0  0  0  0
   22.1648   19.3903   23.4254 H   0  0  0  0  0  0  0  0  0  0  0  0
   20.5382   19.8050   24.7202 C   0  0  0  0  0  0  0  0  0  0  0  0
   20.2694   20.7371   24.2167 H   0  0  0  0  0  0  0  0  0  0  0  0
   20.4393   19.9622   25.7977 H   0  0  0  0  0  0  0  0  0  0  0  0
   19.5828   18.6775   24.2785 C   0  0  0  0  0  0  0  0  0  0  0  0
   19.8316   17.7612   24.8302 H   0  0  0  0  0  0  0  0  0  0  0  0
   18.5603   18.9452   24.5765 H   0  0  0  0  0  0  0  0  0  0  0  0
   19.6100   18.3814   22.7576 C   0  0  0  0  0  0  0  0  0  0  0  0
   18.9299   17.5421   22.5627 H   0  0  0  0  0  0  0  0  0  0  0  0
   20.6104   18.0392   22.4610 H   0  0  0  0  0  0  0  0  0  0  0  0
   19.1934   19.5976   21.8918 C   0  0  0  0  0  0  0  0  0  0  0  0
   18.1812   19.9213   22.1708 H   0  0  0  0  0  0  0  0  0  0  0  0
   19.8581   20.4452   22.1039 H   0  0  0  0  0  0  0  0  0  0  0  0
   19.2441   19.3168   20.3702 C   0  0  0  0  0  0  0  0  0  0  0  0
   20.2574   19.0029   20.0832 H   0  0  0  0  0  0  0  0  0  0  0  0
   19.0500   20.2556   19.8328 H   0  0  0  0  0  0  0  0  0  0  0  0
   18.2196   18.2575   19.9038 C   0  0  0  0  0  0  0  0  0  0  0  0
   17.2012   18.5320   20.2081 H   0  0  0  0  0  0  0  0  0  0  0  0
   18.4468   17.2666   20.3158 H   0  0  0  0  0  0  0  0  0  0  0  0
   18.2301   18.1691   18.8097 H   0  0  0  0  0  0  0  0  0  0  0  0
  1  2  1  0  0  0  0
  1  3  1  0  0  0  0
  1  4  1  0  0  0  0
  1  5  1  0  0  0  0
  5  6  1  0  0  0  0
  5  7  1  0  0  0  0
  5  8  1  0  0  0  0
  8  9  1  0  0  0  0
  8 10  1  0  0  0  0
  8 11  1  0  0  0  0
 11 12  1  0  0  0  0
 11 13  1  0  0  0  0
 11 14  1  0  0  0  0
 14 15  1  0  0  0  0
 14 16  1  0  0  0  0
 14 17  1  0  0  0  0
 17 18  1  0  0  0  0
 17 19  1  0  0  0  0
 17 20  1  0  0  0  0
 20 21  1  0  0  0  0
 20 22  1  0  0  0  0
 20 23  1  0  0  0  0
M  END
> <VConfSearch Rank>
422

> <Conf_Id>
83

> <Delta U+W>
1.229

> <U+W>
-7.154

> <U>
48.727

> <W>
-55.880

> <W(PB)>
-57.960

> <W(SA)>
2.080

> <Valence>
2.671

> <Coulomb>
45.371

> <VdW>
0.684

> <VdW6>
-6.511

> <VdW12>
7.195

> <Bond>
0.203

> <Angle>
0.915

> <Pdih>
1.554

> <Idih>
0.000

> <Tether>
0.000

$$$$
VeraChem MOL file


 23 22  0  0  0  0  0  0  0  0999 V2000     
   18.1358   19.7666   24.9054 N   0  3  0  0  0  0  0  0  0  0  0  0
   18.6502   19.6937   25.7890 H   0  0  0  0  0  0  0  0  0  0  0  0
   18.0836   18.8245   24.5062 H   0  0  0  0  0  0  0  0  0  0  0  0
   17.1777   20.0482   25.1392 H   0  0  0  0  0  0  0  0  0  0  0  0
   18.7930   20.7433   23.9503 C   0  0  0  0  0  0  0  0  0  0  0  0
   18.7836   21.7289   24.4237 H   0  0  0  0  0  0  0  0  0  0  0  0
   18.1814   20.7970   23.0461 H   0  0  0  0  0  0  0  0  0  0  0  0
   20.2426   20.3683   23.5798 C   0  0  0  0  0  0  0  0  0  0  0  0
   20.6554   21.1539   22.9331 H   0  0  0  0  0  0  0  0  0  0  0  0
   20.8560   20.3689   24.4906 H   0  0  0  0  0  0  0  0  0  0  0  0
   20.3825   18.9976   22.8705 C   0  0  0  0  0  0  0  0  0  0  0  0
   20.0426   18.1946   23.5379 H   0  0  0  0  0  0  0  0  0  0  0  0
   21.4500   18.8149   22.6919 H   0  0  0  0  0  0  0  0  0  0  0  0
   19.6126   18.9244   21.5272 C   0  0  0  0  0  0  0  0  0  0  0  0
   18.5485   19.1310   21.7013 H   0  0  0  0  0  0  0  0  0  0  0  0
   19.9734   19.7111   20.8504 H   0  0  0  0  0  0  0  0  0  0  0  0
   19.7261   17.5488   20.8263 C   0  0  0  0  0  0  0  0  0  0  0  0
   19.0624   17.5447   19.9503 H   0  0  0  0  0  0  0  0  0  0  0  0
   19.3564   16.7588   21.4949 H   0  0  0  0  0  0  0  0  0  0  0  0
   21.1610   17.2089   20.3630 C   0  0  0  0  0  0  0  0  0  0  0  0
   21.5661   18.0004   19.7192 H   0  0  0  0  0  0  0  0  0  0  0  0
   21.1674   16.2735   19.7886 H   0  0  0  0  0  0  0  0  0  0  0  0
   21.8399   17.0763   21.2144 H   0  0  0  0  0  0  0  0  0  0  0  0
  1  2  1  0  0  0  0
  1  3  1  0  0  0  0
  1  4  1  0  0  0  0
  1  5  1  0  0  0  0
  5  6  1  0  0  0  0
  5  7  1  0  0  0  0
  5  8  1  0  0  0  0
  8  9  1  0  0  0  0
  8 10  1  0  0  0  0
  8 11  1  0  0  0  0
 11 12  1  0  0  0  0
 11 13  1  0  0  0  0
 11 14  1  0  0  0  0
 14 15  1  0  0  0  0
 14 16  1  0  0  0  0
 14 17  1  0  0  0  0
 17 18  1  0  0  0  0
 17 19  1  0  0  0  0
 17 20  1  0  0  0  0
 20 21  1  0  0  0  0
 20 22  1  0  0  0  0
 20 23  1  0  0  0  0
M  END
> <VConfSearch Rank>
423

> <Conf_Id>
50

> <Delta U+W>
1.252

> <U+W>
-7.130

> <U>
48.727

> <W>
-55.857

> <W(PB)>
-57.937

> <W(SA)>
2.080

> <Valence>
2.671

> <Coulomb>
45.371

> <VdW>
0.684

> <VdW6>
-6.511

> <VdW12>
7.196

> <Bond>
0.203

> <Angle>
0.915

> <Pdih>
1.554

> <Idih>
0.000

> <Tether>
0.000

$$$$
VeraChem MOL file


 23 22  0  0  0  0  0  0  0  0999 V2000     
   17.1679   18.0353   24.1137 N   0  3  0  0  0  0  0  0  0  0  0  0
   17.8721   17.3570   24.4196 H   0  0  0  0  0  0  0  0  0  0  0  0
   16.2794   17.5292   24.0338 H   0  0  0  0  0  0  0  0  0  0  0  0
   17.0558   18.7180   24.8699 H   0  0  0  0  0  0  0  0  0  0  0  0
   17.5566   18.6996   22.8072 C   0  0  0  0  0  0  0  0  0  0  0  0
   16.7443   19.3747   22.5244 H   0  0  0  0  0  0  0  0  0  0  0  0
   17.6357   17.9228   22.0419 H   0  0  0  0  0  0  0  0  0  0  0  0
   18.8765   19.4916   22.8802 C   0  0  0  0  0  0  0  0  0  0  0  0
   19.0122   20.0197   21.9297 H   0  0  0  0  0  0  0  0  0  0  0  0
   18.7939   20.2669   23.6535 H   0  0  0  0  0  0  0  0  0  0  0  0
   20.1008   18.5865   23.1708 C   0  0  0  0  0  0  0  0  0  0  0  0
   20.1371   17.7514   22.4576 H   0  0  0  0  0  0  0  0  0  0  0  0
   19.9721   18.1340   24.1632 H   0  0  0  0  0  0  0  0  0  0  0  0
   21.4491   19.3532   23.1604 C   0  0  0  0  0  0  0  0  0  0  0  0
   21.2964   20.3982   23.4635 H   0  0  0  0  0  0  0  0  0  0  0  0
   22.0985   18.9142   23.9305 H   0  0  0  0  0  0  0  0  0  0  0  0
   22.2175   19.2950   21.8153 C   0  0  0  0  0  0  0  0  0  0  0  0
   22.4549   18.2499   21.5717 H   0  0  0  0  0  0  0  0  0  0  0  0
   23.1832   19.8039   21.9433 H   0  0  0  0  0  0  0  0  0  0  0  0
   21.4717   19.9408   20.6272 C   0  0  0  0  0  0  0  0  0  0  0  0
   21.1683   20.9693   20.8615 H   0  0  0  0  0  0  0  0  0  0  0  0
   20.5781   19.3648   20.3568 H   0  0  0  0  0  0  0  0  0  0  0  0
   22.1190   19.9755   19.7414 H   0  0  0  0  0  0  0  0  0  0  0  0
  1  2  1  0  0  0  0
  1  3  1  0  0  0  0
  1  4  1  0  0  0  0
  1  5  1  0  0  0  0
  5  6  1  0  0  0  0
  5  7  1  0  0  0  0
  5  8  1  0  0  0  0
  8  9  1  0  0  0  0
  8 10  1  0  0  0  0
  8 11  1  0  0  0  0
 11 12  1  0  0  0  0
 11 13  1  0  0  0  0
 11 14  1  0  0  0  0
 14 15  1  0  0  0  0
 14 16  1  0  0  0  0
 14 17  1  0  0  0  0
 17 18  1  0  0  0  0
 17 19  1  0  0  0  0
 17 20  1  0  0  0  0
 20 21  1  0  0  0  0
 20 22  1  0  0  0  0
 20 23  1  0  0  0  0
M  END
> <VConfSearch Rank>
424

> <Conf_Id>
55

> <Delta U+W>
3.232

> <U+W>
-5.150

> <U>
50.625

> <W>
-55.776

> <W(PB)>
-57.839

> <W(SA)>
2.064

> <Valence>
4.837

> <Coulomb>
45.097

> <VdW>
0.692

> <VdW6>
-6.655

> <VdW12>
7.347

> <Bond>
0.223

> <Angle>
1.167

> <Pdih>
3.447

> <Idih>
0.000

> <Tether>
0.000

$$$$
VeraChem MOL file


 23 22  0  0  0  0  0  0  0  0999 V2000     
   21.3428   20.8146   20.5084 N   0  3  0  0  0  0  0  0  0  0  0  0
   21.1560   21.8184   20.4164 H   0  0  0  0  0  0  0  0  0  0  0  0
   21.5442   20.4618   19.5666 H   0  0  0  0  0  0  0  0  0  0  0  0
   22.2053   20.7175   21.0539 H   0  0  0  0  0  0  0  0  0  0  0  0
   20.1826   20.0803   21.1489 C   0  0  0  0  0  0  0  0  0  0  0  0
   20.4363   19.0192   21.1805 H   0  0  0  0  0  0  0  0  0  0  0  0
   19.3095   20.2027   20.5023 H   0  0  0  0  0  0  0  0  0  0  0  0
   19.8519   20.5942   22.5640 C   0  0  0  0  0  0  0  0  0  0  0  0
   20.7344   20.5207   23.2133 H   0  0  0  0  0  0  0  0  0  0  0  0
   19.6097   21.6628   22.4900 H   0  0  0  0  0  0  0  0  0  0  0  0
   18.6507   19.8605   23.2122 C   0  0  0  0  0  0  0  0  0  0  0  0
   17.8878   19.6427   22.4518 H   0  0  0  0  0  0  0  0  0  0  0  0
   18.1731   20.5492   23.9229 H   0  0  0  0  0  0  0  0  0  0  0  0
   19.0146   18.5677   23.9879 C   0  0  0  0  0  0  0  0  0  0  0  0
   19.6977   18.8155   24.8121 H   0  0  0  0  0  0  0  0  0  0  0  0
   18.0991   18.1819   24.4573 H   0  0  0  0  0  0  0  0  0  0  0  0
   19.6411   17.4512   23.1210 C   0  0  0  0  0  0  0  0  0  0  0  0
   20.6336   17.7626   22.7704 H   0  0  0  0  0  0  0  0  0  0  0  0
   19.0205   17.2760   22.2311 H   0  0  0  0  0  0  0  0  0  0  0  0
   19.7881   16.1328   23.9102 C   0  0  0  0  0  0  0  0  0  0  0  0
   18.8112   15.7628   24.2477 H   0  0  0  0  0  0  0  0  0  0  0  0
   20.4254   16.2706   24.7934 H   0  0  0  0  0  0  0  0  0  0  0  0
   20.2440   15.3550   23.2839 H   0  0  0  0  0  0  0  0  0  0  0  0
  1  2  1  0  0  0  0
  1  3  1  0  0  0  0
  1  4  1  0  0  0  0
  1  5  1  0  0  0  0
  5  6  1  0  0  0  0
  5  7  1  0  0  0  0
  5  8  1  0  0  0  0
  8  9  1  0  0  0  0
  8 10  1  0  0  0  0
  8 11  1  0  0  0  0
 11 12  1  0  0  0  0
 11 13  1  0  0  0  0
 11 14  1  0  0  0  0
 14 15  1  0  0  0  0
 14 16  1  0  0  0  0
 14 17  1  0  0  0  0
 17 18  1  0  0  0  0
 17 19  1  0  0  0  0
 17 20  1  0  0  0  0
 20 21  1  0  0  0  0
 20 22  1  0  0  0  0
 20 23  1  0  0  0  0
M  END
> <VConfSearch Rank>
425

> <Conf_Id>
93

> <Delta U+W>
2.589

> <U+W>
-5.793

> <U>
50.122

> <W>
-55.915

> <W(PB)>
-58.031

> <W(SA)>
2.115

> <Valence>
4.132

> <Coulomb>
45.536

> <VdW>
0.454

> <VdW6>
-6.262

> <VdW12>
6.715

> <Bond>
0.182

> <Angle>
1.157

> <Pdih>
2.794

> <Idih>
0.000

> <Tether>
0.000

$$$$
VeraChem MOL file


 23 22  0  0  0  0  0  0  0  0999 V2000     
   16.8884   18.1031   21.5292 N   0  3  0  0  0  0  0  0  0  0  0  0
   17.1078   18.5331   20.6249 H   0  0  0  0  0  0  0  0  0  0  0  0
   16.0365   18.5568   21.8763 H   0  0  0  0  0  0  0  0  0  0  0  0
   16.6501   17.1229   21.3468 H   0  0  0  0  0  0  0  0  0  0  0  0
   18.0355   18.2327   22.5105 C   0  0  0  0  0  0  0  0  0  0  0  0
   17.7219   17.7808   23.4554 H   0  0  0  0  0  0  0  0  0  0  0  0
   18.2079   19.2966   22.6830 H   0  0  0  0  0  0  0  0  0  0  0  0
   19.3287   17.5534   22.0186 C   0  0  0  0  0  0  0  0  0  0  0  0
   19.1119   16.4900   21.8508 H   0  0  0  0  0  0  0  0  0  0  0  0
   19.6308   17.9652   21.0464 H   0  0  0  0  0  0  0  0  0  0  0  0
   20.4969   17.6644   23.0307 C   0  0  0  0  0  0  0  0  0  0  0  0
   21.1605   16.8012   22.8822 H   0  0  0  0  0  0  0  0  0  0  0  0
   20.1156   17.5725   24.0572 H   0  0  0  0  0  0  0  0  0  0  0  0
   21.3604   18.9457   22.8954 C   0  0  0  0  0  0  0  0  0  0  0  0
   22.1905   18.8752   23.6120 H   0  0  0  0  0  0  0  0  0  0  0  0
   21.8211   18.9729   21.8983 H   0  0  0  0  0  0  0  0  0  0  0  0
   20.5962   20.2666   23.1432 C   0  0  0  0  0  0  0  0  0  0  0  0
   20.0380   20.2042   24.0878 H   0  0  0  0  0  0  0  0  0  0  0  0
   19.8641   20.4310   22.3420 H   0  0  0  0  0  0  0  0  0  0  0  0
   21.5529   21.4770   23.1930 C   0  0  0  0  0  0  0  0  0  0  0  0
   20.9933   22.4068   23.3585 H   0  0  0  0  0  0  0  0  0  0  0  0
   22.1074   21.5806   22.2512 H   0  0  0  0  0  0  0  0  0  0  0  0
   22.2804   21.3728   24.0085 H   0  0  0  0  0  0  0  0  0  0  0  0
  1  2  1  0  0  0  0
  1  3  1  0  0  0  0
  1  4  1  0  0  0  0
  1  5  1  0  0  0  0
  5  6  1  0  0  0  0
  5  7  1  0  0  0  0
  5  8  1  0  0  0  0
  8  9  1  0  0  0  0
  8 10  1  0  0  0  0
  8 11  1  0  0  0  0
 11 12  1  0  0  0  0
 11 13  1  0  0  0  0
 11 14  1  0  0  0  0
 14 15  1  0  0  0  0
 14 16  1  0  0  0  0
 14 17  1  0  0  0  0
 17 18  1  0  0  0  0
 17 19  1  0  0  0  0
 17 20  1  0  0  0  0
 20 21  1  0  0  0  0
 20 22  1  0  0  0  0
 20 23  1  0  0  0  0
M  END
> <VConfSearch Rank>
426

> <Conf_Id>
70

> <Delta U+W>
2.599

> <U+W>
-5.783

> <U>
50.122

> <W>
-55.906

> <W(PB)>
-58.010

> <W(SA)>
2.105

> <Valence>
4.132

> <Coulomb>
45.536

> <VdW>
0.454

> <VdW6>
-6.262

> <VdW12>
6.715

> <Bond>
0.182

> <Angle>
1.157

> <Pdih>
2.794

> <Idih>
0.000

> <Tether>
0.000

$$$$
VeraChem MOL file


 23 22  0  0  0  0  0  0  0  0999 V2000     
   17.5744   19.1683   20.8434 N   0  3  0  0  0  0  0  0  0  0  0  0
   16.6331   18.8315   21.0689 H   0  0  0  0  0  0  0  0  0  0  0  0
   17.5861   19.3740   19.8387 H   0  0  0  0  0  0  0  0  0  0  0  0
   17.7035   20.0580   21.3346 H   0  0  0  0  0  0  0  0  0  0  0  0
   18.6395   18.1592   21.2247 C   0  0  0  0  0  0  0  0  0  0  0  0
   19.6114   18.5627   20.9287 H   0  0  0  0  0  0  0  0  0  0  0  0
   18.4589   17.2494   20.6457 H   0  0  0  0  0  0  0  0  0  0  0  0
   18.6550   17.8153   22.7278 C   0  0  0  0  0  0  0  0  0  0  0  0
   17.6865   17.3791   23.0062 H   0  0  0  0  0  0  0  0  0  0  0  0
   19.3988   17.0276   22.9033 H   0  0  0  0  0  0  0  0  0  0  0  0
   18.9514   19.0280   23.6489 C   0  0  0  0  0  0  0  0  0  0  0  0
   18.9821   18.6817   24.6911 H   0  0  0  0  0  0  0  0  0  0  0  0
   18.1132   19.7358   23.5965 H   0  0  0  0  0  0  0  0  0  0  0  0
   20.2662   19.7853   23.3286 C   0  0  0  0  0  0  0  0  0  0  0  0
   20.2152   20.2202   22.3216 H   0  0  0  0  0  0  0  0  0  0  0  0
   20.3539   20.6344   24.0205 H   0  0  0  0  0  0  0  0  0  0  0  0
   21.5321   18.9048   23.4518 C   0  0  0  0  0  0  0  0  0  0  0  0
   21.4986   18.0883   22.7182 H   0  0  0  0  0  0  0  0  0  0  0  0
   21.5645   18.4387   24.4465 H   0  0  0  0  0  0  0  0  0  0  0  0
   22.8202   19.7255   23.2288 C   0  0  0  0  0  0  0  0  0  0  0  0
   23.7077   19.0856   23.3171 H   0  0  0  0  0  0  0  0  0  0  0  0
   22.9099   20.5296   23.9709 H   0  0  0  0  0  0  0  0  0  0  0  0
   22.8305   20.1798   22.2295 H   0  0  0  0  0  0  0  0  0  0  0  0
  1  2  1  0  0  0  0
  1  3  1  0  0  0  0
  1  4  1  0  0  0  0
  1  5  1  0  0  0  0
  5  6  1  0  0  0  0
  5  7  1  0  0  0  0
  5  8  1  0  0  0  0
  8  9  1  0  0  0  0
  8 10  1  0  0  0  0
  8 11  1  0  0  0  0
 11 12  1  0  0  0  0
 11 13  1  0  0  0  0
 11 14  1  0  0  0  0
 14 15  1  0  0  0  0
 14 16  1  0  0  0  0
 14 17  1  0  0  0  0
 17 18  1  0  0  0  0
 17 19  1  0  0  0  0
 17 20  1  0  0  0  0
 20 21  1  0  0  0  0
 20 22  1  0  0  0  0
 20 23  1  0  0  0  0
M  END
> <VConfSearch Rank>
427

> <Conf_Id>
72

> <Delta U+W>
1.051

> <U+W>
-7.331

> <U>
48.590

> <W>
-55.922

> <W(PB)>
-58.012

> <W(SA)>
2.090

> <Valence>
2.601

> <Coulomb>
45.520

> <VdW>
0.469

> <VdW6>
-6.867

> <VdW12>
7.336

> <Bond>
0.205

> <Angle>
0.962

> <Pdih>
1.434

> <Idih>
0.000

> <Tether>
0.000

$$$$
VeraChem MOL file


 23 22  0  0  0  0  0  0  0  0999 V2000     
   16.6972   18.2761   22.7515 N   0  3  0  0  0  0  0  0  0  0  0  0
   16.2247   17.3664   22.7168 H   0  0  0  0  0  0  0  0  0  0  0  0
   16.0784   18.9506   22.2902 H   0  0  0  0  0  0  0  0  0  0  0  0
   16.7539   18.5451   23.7390 H   0  0  0  0  0  0  0  0  0  0  0  0
   18.0639   18.2255   22.0995 C   0  0  0  0  0  0  0  0  0  0  0  0
   17.9320   17.9060   21.0622 H   0  0  0  0  0  0  0  0  0  0  0  0
   18.6567   17.4689   22.6200 H   0  0  0  0  0  0  0  0  0  0  0  0
   18.8006   19.5775   22.1352 C   0  0  0  0  0  0  0  0  0  0  0  0
   18.1801   20.3379   21.6429 H   0  0  0  0  0  0  0  0  0  0  0  0
   18.9221   19.9055   23.1754 H   0  0  0  0  0  0  0  0  0  0  0  0
   20.1796   19.5254   21.4317 C   0  0  0  0  0  0  0  0  0  0  0  0
   20.6411   20.5211   21.4722 H   0  0  0  0  0  0  0  0  0  0  0  0
   20.0255   19.3142   20.3645 H   0  0  0  0  0  0  0  0  0  0  0  0
   21.1653   18.4728   22.0071 C   0  0  0  0  0  0  0  0  0  0  0  0
   20.7747   17.4643   21.8157 H   0  0  0  0  0  0  0  0  0  0  0  0
   22.1091   18.5342   21.4481 H   0  0  0  0  0  0  0  0  0  0  0  0
   21.4707   18.6132   23.5201 C   0  0  0  0  0  0  0  0  0  0  0  0
   22.1639   17.8125   23.8131 H   0  0  0  0  0  0  0  0  0  0  0  0
   20.5578   18.4504   24.1086 H   0  0  0  0  0  0  0  0  0  0  0  0
   22.0973   19.9753   23.8951 C   0  0  0  0  0  0  0  0  0  0  0  0
   23.0059   20.1660   23.3093 H   0  0  0  0  0  0  0  0  0  0  0  0
   22.3728   19.9926   24.9574 H   0  0  0  0  0  0  0  0  0  0  0  0
   21.3969   20.8018   23.7217 H   0  0  0  0  0  0  0  0  0  0  0  0
  1  2  1  0  0  0  0
  1  3  1  0  0  0  0
  1  4  1  0  0  0  0
  1  5  1  0  0  0  0
  5  6  1  0  0  0  0
  5  7  1  0  0  0  0
  5  8  1  0  0  0  0
  8  9  1  0  0  0  0
  8 10  1  0  0  0  0
  8 11  1  0  0  0  0
 11 12  1  0  0  0  0
 11 13  1  0  0  0  0
 11 14  1  0  0  0  0
 14 15  1  0  0  0  0
 14 16  1  0  0  0  0
 14 17  1  0  0  0  0
 17 18  1  0  0  0  0
 17 19  1  0  0  0  0
 17 20  1  0  0  0  0
 20 21  1  0  0  0  0
 20 22  1  0  0  0  0
 20 23  1  0  0  0  0
M  END
> <VConfSearch Rank>
428

> <Conf_Id>
26

> <Delta U+W>
1.076

> <U+W>
-7.306

> <U>
48.641

> <W>
-55.947

> <W(PB)>
-58.031

> <W(SA)>
2.084

> <Valence>
2.922

> <Coulomb>
45.269

> <VdW>
0.449

> <VdW6>
-7.045

> <VdW12>
7.494

> <Bond>
0.220

> <Angle>
1.205

> <Pdih>
1.497

> <Idih>
0.000

> <Tether>
0.000

$$$$
VeraChem MOL file


 23 22  0  0  0  0  0  0  0  0999 V2000     
   21.7552   21.4451   22.4221 N   0  3  0  0  0  0  0  0  0  0  0  0
   21.7335   22.0805   23.2262 H   0  0  0  0  0  0  0  0  0  0  0  0
   22.0310   22.0045   21.6079 H   0  0  0  0  0  0  0  0  0  0  0  0
   22.5093   20.7715   22.5902 H   0  0  0  0  0  0  0  0  0  0  0  0
   20.4212   20.7592   22.2080 C   0  0  0  0  0  0  0  0  0  0  0  0
   20.5081   20.1246   21.3222 H   0  0  0  0  0  0  0  0  0  0  0  0
   19.6730   21.5306   22.0069 H   0  0  0  0  0  0  0  0  0  0  0  0
   19.9783   19.9099   23.4139 C   0  0  0  0  0  0  0  0  0  0  0  0
   20.7349   19.1435   23.6249 H   0  0  0  0  0  0  0  0  0  0  0  0
   19.9304   20.5492   24.3054 H   0  0  0  0  0  0  0  0  0  0  0  0
   18.5957   19.2448   23.2009 C   0  0  0  0  0  0  0  0  0  0  0  0
   17.8337   20.0314   23.1124 H   0  0  0  0  0  0  0  0  0  0  0  0
   18.3290   18.6748   24.1008 H   0  0  0  0  0  0  0  0  0  0  0  0
   18.5015   18.3223   21.9555 C   0  0  0  0  0  0  0  0  0  0  0  0
   17.4903   17.8948   21.9118 H   0  0  0  0  0  0  0  0  0  0  0  0
   18.6050   18.9273   21.0447 H   0  0  0  0  0  0  0  0  0  0  0  0
   19.5345   17.1677   21.9105 C   0  0  0  0  0  0  0  0  0  0  0  0
   20.5536   17.5720   21.8468 H   0  0  0  0  0  0  0  0  0  0  0  0
   19.3799   16.5955   20.9851 H   0  0  0  0  0  0  0  0  0  0  0  0
   19.4295   16.2042   23.1143 C   0  0  0  0  0  0  0  0  0  0  0  0
   19.6842   16.7070   24.0555 H   0  0  0  0  0  0  0  0  0  0  0  0
   20.1207   15.3602   22.9928 H   0  0  0  0  0  0  0  0  0  0  0  0
   18.4144   15.7966   23.2058 H   0  0  0  0  0  0  0  0  0  0  0  0
  1  2  1  0  0  0  0
  1  3  1  0  0  0  0
  1  4  1  0  0  0  0
  1  5  1  0  0  0  0
  5  6  1  0  0  0  0
  5  7  1  0  0  0  0
  5  8  1  0  0  0  0
  8  9  1  0  0  0  0
  8 10  1  0  0  0  0
  8 11  1  0  0  0  0
 11 12  1  0  0  0  0
 11 13  1  0  0  0  0
 11 14  1  0  0  0  0
 14 15  1  0  0  0  0
 14 16  1  0  0  0  0
 14 17  1  0  0  0  0
 17 18  1  0  0  0  0
 17 19  1  0  0  0  0
 17 20  1  0  0  0  0
 20 21  1  0  0  0  0
 20 22  1  0  0  0  0
 20 23  1  0  0  0  0
M  END
> <VConfSearch Rank>
429

> <Conf_Id>
90

> <Delta U+W>
1.131

> <U+W>
-7.251

> <U>
48.641

> <W>
-55.892

> <W(PB)>
-57.962

> <W(SA)>
2.070

> <Valence>
2.922

> <Coulomb>
45.269

> <VdW>
0.450

> <VdW6>
-7.045

> <VdW12>
7.495

> <Bond>
0.220

> <Angle>
1.205

> <Pdih>
1.497

> <Idih>
0.000

> <Tether>
0.000

$$$$
VeraChem MOL file


 23 22  0  0  0  0  0  0  0  0999 V2000     
   18.3291   19.9149   24.5554 N   0  3  0  0  0  0  0  0  0  0  0  0
   17.3663   20.2506   24.6664 H   0  0  0  0  0  0  0  0  0  0  0  0
   18.7465   20.4460   23.7851 H   0  0  0  0  0  0  0  0  0  0  0  0
   18.8351   20.1700   25.4095 H   0  0  0  0  0  0  0  0  0  0  0  0
   18.3787   18.4220   24.2964 C   0  0  0  0  0  0  0  0  0  0  0  0
   17.7976   18.2150   23.3941 H   0  0  0  0  0  0  0  0  0  0  0  0
   17.8895   17.9218   25.1366 H   0  0  0  0  0  0  0  0  0  0  0  0
   19.8091   17.8684   24.1339 C   0  0  0  0  0  0  0  0  0  0  0  0
   20.3688   18.0397   25.0630 H   0  0  0  0  0  0  0  0  0  0  0  0
   19.7528   16.7791   24.0074 H   0  0  0  0  0  0  0  0  0  0  0  0
   20.5902   18.4814   22.9445 C   0  0  0  0  0  0  0  0  0  0  0  0
   21.5955   18.0386   22.9207 H   0  0  0  0  0  0  0  0  0  0  0  0
   20.7332   19.5558   23.1153 H   0  0  0  0  0  0  0  0  0  0  0  0
   19.8986   18.2448   21.5780 C   0  0  0  0  0  0  0  0  0  0  0  0
   19.6875   17.1725   21.4642 H   0  0  0  0  0  0  0  0  0  0  0  0
   18.9270   18.7560   21.5514 H   0  0  0  0  0  0  0  0  0  0  0  0
   20.7492   18.7092   20.3713 C   0  0  0  0  0  0  0  0  0  0  0  0
   20.2393   18.4107   19.4446 H   0  0  0  0  0  0  0  0  0  0  0  0
   21.7150   18.1847   20.3729 H   0  0  0  0  0  0  0  0  0  0  0  0
   20.9866   20.2362   20.3396 C   0  0  0  0  0  0  0  0  0  0  0  0
   20.0359   20.7844   20.3641 H   0  0  0  0  0  0  0  0  0  0  0  0
   21.5156   20.5234   19.4217 H   0  0  0  0  0  0  0  0  0  0  0  0
   21.5973   20.5672   21.1887 H   0  0  0  0  0  0  0  0  0  0  0  0
  1  2  1  0  0  0  0
  1  3  1  0  0  0  0
  1  4  1  0  0  0  0
  1  5  1  0  0  0  0
  5  6  1  0  0  0  0
  5  7  1  0  0  0  0
  5  8  1  0  0  0  0
  8  9  1  0  0  0  0
  8 10  1  0  0  0  0
  8 11  1  0  0  0  0
 11 12  1  0  0  0  0
 11 13  1  0  0  0  0
 11 14  1  0  0  0  0
 14 15  1  0  0  0  0
 14 16  1  0  0  0  0
 14 17  1  0  0  0  0
 17 18  1  0  0  0  0
 17 19  1  0  0  0  0
 17 20  1  0  0  0  0
 20 21  1  0  0  0  0
 20 22  1  0  0  0  0
 20 23  1  0  0  0  0
M  END
> <VConfSearch Rank>
430

> <Conf_Id>
85

> <Delta U+W>
1.193

> <U+W>
-7.189

> <U>
48.775

> <W>
-55.965

> <W(PB)>
-58.038

> <W(SA)>
2.073

> <Valence>
2.602

> <Coulomb>
45.581

> <VdW>
0.592

> <VdW6>
-6.616

> <VdW12>
7.208

> <Bond>
0.196

> <Angle>
0.832

> <Pdih>
1.574

> <Idih>
0.000

> <Tether>
0.000

$$$$
VeraChem MOL file


 23 22  0  0  0  0  0  0  0  0999 V2000     
   21.4591   17.8979   23.0257 N   0  3  0  0  0  0  0  0  0  0  0  0
   20.5826   18.1191   23.5090 H   0  0  0  0  0  0  0  0  0  0  0  0
   22.2274   18.0989   23.6749 H   0  0  0  0  0  0  0  0  0  0  0  0
   21.4683   16.8869   22.8560 H   0  0  0  0  0  0  0  0  0  0  0  0
   21.5917   18.6842   21.7358 C   0  0  0  0  0  0  0  0  0  0  0  0
   22.5431   18.3945   21.2816 H   0  0  0  0  0  0  0  0  0  0  0  0
   21.6420   19.7490   21.9782 H   0  0  0  0  0  0  0  0  0  0  0  0
   20.4538   18.4296   20.7262 C   0  0  0  0  0  0  0  0  0  0  0  0
   20.8258   18.7001   19.7291 H   0  0  0  0  0  0  0  0  0  0  0  0
   20.2319   17.3552   20.6805 H   0  0  0  0  0  0  0  0  0  0  0  0
   19.1508   19.2344   20.9801 C   0  0  0  0  0  0  0  0  0  0  0  0
   18.4553   18.9995   20.1623 H   0  0  0  0  0  0  0  0  0  0  0  0
   19.3521   20.3112   20.8935 H   0  0  0  0  0  0  0  0  0  0  0  0
   18.4345   18.9310   22.3210 C   0  0  0  0  0  0  0  0  0  0  0  0
   17.3492   18.9805   22.1558 H   0  0  0  0  0  0  0  0  0  0  0  0
   18.6385   17.8987   22.6348 H   0  0  0  0  0  0  0  0  0  0  0  0
   18.7904   19.9366   23.4432 C   0  0  0  0  0  0  0  0  0  0  0  0
   18.4204   20.9339   23.1663 H   0  0  0  0  0  0  0  0  0  0  0  0
   19.8766   20.0378   23.5537 H   0  0  0  0  0  0  0  0  0  0  0  0
   18.1723   19.5244   24.7959 C   0  0  0  0  0  0  0  0  0  0  0  0
   17.0780   19.4675   24.7277 H   0  0  0  0  0  0  0  0  0  0  0  0
   18.4224   20.2561   25.5752 H   0  0  0  0  0  0  0  0  0  0  0  0
   18.5446   18.5448   25.1222 H   0  0  0  0  0  0  0  0  0  0  0  0
  1  2  1  0  0  0  0
  1  3  1  0  0  0  0
  1  4  1  0  0  0  0
  1  5  1  0  0  0  0
  5  6  1  0  0  0  0
  5  7  1  0  0  0  0
  5  8  1  0  0  0  0
  8  9  1  0  0  0  0
  8 10  1  0  0  0  0
  8 11  1  0  0  0  0
 11 12  1  0  0  0  0
 11 13  1  0  0  0  0
 11 14  1  0  0  0  0
 14 15  1  0  0  0  0
 14 16  1  0  0  0  0
 14 17  1  0  0  0  0
 17 18  1  0  0  0  0
 17 19  1  0  0  0  0
 17 20  1  0  0  0  0
 20 21  1  0  0  0  0
 20 22  1  0  0  0  0
 20 23  1  0  0  0  0
M  END
> <VConfSearch Rank>
431

> <Conf_Id>
82

> <Delta U+W>
5.994

> <U+W>
-2.388

> <U>
52.836

> <W>
-55.224

> <W(PB)>
-57.261

> <W(SA)>
2.037

> <Valence>
5.785

> <Coulomb>
46.744

> <VdW>
0.307

> <VdW6>
-7.672

> <VdW12>
7.979

> <Bond>
0.217

> <Angle>
1.470

> <Pdih>
4.098

> <Idih>
0.000

> <Tether>
0.000

$$$$
VeraChem MOL file


 23 22  0  0  0  0  0  0  0  0999 V2000     
   21.2269   17.7430   23.4985 N   0  3  0  0  0  0  0  0  0  0  0  0
   22.0627   18.1784   23.9022 H   0  0  0  0  0  0  0  0  0  0  0  0
   21.1351   16.8165   23.9292 H   0  0  0  0  0  0  0  0  0  0  0  0
   20.4188   18.3003   23.7935 H   0  0  0  0  0  0  0  0  0  0  0  0
   21.3146   17.6551   21.9872 C   0  0  0  0  0  0  0  0  0  0  0  0
   20.4327   17.1270   21.6151 H   0  0  0  0  0  0  0  0  0  0  0  0
   22.1955   17.0511   21.7530 H   0  0  0  0  0  0  0  0  0  0  0  0
   21.4413   19.0228   21.2857 C   0  0  0  0  0  0  0  0  0  0  0  0
   22.1562   19.6542   21.8299 H   0  0  0  0  0  0  0  0  0  0  0  0
   21.8875   18.8508   20.2972 H   0  0  0  0  0  0  0  0  0  0  0  0
   20.1057   19.7860   21.0762 C   0  0  0  0  0  0  0  0  0  0  0  0
   19.4418   19.2067   20.4196 H   0  0  0  0  0  0  0  0  0  0  0  0
   20.3368   20.7060   20.5215 H   0  0  0  0  0  0  0  0  0  0  0  0
   19.3584   20.1837   22.3749 C   0  0  0  0  0  0  0  0  0  0  0  0
   20.0740   20.3287   23.1949 H   0  0  0  0  0  0  0  0  0  0  0  0
   18.8852   21.1632   22.2191 H   0  0  0  0  0  0  0  0  0  0  0  0
   18.2497   19.1786   22.7722 C   0  0  0  0  0  0  0  0  0  0  0  0
   18.6371   18.1532   22.8004 H   0  0  0  0  0  0  0  0  0  0  0  0
   17.4639   19.1840   22.0037 H   0  0  0  0  0  0  0  0  0  0  0  0
   17.6244   19.5296   24.1388 C   0  0  0  0  0  0  0  0  0  0  0  0
   18.3748   19.5022   24.9393 H   0  0  0  0  0  0  0  0  0  0  0  0
   16.8310   18.8159   24.3966 H   0  0  0  0  0  0  0  0  0  0  0  0
   17.1804   20.5336   24.1224 H   0  0  0  0  0  0  0  0  0  0  0  0
  1  2  1  0  0  0  0
  1  3  1  0  0  0  0
  1  4  1  0  0  0  0
  1  5  1  0  0  0  0
  5  6  1  0  0  0  0
  5  7  1  0  0  0  0
  5  8  1  0  0  0  0
  8  9  1  0  0  0  0
  8 10  1  0  0  0  0
  8 11  1  0  0  0  0
 11 12  1  0  0  0  0
 11 13  1  0  0  0  0
 11 14  1  0  0  0  0
 14 15  1  0  0  0  0
 14 16  1  0  0  0  0
 14 17  1  0  0  0  0
 17 18  1  0  0  0  0
 17 19  1  0  0  0  0
 17 20  1  0  0  0  0
 20 21  1  0  0  0  0
 20 22  1  0  0  0  0
 20 23  1  0  0  0  0
M  END
> <VConfSearch Rank>
432

> <Conf_Id>
5

> <Delta U+W>
6.087

> <U+W>
-2.295

> <U>
52.836

> <W>
-55.131

> <W(PB)>
-57.202

> <W(SA)>
2.071

> <Valence>
5.785

> <Coulomb>
46.744

> <VdW>
0.307

> <VdW6>
-7.672

> <VdW12>
7.980

> <Bond>
0.217

> <Angle>
1.470

> <Pdih>
4.098

> <Idih>
0.000

> <Tether>
0.000

$$$$
VeraChem MOL file


 23 22  0  0  0  0  0  0  0  0999 V2000     
   21.5515   19.0632   19.1982 N   0  3  0  0  0  0  0  0  0  0  0  0
   22.0302   19.9595   19.3334 H   0  0  0  0  0  0  0  0  0  0  0  0
   21.3348   18.9891   18.1984 H   0  0  0  0  0  0  0  0  0  0  0  0
   22.2291   18.3241   19.4115 H   0  0  0  0  0  0  0  0  0  0  0  0
   20.3058   18.9526   20.0537 C   0  0  0  0  0  0  0  0  0  0  0  0
   19.8325   17.9908   19.8380 H   0  0  0  0  0  0  0  0  0  0  0  0
   19.6187   19.7486   19.7540 H   0  0  0  0  0  0  0  0  0  0  0  0
   20.5971   19.0600   21.5611 C   0  0  0  0  0  0  0  0  0  0  0  0
   21.2999   18.2688   21.8543 H   0  0  0  0  0  0  0  0  0  0  0  0
   21.0871   20.0203   21.7706 H   0  0  0  0  0  0  0  0  0  0  0  0
   19.3033   18.9427   22.3968 C   0  0  0  0  0  0  0  0  0  0  0  0
   18.8133   17.9831   22.1804 H   0  0  0  0  0  0  0  0  0  0  0  0
   18.6007   19.7328   22.0968 H   0  0  0  0  0  0  0  0  0  0  0  0
   19.5843   19.0493   23.9130 C   0  0  0  0  0  0  0  0  0  0  0  0
   20.2866   18.2593   24.2131 H   0  0  0  0  0  0  0  0  0  0  0  0
   20.0741   20.0088   24.1295 H   0  0  0  0  0  0  0  0  0  0  0  0
   18.2901   18.9321   24.7485 C   0  0  0  0  0  0  0  0  0  0  0  0
   17.7975   17.9726   24.5372 H   0  0  0  0  0  0  0  0  0  0  0  0
   17.5850   19.7219   24.4536 H   0  0  0  0  0  0  0  0  0  0  0  0
   18.5746   19.0389   26.2618 C   0  0  0  0  0  0  0  0  0  0  0  0
   17.6443   18.9535   26.8382 H   0  0  0  0  0  0  0  0  0  0  0  0
   19.0368   20.0034   26.5095 H   0  0  0  0  0  0  0  0  0  0  0  0
   19.2510   18.2404   26.5937 H   0  0  0  0  0  0  0  0  0  0  0  0
  1  2  1  0  0  0  0
  1  3  1  0  0  0  0
  1  4  1  0  0  0  0
  1  5  1  0  0  0  0
  5  6  1  0  0  0  0
  5  7  1  0  0  0  0
  5  8  1  0  0  0  0
  8  9  1  0  0  0  0
  8 10  1  0  0  0  0
  8 11  1  0  0  0  0
 11 12  1  0  0  0  0
 11 13  1  0  0  0  0
 11 14  1  0  0  0  0
 14 15  1  0  0  0  0
 14 16  1  0  0  0  0
 14 17  1  0  0  0  0
 17 18  1  0  0  0  0
 17 19  1  0  0  0  0
 17 20  1  0  0  0  0
 20 21  1  0  0  0  0
 20 22  1  0  0  0  0
 20 23  1  0  0  0  0
M  END
> <VConfSearch Rank>
433

> <Conf_Id>
40

> <Delta U+W>
0.000

> <U+W>
-8.382

> <U>
46.604

> <W>
-54.986

> <W(PB)>
-57.162

> <W(SA)>
2.176

> <Valence>
1.727

> <Coulomb>
44.434

> <VdW>
0.443

> <VdW6>
-4.623

> <VdW12>
5.066

> <Bond>
0.112

> <Angle>
0.386

> <Pdih>
1.228

> <Idih>
0.000

> <Tether>
0.000

$$$$
VeraChem MOL file


 23 22  0  0  0  0  0  0  0  0999 V2000     
   18.0604   15.9952   21.7602 N   0  3  0  0  0  0  0  0  0  0  0  0
   18.3895   15.6432   20.8554 H   0  0  0  0  0  0  0  0  0  0  0  0
   17.1369   16.4117   21.6038 H   0  0  0  0  0  0  0  0  0  0  0  0
   17.9205   15.1783   22.3645 H   0  0  0  0  0  0  0  0  0  0  0  0
   19.0319   16.9859   22.3687 C   0  0  0  0  0  0  0  0  0  0  0  0
   19.9814   16.4695   22.5340 H   0  0  0  0  0  0  0  0  0  0  0  0
   18.6334   17.2926   23.3391 H   0  0  0  0  0  0  0  0  0  0  0  0
   19.2636   18.2252   21.4834 C   0  0  0  0  0  0  0  0  0  0  0  0
   19.6183   17.8983   20.4969 H   0  0  0  0  0  0  0  0  0  0  0  0
   18.3105   18.7450   21.3181 H   0  0  0  0  0  0  0  0  0  0  0  0
   20.2948   19.2089   22.0855 C   0  0  0  0  0  0  0  0  0  0  0  0
   20.4868   19.9989   21.3479 H   0  0  0  0  0  0  0  0  0  0  0  0
   21.2501   18.6886   22.2408 H   0  0  0  0  0  0  0  0  0  0  0  0
   19.8225   19.8452   23.4177 C   0  0  0  0  0  0  0  0  0  0  0  0
   18.8778   20.3829   23.2571 H   0  0  0  0  0  0  0  0  0  0  0  0
   19.6070   19.0533   24.1470 H   0  0  0  0  0  0  0  0  0  0  0  0
   20.8624   20.8057   24.0442 C   0  0  0  0  0  0  0  0  0  0  0  0
   21.8065   20.2703   24.2169 H   0  0  0  0  0  0  0  0  0  0  0  0
   20.5012   21.1178   25.0342 H   0  0  0  0  0  0  0  0  0  0  0  0
   21.1282   22.0680   23.1925 C   0  0  0  0  0  0  0  0  0  0  0  0
   21.6088   21.8180   22.2387 H   0  0  0  0  0  0  0  0  0  0  0  0
   21.7952   22.7574   23.7261 H   0  0  0  0  0  0  0  0  0  0  0  0
   20.1944   22.6037   22.9780 H   0  0  0  0  0  0  0  0  0  0  0  0
  1  2  1  0  0  0  0
  1  3  1  0  0  0  0
  1  4  1  0  0  0  0
  1  5  1  0  0  0  0
  5  6  1  0  0  0  0
  5  7  1  0  0  0  0
  5  8  1  0  0  0  0
  8  9  1  0  0  0  0
  8 10  1  0  0  0  0
  8 11  1  0  0  0  0
 11 12  1  0  0  0  0
 11 13  1  0  0  0  0
 11 14  1  0  0  0  0
 14 15  1  0  0  0  0
 14 16  1  0  0  0  0
 14 17  1  0  0  0  0
 17 18  1  0  0  0  0
 17 19  1  0  0  0  0
 17 20  1  0  0  0  0
 20 21  1  0  0  0  0
 20 22  1  0  0  0  0
 20 23  1  0  0  0  0
M  END
> <VConfSearch Rank>
434

> <Conf_Id>
65

> <Delta U+W>
1.004

> <U+W>
-7.378

> <U>
48.047

> <W>
-55.425

> <W(PB)>
-57.542

> <W(SA)>
2.116

> <Valence>
2.583

> <Coulomb>
44.791

> <VdW>
0.673

> <VdW6>
-5.788

> <VdW12>
6.462

> <Bond>
0.177

> <Angle>
0.787

> <Pdih>
1.619

> <Idih>
0.000

> <Tether>
0.000

$$$$
VeraChem MOL file


 23 22  0  0  0  0  0  0  0  0999 V2000     
   23.1483   20.1061   22.2024 N   0  3  0  0  0  0  0  0  0  0  0  0
   23.2580   21.0667   22.5433 H   0  0  0  0  0  0  0  0  0  0  0  0
   23.7219   20.0231   21.3562 H   0  0  0  0  0  0  0  0  0  0  0  0
   23.5640   19.4873   22.9060 H   0  0  0  0  0  0  0  0  0  0  0  0
   21.6969   19.7635   21.9347 C   0  0  0  0  0  0  0  0  0  0  0  0
   21.6600   18.7423   21.5470 H   0  0  0  0  0  0  0  0  0  0  0  0
   21.3280   20.4399   21.1588 H   0  0  0  0  0  0  0  0  0  0  0  0
   20.8085   19.8793   23.1879 C   0  0  0  0  0  0  0  0  0  0  0  0
   21.1778   19.1993   23.9671 H   0  0  0  0  0  0  0  0  0  0  0  0
   20.8930   20.8965   23.5930 H   0  0  0  0  0  0  0  0  0  0  0  0
   19.3190   19.5780   22.8980 C   0  0  0  0  0  0  0  0  0  0  0  0
   18.9497   20.2663   22.1252 H   0  0  0  0  0  0  0  0  0  0  0  0
   18.7422   19.7922   23.8071 H   0  0  0  0  0  0  0  0  0  0  0  0
   19.0695   18.1131   22.4570 C   0  0  0  0  0  0  0  0  0  0  0  0
   19.6657   17.8922   21.5620 H   0  0  0  0  0  0  0  0  0  0  0  0
   19.4200   17.4258   23.2393 H   0  0  0  0  0  0  0  0  0  0  0  0
   17.5860   17.8117   22.1328 C   0  0  0  0  0  0  0  0  0  0  0  0
   17.5158   16.7959   21.7193 H   0  0  0  0  0  0  0  0  0  0  0  0
   17.2328   18.4895   21.3431 H   0  0  0  0  0  0  0  0  0  0  0  0
   16.6531   17.9129   23.3612 C   0  0  0  0  0  0  0  0  0  0  0  0
   16.5898   18.9416   23.7368 H   0  0  0  0  0  0  0  0  0  0  0  0
   17.0039   17.2687   24.1778 H   0  0  0  0  0  0  0  0  0  0  0  0
   15.6358   17.5959   23.0975 H   0  0  0  0  0  0  0  0  0  0  0  0
  1  2  1  0  0  0  0
  1  3  1  0  0  0  0
  1  4  1  0  0  0  0
  1  5  1  0  0  0  0
  5  6  1  0  0  0  0
  5  7  1  0  0  0  0
  5  8  1  0  0  0  0
  8  9  1  0  0  0  0
  8 10  1  0  0  0  0
  8 11  1  0  0  0  0
 11 12  1  0  0  0  0
 11 13  1  0  0  0  0
 11 14  1  0  0  0  0
 14 15  1  0  0  0  0
 14 16  1  0  0  0  0
 14 17  1  0  0  0  0
 17 18  1  0  0  0  0
 17 19  1  0  0  0  0
 17 20  1  0  0  0  0
 20 21  1  0  0  0  0
 20 22  1  0  0  0  0
 20 23  1  0  0  0  0
M  END
> <VConfSearch Rank>
435

> <Conf_Id>
92

> <Delta U+W>
0.973

> <U+W>
-7.409

> <U>
48.047

> <W>
-55.456

> <W(PB)>
-57.595

> <W(SA)>
2.138

> <Valence>
2.583

> <Coulomb>
44.791

> <VdW>
0.674

> <VdW6>
-5.789

> <VdW12>
6.462

> <Bond>
0.177

> <Angle>
0.787

> <Pdih>
1.619

> <Idih>
0.000

> <Tether>
0.000

$$$$
VeraChem MOL file


 23 22  0  0  0  0  0  0  0  0999 V2000     
   20.7197   15.6448   23.2939 N   0  3  0  0  0  0  0  0  0  0  0  0
   21.7086   15.3890   23.3871 H   0  0  0  0  0  0  0  0  0  0  0  0
   20.2750   14.9137   22.7296 H   0  0  0  0  0  0  0  0  0  0  0  0
   20.3091   15.5934   24.2318 H   0  0  0  0  0  0  0  0  0  0  0  0
   20.5491   17.0179   22.6764 C   0  0  0  0  0  0  0  0  0  0  0  0
   21.0326   17.0095   21.6958 H   0  0  0  0  0  0  0  0  0  0  0  0
   21.0713   17.7382   23.3114 H   0  0  0  0  0  0  0  0  0  0  0  0
   19.0732   17.4314   22.5229 C   0  0  0  0  0  0  0  0  0  0  0  0
   18.5502   16.6768   21.9204 H   0  0  0  0  0  0  0  0  0  0  0  0
   18.5875   17.4390   23.5078 H   0  0  0  0  0  0  0  0  0  0  0  0
   18.9064   18.8144   21.8501 C   0  0  0  0  0  0  0  0  0  0  0  0
   17.8355   19.0009   21.6895 H   0  0  0  0  0  0  0  0  0  0  0  0
   19.3710   18.7958   20.8544 H   0  0  0  0  0  0  0  0  0  0  0  0
   19.5050   19.9725   22.6843 C   0  0  0  0  0  0  0  0  0  0  0  0
   19.0624   19.9677   23.6901 H   0  0  0  0  0  0  0  0  0  0  0  0
   20.5857   19.8244   22.8115 H   0  0  0  0  0  0  0  0  0  0  0  0
   19.2570   21.3454   22.0206 C   0  0  0  0  0  0  0  0  0  0  0  0
   18.1772   21.5082   21.8959 H   0  0  0  0  0  0  0  0  0  0  0  0
   19.6973   21.3556   21.0136 H   0  0  0  0  0  0  0  0  0  0  0  0
   19.8555   22.4995   22.8527 C   0  0  0  0  0  0  0  0  0  0  0  0
   19.4096   22.5360   23.8552 H   0  0  0  0  0  0  0  0  0  0  0  0
   19.6690   23.4656   22.3659 H   0  0  0  0  0  0  0  0  0  0  0  0
   20.9413   22.3833   22.9654 H   0  0  0  0  0  0  0  0  0  0  0  0
  1  2  1  0  0  0  0
  1  3  1  0  0  0  0
  1  4  1  0  0  0  0
  1  5  1  0  0  0  0
  5  6  1  0  0  0  0
  5  7  1  0  0  0  0
  5  8  1  0  0  0  0
  8  9  1  0  0  0  0
  8 10  1  0  0  0  0
  8 11  1  0  0  0  0
 11 12  1  0  0  0  0
 11 13  1  0  0  0  0
 11 14  1  0  0  0  0
 14 15  1  0  0  0  0
 14 16  1  0  0  0  0
 14 17  1  0  0  0  0
 17 18  1  0  0  0  0
 17 19  1  0  0  0  0
 17 20  1  0  0  0  0
 20 21  1  0  0  0  0
 20 22  1  0  0  0  0
 20 23  1  0  0  0  0
M  END
> <VConfSearch Rank>
436

> <Conf_Id>
42

> <Delta U+W>
0.365

> <U+W>
-8.017

> <U>
47.375

> <W>
-55.392

> <W(PB)>
-57.543

> <W(SA)>
2.152

> <Valence>
2.032

> <Coulomb>
44.843

> <VdW>
0.499

> <VdW6>
-5.218

> <VdW12>
5.717

> <Bond>
0.135

> <Angle>
0.514

> <Pdih>
1.383

> <Idih>
0.000

> <Tether>
0.000

$$$$
VeraChem MOL file


 23 22  0  0  0  0  0  0  0  0999 V2000     
   22.9023   18.9801   23.0510 N   0  3  0  0  0  0  0  0  0  0  0  0
   23.0142   19.9303   22.6832 H   0  0  0  0  0  0  0  0  0  0  0  0
   23.8324   18.5478   23.0497 H   0  0  0  0  0  0  0  0  0  0  0  0
   22.6141   19.0664   24.0302 H   0  0  0  0  0  0  0  0  0  0  0  0
   21.9065   18.1748   22.2389 C   0  0  0  0  0  0  0  0  0  0  0  0
   21.8521   17.1701   22.6666 H   0  0  0  0  0  0  0  0  0  0  0  0
   22.3009   18.0910   21.2225 H   0  0  0  0  0  0  0  0  0  0  0  0
   20.4964   18.7947   22.1886 C   0  0  0  0  0  0  0  0  0  0  0  0
   20.5573   19.8138   21.7844 H   0  0  0  0  0  0  0  0  0  0  0  0
   19.8966   18.2059   21.4838 H   0  0  0  0  0  0  0  0  0  0  0  0
   19.7992   18.8091   23.5708 C   0  0  0  0  0  0  0  0  0  0  0  0
   20.4481   19.3086   24.3020 H   0  0  0  0  0  0  0  0  0  0  0  0
   19.6759   17.7769   23.9268 H   0  0  0  0  0  0  0  0  0  0  0  0
   18.4243   19.5263   23.5859 C   0  0  0  0  0  0  0  0  0  0  0  0
   18.0547   19.5093   24.6207 H   0  0  0  0  0  0  0  0  0  0  0  0
   18.5498   20.5887   23.3352 H   0  0  0  0  0  0  0  0  0  0  0  0
   17.3433   18.8849   22.6779 C   0  0  0  0  0  0  0  0  0  0  0  0
   16.3682   18.9759   23.1768 H   0  0  0  0  0  0  0  0  0  0  0  0
   17.5263   17.8069   22.5683 H   0  0  0  0  0  0  0  0  0  0  0  0
   17.2315   19.5559   21.2889 C   0  0  0  0  0  0  0  0  0  0  0  0
   16.9737   20.6184   21.3871 H   0  0  0  0  0  0  0  0  0  0  0  0
   16.4440   19.0765   20.6932 H   0  0  0  0  0  0  0  0  0  0  0  0
   18.1656   19.4874   20.7206 H   0  0  0  0  0  0  0  0  0  0  0  0
  1  2  1  0  0  0  0
  1  3  1  0  0  0  0
  1  4  1  0  0  0  0
  1  5  1  0  0  0  0
  5  6  1  0  0  0  0
  5  7  1  0  0  0  0
  5  8  1  0  0  0  0
  8  9  1  0  0  0  0
  8 10  1  0  0  0  0
  8 11  1  0  0  0  0
 11 12  1  0  0  0  0
 11 13  1  0  0  0  0
 11 14  1  0  0  0  0
 14 15  1  0  0  0  0
 14 16  1  0  0  0  0
 14 17  1  0  0  0  0
 17 18  1  0  0  0  0
 17 19  1  0  0  0  0
 17 20  1  0  0  0  0
 20 21  1  0  0  0  0
 20 22  1  0  0  0  0
 20 23  1  0  0  0  0
M  END
> <VConfSearch Rank>
437

> <Conf_Id>
3

> <Delta U+W>
3.283

> <U+W>
-5.099

> <U>
50.701

> <W>
-55.800

> <W(PB)>
-57.867

> <W(SA)>
2.067

> <Valence>
4.880

> <Coulomb>
45.095

> <VdW>
0.726

> <VdW6>
-6.620

> <VdW12>
7.346

> <Bond>
0.222

> <Angle>
1.260

> <Pdih>
3.398

> <Idih>
0.000

> <Tether>
0.000

$$$$
VeraChem MOL file


 23 22  0  0  0  0  0  0  0  0999 V2000     
   21.8886   21.0353   23.0231 N   0  3  0  0  0  0  0  0  0  0  0  0
   22.6079   21.0394   22.2930 H   0  0  0  0  0  0  0  0  0  0  0  0
   22.1249   21.7864   23.6803 H   0  0  0  0  0  0  0  0  0  0  0  0
   21.0027   21.2930   22.5776 H   0  0  0  0  0  0  0  0  0  0  0  0
   21.7961   19.6896   23.7150 C   0  0  0  0  0  0  0  0  0  0  0  0
   21.0371   19.7621   24.4979 H   0  0  0  0  0  0  0  0  0  0  0  0
   22.7593   19.4955   24.1949 H   0  0  0  0  0  0  0  0  0  0  0  0
   21.4559   18.5248   22.7628 C   0  0  0  0  0  0  0  0  0  0  0  0
   22.2528   18.4312   22.0131 H   0  0  0  0  0  0  0  0  0  0  0  0
   21.4639   17.5878   23.3354 H   0  0  0  0  0  0  0  0  0  0  0  0
   20.0915   18.6711   22.0425 C   0  0  0  0  0  0  0  0  0  0  0  0
   19.9715   17.8158   21.3651 H   0  0  0  0  0  0  0  0  0  0  0  0
   20.0985   19.5661   21.4063 H   0  0  0  0  0  0  0  0  0  0  0  0
   18.8895   18.7311   23.0192 C   0  0  0  0  0  0  0  0  0  0  0  0
   18.8679   17.8221   23.6360 H   0  0  0  0  0  0  0  0  0  0  0  0
   19.0206   19.5719   23.7129 H   0  0  0  0  0  0  0  0  0  0  0  0
   17.5256   18.9041   22.3076 C   0  0  0  0  0  0  0  0  0  0  0  0
   17.5375   19.8180   21.6974 H   0  0  0  0  0  0  0  0  0  0  0  0
   16.7480   19.0541   23.0697 H   0  0  0  0  0  0  0  0  0  0  0  0
   17.1311   17.6960   21.4277 C   0  0  0  0  0  0  0  0  0  0  0  0
   17.1443   16.7640   22.0075 H   0  0  0  0  0  0  0  0  0  0  0  0
   17.8093   17.5798   20.5734 H   0  0  0  0  0  0  0  0  0  0  0  0
   16.1175   17.8275   21.0274 H   0  0  0  0  0  0  0  0  0  0  0  0
  1  2  1  0  0  0  0
  1  3  1  0  0  0  0
  1  4  1  0  0  0  0
  1  5  1  0  0  0  0
  5  6  1  0  0  0  0
  5  7  1  0  0  0  0
  5  8  1  0  0  0  0
  8  9  1  0  0  0  0
  8 10  1  0  0  0  0
  8 11  1  0  0  0  0
 11 12  1  0  0  0  0
 11 13  1  0  0  0  0
 11 14  1  0  0  0  0
 14 15  1  0  0  0  0
 14 16  1  0  0  0  0
 14 17  1  0  0  0  0
 17 18  1  0  0  0  0
 17 19  1  0  0  0  0
 17 20  1  0  0  0  0
 20 21  1  0  0  0  0
 20 22  1  0  0  0  0
 20 23  1  0  0  0  0
M  END
> <VConfSearch Rank>
438

> <Conf_Id>
83

> <Delta U+W>
1.229

> <U+W>
-7.154

> <U>
48.727

> <W>
-55.880

> <W(PB)>
-57.960

> <W(SA)>
2.080

> <Valence>
2.671

> <Coulomb>
45.371

> <VdW>
0.684

> <VdW6>
-6.511

> <VdW12>
7.195

> <Bond>
0.203

> <Angle>
0.915

> <Pdih>
1.554

> <Idih>
0.000

> <Tether>
0.000

$$$$
VeraChem MOL file


 23 22  0  0  0  0  0  0  0  0999 V2000     
   20.2545   21.1005   24.5463 N   0  3  0  0  0  0  0  0  0  0  0  0
   19.7899   21.9909   24.3414 H   0  0  0  0  0  0  0  0  0  0  0  0
   20.9076   20.9155   23.7790 H   0  0  0  0  0  0  0  0  0  0  0  0
   20.8164   21.2439   25.3922 H   0  0  0  0  0  0  0  0  0  0  0  0
   19.2574   19.9713   24.7168 C   0  0  0  0  0  0  0  0  0  0  0  0
   18.6183   20.2178   25.5691 H   0  0  0  0  0  0  0  0  0  0  0  0
   19.8128   19.0626   24.9625 H   0  0  0  0  0  0  0  0  0  0  0  0
   18.3785   19.7270   23.4730 C   0  0  0  0  0  0  0  0  0  0  0  0
   17.6541   18.9346   23.7037 H   0  0  0  0  0  0  0  0  0  0  0  0
   17.7882   20.6303   23.2691 H   0  0  0  0  0  0  0  0  0  0  0  0
   19.1728   19.3378   22.2005 C   0  0  0  0  0  0  0  0  0  0  0  0
   19.8475   20.1560   21.9159 H   0  0  0  0  0  0  0  0  0  0  0  0
   18.4586   19.2294   21.3741 H   0  0  0  0  0  0  0  0  0  0  0  0
   19.9801   18.0246   22.3632 C   0  0  0  0  0  0  0  0  0  0  0  0
   20.6777   18.1235   23.2051 H   0  0  0  0  0  0  0  0  0  0  0  0
   19.2997   17.2013   22.6208 H   0  0  0  0  0  0  0  0  0  0  0  0
   20.7973   17.6441   21.1047 C   0  0  0  0  0  0  0  0  0  0  0  0
   21.4253   16.7742   21.3431 H   0  0  0  0  0  0  0  0  0  0  0  0
   21.4876   18.4598   20.8484 H   0  0  0  0  0  0  0  0  0  0  0  0
   19.9195   17.3011   19.8795 C   0  0  0  0  0  0  0  0  0  0  0  0
   19.1974   16.5100   20.1199 H   0  0  0  0  0  0  0  0  0  0  0  0
   20.5424   16.9452   19.0487 H   0  0  0  0  0  0  0  0  0  0  0  0
   19.3643   18.1771   19.5221 H   0  0  0  0  0  0  0  0  0  0  0  0
  1  2  1  0  0  0  0
  1  3  1  0  0  0  0
  1  4  1  0  0  0  0
  1  5  1  0  0  0  0
  5  6  1  0  0  0  0
  5  7  1  0  0  0  0
  5  8  1  0  0  0  0
  8  9  1  0  0  0  0
  8 10  1  0  0  0  0
  8 11  1  0  0  0  0
 11 12  1  0  0  0  0
 11 13  1  0  0  0  0
 11 14  1  0  0  0  0
 14 15  1  0  0  0  0
 14 16  1  0  0  0  0
 14 17  1  0  0  0  0
 17 18  1  0  0  0  0
 17 19  1  0  0  0  0
 17 20  1  0  0  0  0
 20 21  1  0  0  0  0
 20 22  1  0  0  0  0
 20 23  1  0  0  0  0
M  END
> <VConfSearch Rank>
439

> <Conf_Id>
50

> <Delta U+W>
1.252

> <U+W>
-7.130

> <U>
48.727

> <W>
-55.857

> <W(PB)>
-57.937

> <W(SA)>
2.080

> <Valence>
2.671

> <Coulomb>
45.371

> <VdW>
0.684

> <VdW6>
-6.511

> <VdW12>
7.196

> <Bond>
0.203

> <Angle>
0.915

> <Pdih>
1.554

> <Idih>
0.000

> <Tether>
0.000

$$$$
VeraChem MOL file


 23 22  0  0  0  0  0  0  0  0999 V2000     
   22.3155   20.4027   21.2449 N   0  3  0  0  0  0  0  0  0  0  0  0
   22.1091   21.0507   22.0111 H   0  0  0  0  0  0  0  0  0  0  0  0
   22.6642   20.9660   20.4619 H   0  0  0  0  0  0  0  0  0  0  0  0
   23.0905   19.8065   21.5524 H   0  0  0  0  0  0  0  0  0  0  0  0
   21.0982   19.5878   20.8535 C   0  0  0  0  0  0  0  0  0  0  0  0
   21.3816   18.9536   20.0091 H   0  0  0  0  0  0  0  0  0  0  0  0
   20.3217   20.2789   20.5146 H   0  0  0  0  0  0  0  0  0  0  0  0
   20.5469   18.7067   21.9913 C   0  0  0  0  0  0  0  0  0  0  0  0
   19.7458   18.0808   21.5825 H   0  0  0  0  0  0  0  0  0  0  0  0
   21.3317   18.0181   22.3316 H   0  0  0  0  0  0  0  0  0  0  0  0
   20.0204   19.5381   23.1889 C   0  0  0  0  0  0  0  0  0  0  0  0
   19.3033   20.2954   22.8430 H   0  0  0  0  0  0  0  0  0  0  0  0
   20.8619   20.0924   23.6253 H   0  0  0  0  0  0  0  0  0  0  0  0
   19.3812   18.6718   24.3056 C   0  0  0  0  0  0  0  0  0  0  0  0
   19.8444   17.6758   24.3283 H   0  0  0  0  0  0  0  0  0  0  0  0
   19.6208   19.1312   25.2746 H   0  0  0  0  0  0  0  0  0  0  0  0
   17.8388   18.5409   24.2215 C   0  0  0  0  0  0  0  0  0  0  0  0
   17.3797   19.5361   24.3021 H   0  0  0  0  0  0  0  0  0  0  0  0
   17.4891   17.9735   25.0953 H   0  0  0  0  0  0  0  0  0  0  0  0
   17.3276   17.8435   22.9419 C   0  0  0  0  0  0  0  0  0  0  0  0
   17.8124   16.8689   22.8010 H   0  0  0  0  0  0  0  0  0  0  0  0
   17.5116   18.4583   22.0522 H   0  0  0  0  0  0  0  0  0  0  0  0
   16.2449   17.6739   23.0042 H   0  0  0  0  0  0  0  0  0  0  0  0
  1  2  1  0  0  0  0
  1  3  1  0  0  0  0
  1  4  1  0  0  0  0
  1  5  1  0  0  0  0
  5  6  1  0  0  0  0
  5  7  1  0  0  0  0
  5  8  1  0  0  0  0
  8  9  1  0  0  0  0
  8 10  1  0  0  0  0
  8 11  1  0  0  0  0
 11 12  1  0  0  0  0
 11 13  1  0  0  0  0
 11 14  1  0  0  0  0
 14 15  1  0  0  0  0
 14 16  1  0  0  0  0
 14 17  1  0  0  0  0
 17 18  1  0  0  0  0
 17 19  1  0  0  0  0
 17 20  1  0  0  0  0
 20 21  1  0  0  0  0
 20 22  1  0  0  0  0
 20 23  1  0  0  0  0
M  END
> <VConfSearch Rank>
440

> <Conf_Id>
55

> <Delta U+W>
3.232

> <U+W>
-5.150

> <U>
50.625

> <W>
-55.776

> <W(PB)>
-57.839

> <W(SA)>
2.064

> <Valence>
4.837

> <Coulomb>
45.097

> <VdW>
0.692

> <VdW6>
-6.655

> <VdW12>
7.347

> <Bond>
0.223

> <Angle>
1.167

> <Pdih>
3.447

> <Idih>
0.000

> <Tether>
0.000

$$$$
VeraChem MOL file


 23 22  0  0  0  0  0  0  0  0999 V2000     
   22.7563   19.0455   23.7702 N   0  3  0  0  0  0  0  0  0  0  0  0
   23.3063   18.1877   23.8822 H   0  0  0  0  0  0  0  0  0  0  0  0
   23.0006   19.6602   24.5541 H   0  0  0  0  0  0  0  0  0  0  0  0
   23.0869   19.5059   22.9161 H   0  0  0  0  0  0  0  0  0  0  0  0
   21.2690   18.7607   23.7200 C   0  0  0  0  0  0  0  0  0  0  0  0
   20.7492   19.7168   23.6372 H   0  0  0  0  0  0  0  0  0  0  0  0
   20.9832   18.2987   24.6689 H   0  0  0  0  0  0  0  0  0  0  0  0
   20.8724   17.8328   22.5549 C   0  0  0  0  0  0  0  0  0  0  0  0
   21.1949   18.2624   21.5972 H   0  0  0  0  0  0  0  0  0  0  0  0
   21.4199   16.8879   22.6709 H   0  0  0  0  0  0  0  0  0  0  0  0
   19.3549   17.5211   22.5151 C   0  0  0  0  0  0  0  0  0  0  0  0
   18.9660   17.4124   23.5372 H   0  0  0  0  0  0  0  0  0  0  0  0
   19.2203   16.5392   22.0405 H   0  0  0  0  0  0  0  0  0  0  0  0
   18.4974   18.5433   21.7243 C   0  0  0  0  0  0  0  0  0  0  0  0
   18.8287   18.5662   20.6770 H   0  0  0  0  0  0  0  0  0  0  0  0
   17.4609   18.1790   21.7076 H   0  0  0  0  0  0  0  0  0  0  0  0
   18.5139   19.9788   22.2986 C   0  0  0  0  0  0  0  0  0  0  0  0
   19.5129   20.4178   22.1791 H   0  0  0  0  0  0  0  0  0  0  0  0
   18.2951   19.9534   23.3752 H   0  0  0  0  0  0  0  0  0  0  0  0
   17.4877   20.8876   21.5889 C   0  0  0  0  0  0  0  0  0  0  0  0
   16.4664   20.5058   21.7166 H   0  0  0  0  0  0  0  0  0  0  0  0
   17.6963   20.9531   20.5131 H   0  0  0  0  0  0  0  0  0  0  0  0
   17.5204   21.9045   22.0010 H   0  0  0  0  0  0  0  0  0  0  0  0
  1  2  1  0  0  0  0
  1  3  1  0  0  0  0
  1  4  1  0  0  0  0
  1  5  1  0  0  0  0
  5  6  1  0  0  0  0
  5  7  1  0  0  0  0
  5  8  1  0  0  0  0
  8  9  1  0  0  0  0
  8 10  1  0  0  0  0
  8 11  1  0  0  0  0
 11 12  1  0  0  0  0
 11 13  1  0  0  0  0
 11 14  1  0  0  0  0
 14 15  1  0  0  0  0
 14 16  1  0  0  0  0
 14 17  1  0  0  0  0
 17 18  1  0  0  0  0
 17 19  1  0  0  0  0
 17 20  1  0  0  0  0
 20 21  1  0  0  0  0
 20 22  1  0  0  0  0
 20 23  1  0  0  0  0
M  END
> <VConfSearch Rank>
441

> <Conf_Id>
93

> <Delta U+W>
2.589

> <U+W>
-5.793

> <U>
50.122

> <W>
-55.915

> <W(PB)>
-58.031

> <W(SA)>
2.115

> <Valence>
4.132

> <Coulomb>
45.536

> <VdW>
0.454

> <VdW6>
-6.262

> <VdW12>
6.715

> <Bond>
0.182

> <Angle>
1.157

> <Pdih>
2.794

> <Idih>
0.000

> <Tether>
0.000

$$$$
VeraChem MOL file


 23 22  0  0  0  0  0  0  0  0999 V2000     
   20.2005   21.4317   24.4693 N   0  3  0  0  0  0  0  0  0  0  0  0
   21.1382   21.0748   24.6795 H   0  0  0  0  0  0  0  0  0  0  0  0
   19.7059   21.5161   25.3639 H   0  0  0  0  0  0  0  0  0  0  0  0
   20.3152   22.3819   24.1020 H   0  0  0  0  0  0  0  0  0  0  0  0
   19.4588   20.5361   23.4980 C   0  0  0  0  0  0  0  0  0  0  0  0
   18.4629   20.9601   23.3435 H   0  0  0  0  0  0  0  0  0  0  0  0
   19.3428   19.5581   23.9684 H   0  0  0  0  0  0  0  0  0  0  0  0
   20.1754   20.3959   22.1405 C   0  0  0  0  0  0  0  0  0  0  0  0
   20.2782   21.3987   21.7048 H   0  0  0  0  0  0  0  0  0  0  0  0
   21.1950   20.0144   22.2841 H   0  0  0  0  0  0  0  0  0  0  0  0
   19.4072   19.4990   21.1370 C   0  0  0  0  0  0  0  0  0  0  0  0
   19.6629   19.8278   20.1201 H   0  0  0  0  0  0  0  0  0  0  0  0
   18.3252   19.6622   21.2383 H   0  0  0  0  0  0  0  0  0  0  0  0
   19.7293   17.9849   21.2330 C   0  0  0  0  0  0  0  0  0  0  0  0
   19.1831   17.4682   20.4318 H   0  0  0  0  0  0  0  0  0  0  0  0
   20.7964   17.8240   21.0263 H   0  0  0  0  0  0  0  0  0  0  0  0
   19.3656   17.3336   22.5872 C   0  0  0  0  0  0  0  0  0  0  0  0
   18.3309   17.5861   22.8577 H   0  0  0  0  0  0  0  0  0  0  0  0
   20.0154   17.7289   23.3787 H   0  0  0  0  0  0  0  0  0  0  0  0
   19.5226   15.7987   22.5410 C   0  0  0  0  0  0  0  0  0  0  0  0
   19.2713   15.3539   23.5126 H   0  0  0  0  0  0  0  0  0  0  0  0
   20.5548   15.5148   22.2974 H   0  0  0  0  0  0  0  0  0  0  0  0
   18.8591   15.3558   21.7868 H   0  0  0  0  0  0  0  0  0  0  0  0
  1  2  1  0  0  0  0
  1  3  1  0  0  0  0
  1  4  1  0  0  0  0
  1  5  1  0  0  0  0
  5  6  1  0  0  0  0
  5  7  1  0  0  0  0
  5  8  1  0  0  0  0
  8  9  1  0  0  0  0
  8 10  1  0  0  0  0
  8 11  1  0  0  0  0
 11 12  1  0  0  0  0
 11 13  1  0  0  0  0
 11 14  1  0  0  0  0
 14 15  1  0  0  0  0
 14 16  1  0  0  0  0
 14 17  1  0  0  0  0
 17 18  1  0  0  0  0
 17 19  1  0  0  0  0
 17 20  1  0  0  0  0
 20 21  1  0  0  0  0
 20 22  1  0  0  0  0
 20 23  1  0  0  0  0
M  END
> <VConfSearch Rank>
442

> <Conf_Id>
70

> <Delta U+W>
2.599

> <U+W>
-5.783

> <U>
50.122

> <W>
-55.906

> <W(PB)>
-58.010

> <W(SA)>
2.105

> <Valence>
4.132

> <Coulomb>
45.536

> <VdW>
0.454

> <VdW6>
-6.262

> <VdW12>
6.715

> <Bond>
0.182

> <Angle>
1.157

> <Pdih>
2.794

> <Idih>
0.000

> <Tether>
0.000

$$$$
VeraChem MOL file


 23 22  0  0  0  0  0  0  0  0999 V2000     
   19.8410   19.7459   19.8475 N   0  3  0  0  0  0  0  0  0  0  0  0
   19.7882   20.7131   19.5122 H   0  0  0  0  0  0  0  0  0  0  0  0
   19.6961   19.1388   19.0337 H   0  0  0  0  0  0  0  0  0  0  0  0
   20.7999   19.5901   20.1728 H   0  0  0  0  0  0  0  0  0  0  0  0
   18.8279   19.4736   20.9418 C   0  0  0  0  0  0  0  0  0  0  0  0
   18.9130   18.4224   21.2296 H   0  0  0  0  0  0  0  0  0  0  0  0
   17.8315   19.6305   20.5198 H   0  0  0  0  0  0  0  0  0  0  0  0
   19.0048   20.3692   22.1845 C   0  0  0  0  0  0  0  0  0  0  0  0
   18.8831   21.4199   21.8900 H   0  0  0  0  0  0  0  0  0  0  0  0
   18.1907   20.1606   22.8902 H   0  0  0  0  0  0  0  0  0  0  0  0
   20.3717   20.1949   22.8976 C   0  0  0  0  0  0  0  0  0  0  0  0
   20.3908   20.8383   23.7880 H   0  0  0  0  0  0  0  0  0  0  0  0
   21.1711   20.5693   22.2443 H   0  0  0  0  0  0  0  0  0  0  0  0
   20.7085   18.7405   23.3173 C   0  0  0  0  0  0  0  0  0  0  0  0
   20.7867   18.1002   22.4286 H   0  0  0  0  0  0  0  0  0  0  0  0
   21.7044   18.7361   23.7816 H   0  0  0  0  0  0  0  0  0  0  0  0
   19.6896   18.1319   24.3094 C   0  0  0  0  0  0  0  0  0  0  0  0
   18.6995   18.0610   23.8397 H   0  0  0  0  0  0  0  0  0  0  0  0
   19.5821   18.7913   25.1819 H   0  0  0  0  0  0  0  0  0  0  0  0
   20.1224   16.7269   24.7795 C   0  0  0  0  0  0  0  0  0  0  0  0
   19.3878   16.3092   25.4801 H   0  0  0  0  0  0  0  0  0  0  0  0
   21.0929   16.7631   25.2914 H   0  0  0  0  0  0  0  0  0  0  0  0
   20.2091   16.0362   23.9307 H   0  0  0  0  0  0  0  0  0  0  0  0
  1  2  1  0  0  0  0
  1  3  1  0  0  0  0
  1  4  1  0  0  0  0
  1  5  1  0  0  0  0
  5  6  1  0  0  0  0
  5  7  1  0  0  0  0
  5  8  1  0  0  0  0
  8  9  1  0  0  0  0
  8 10  1  0  0  0  0
  8 11  1  0  0  0  0
 11 12  1  0  0  0  0
 11 13  1  0  0  0  0
 11 14  1  0  0  0  0
 14 15  1  0  0  0  0
 14 16  1  0  0  0  0
 14 17  1  0  0  0  0
 17 18  1  0  0  0  0
 17 19  1  0  0  0  0
 17 20  1  0  0  0  0
 20 21  1  0  0  0  0
 20 22  1  0  0  0  0
 20 23  1  0  0  0  0
M  END
> <VConfSearch Rank>
443

> <Conf_Id>
72

> <Delta U+W>
1.051

> <U+W>
-7.331

> <U>
48.590

> <W>
-55.922

> <W(PB)>
-58.012

> <W(SA)>
2.090

> <Valence>
2.601

> <Coulomb>
45.520

> <VdW>
0.469

> <VdW6>
-6.867

> <VdW12>
7.336

> <Bond>
0.205

> <Angle>
0.962

> <Pdih>
1.434

> <Idih>
0.000

> <Tether>
0.000

$$$$
VeraChem MOL file


 23 22  0  0  0  0  0  0  0  0999 V2000     
   20.1621   16.3151   20.9924 N   0  3  0  0  0  0  0  0  0  0  0  0
   19.7322   16.0064   20.1138 H   0  0  0  0  0  0  0  0  0  0  0  0
   20.3097   15.4760   21.5624 H   0  0  0  0  0  0  0  0  0  0  0  0
   21.0880   16.6864   20.7569 H   0  0  0  0  0  0  0  0  0  0  0  0
   19.3064   17.3406   21.7077 C   0  0  0  0  0  0  0  0  0  0  0  0
   18.3294   16.8897   21.9014 H   0  0  0  0  0  0  0  0  0  0  0  0
   19.1661   18.1899   21.0339 H   0  0  0  0  0  0  0  0  0  0  0  0
   19.9249   17.8253   23.0322 C   0  0  0  0  0  0  0  0  0  0  0  0
   20.0960   16.9602   23.6866 H   0  0  0  0  0  0  0  0  0  0  0  0
   20.9114   18.2664   22.8406 H   0  0  0  0  0  0  0  0  0  0  0  0
   19.0245   18.8435   23.7750 C   0  0  0  0  0  0  0  0  0  0  0  0
   19.5095   19.1311   24.7173 H   0  0  0  0  0  0  0  0  0  0  0  0
   18.0890   18.3448   24.0641 H   0  0  0  0  0  0  0  0  0  0  0  0
   18.6744   20.1186   22.9612 C   0  0  0  0  0  0  0  0  0  0  0  0
   18.0457   19.8431   22.1038 H   0  0  0  0  0  0  0  0  0  0  0  0
   18.0505   20.7726   23.5859 H   0  0  0  0  0  0  0  0  0  0  0  0
   19.8922   20.9296   22.4498 C   0  0  0  0  0  0  0  0  0  0  0  0
   19.5230   21.7948   21.8818 H   0  0  0  0  0  0  0  0  0  0  0  0
   20.4761   20.3302   21.7385 H   0  0  0  0  0  0  0  0  0  0  0  0
   20.8119   21.4352   23.5843 C   0  0  0  0  0  0  0  0  0  0  0  0
   20.2467   22.0275   24.3156 H   0  0  0  0  0  0  0  0  0  0  0  0
   21.6079   22.0731   23.1788 H   0  0  0  0  0  0  0  0  0  0  0  0
   21.2925   20.6032   24.1136 H   0  0  0  0  0  0  0  0  0  0  0  0
  1  2  1  0  0  0  0
  1  3  1  0  0  0  0
  1  4  1  0  0  0  0
  1  5  1  0  0  0  0
  5  6  1  0  0  0  0
  5  7  1  0  0  0  0
  5  8  1  0  0  0  0
  8  9  1  0  0  0  0
  8 10  1  0  0  0  0
  8 11  1  0  0  0  0
 11 12  1  0  0  0  0
 11 13  1  0  0  0  0
 11 14  1  0  0  0  0
 14 15  1  0  0  0  0
 14 16  1  0  0  0  0
 14 17  1  0  0  0  0
 17 18  1  0  0  0  0
 17 19  1  0  0  0  0
 17 20  1  0  0  0  0
 20 21  1  0  0  0  0
 20 22  1  0  0  0  0
 20 23  1  0  0  0  0
M  END
> <VConfSearch Rank>
444

> <Conf_Id>
26

> <Delta U+W>
1.076

> <U+W>
-7.306

> <U>
48.641

> <W>
-55.947

> <W(PB)>
-58.031

> <W(SA)>
2.084

> <Valence>
2.922

> <Coulomb>
45.269

> <VdW>
0.449

> <VdW6>
-7.045

> <VdW12>
7.494

> <Bond>
0.220

> <Angle>
1.205

> <Pdih>
1.497

> <Idih>
0.000

> <Tether>
0.000

$$$$
VeraChem MOL file


 23 22  0  0  0  0  0  0  0  0999 V2000     
   20.5204   16.3242   21.1313 N   0  3  0  0  0  0  0  0  0  0  0  0
   20.4046   15.4726   21.6899 H   0  0  0  0  0  0  0  0  0  0  0  0
   21.2512   16.1288   20.4386 H   0  0  0  0  0  0  0  0  0  0  0  0
   19.6479   16.4655   20.6123 H   0  0  0  0  0  0  0  0  0  0  0  0
   20.8669   17.5218   21.9923 C   0  0  0  0  0  0  0  0  0  0  0  0
   21.0047   18.3818   21.3318 H   0  0  0  0  0  0  0  0  0  0  0  0
   21.8173   17.3155   22.4918 H   0  0  0  0  0  0  0  0  0  0  0  0
   19.7882   17.8422   23.0437 C   0  0  0  0  0  0  0  0  0  0  0  0
   18.8305   18.0367   22.5442 H   0  0  0  0  0  0  0  0  0  0  0  0
   19.6312   16.9596   23.6778 H   0  0  0  0  0  0  0  0  0  0  0  0
   20.1695   19.0433   23.9443 C   0  0  0  0  0  0  0  0  0  0  0  0
   21.0638   18.7805   24.5261 H   0  0  0  0  0  0  0  0  0  0  0  0
   19.3733   19.2051   24.6831 H   0  0  0  0  0  0  0  0  0  0  0  0
   20.4466   20.3672   23.1818 C   0  0  0  0  0  0  0  0  0  0  0  0
   20.6898   21.1491   23.9143 H   0  0  0  0  0  0  0  0  0  0  0  0
   21.3478   20.2511   22.5649 H   0  0  0  0  0  0  0  0  0  0  0  0
   19.2858   20.8668   22.2845 C   0  0  0  0  0  0  0  0  0  0  0  0
   19.0932   20.1477   21.4771 H   0  0  0  0  0  0  0  0  0  0  0  0
   19.6006   21.7964   21.7902 H   0  0  0  0  0  0  0  0  0  0  0  0
   17.9798   21.1365   23.0656 C   0  0  0  0  0  0  0  0  0  0  0  0
   17.5656   20.2127   23.4882 H   0  0  0  0  0  0  0  0  0  0  0  0
   17.2178   21.5680   22.4037 H   0  0  0  0  0  0  0  0  0  0  0  0
   18.1507   21.8441   23.8872 H   0  0  0  0  0  0  0  0  0  0  0  0
  1  2  1  0  0  0  0
  1  3  1  0  0  0  0
  1  4  1  0  0  0  0
  1  5  1  0  0  0  0
  5  6  1  0  0  0  0
  5  7  1  0  0  0  0
  5  8  1  0  0  0  0
  8  9  1  0  0  0  0
  8 10  1  0  0  0  0
  8 11  1  0  0  0  0
 11 12  1  0  0  0  0
 11 13  1  0  0  0  0
 11 14  1  0  0  0  0
 14 15  1  0  0  0  0
 14 16  1  0  0  0  0
 14 17  1  0  0  0  0
 17 18  1  0  0  0  0
 17 19  1  0  0  0  0
 17 20  1  0  0  0  0
 20 21  1  0  0  0  0
 20 22  1  0  0  0  0
 20 23  1  0  0  0  0
M  END
> <VConfSearch Rank>
445

> <Conf_Id>
90

> <Delta U+W>
1.131

> <U+W>
-7.251

> <U>
48.641

> <W>
-55.892

> <W(PB)>
-57.962

> <W(SA)>
2.070

> <Valence>
2.922

> <Coulomb>
45.269

> <VdW>
0.450

> <VdW6>
-7.045

> <VdW12>
7.495

> <Bond>
0.220

> <Angle>
1.205

> <Pdih>
1.497

> <Idih>
0.000

> <Tether>
0.000

$$$$
VeraChem MOL file


 23 22  0  0  0  0  0  0  0  0999 V2000     
   22.3194   19.7380   22.3651 N   0  3  0  0  0  0  0  0  0  0  0  0
   23.0498   19.7012   21.6461 H   0  0  0  0  0  0  0  0  0  0  0  0
   21.9930   18.7781   22.5124 H   0  0  0  0  0  0  0  0  0  0  0  0
   22.7700   20.0423   23.2340 H   0  0  0  0  0  0  0  0  0  0  0  0
   21.1833   20.6597   21.9675 C   0  0  0  0  0  0  0  0  0  0  0  0
   20.7689   20.2988   21.0227 H   0  0  0  0  0  0  0  0  0  0  0  0
   21.6057   21.6533   21.7945 H   0  0  0  0  0  0  0  0  0  0  0  0
   20.0645   20.7562   23.0247 C   0  0  0  0  0  0  0  0  0  0  0  0
   20.4825   21.1642   23.9546 H   0  0  0  0  0  0  0  0  0  0  0  0
   19.3170   21.4834   22.6808 H   0  0  0  0  0  0  0  0  0  0  0  0
   19.3646   19.4072   23.3259 C   0  0  0  0  0  0  0  0  0  0  0  0
   18.5994   19.5743   24.0964 H   0  0  0  0  0  0  0  0  0  0  0  0
   20.0895   18.7080   23.7615 H   0  0  0  0  0  0  0  0  0  0  0  0
   18.6985   18.7771   22.0767 C   0  0  0  0  0  0  0  0  0  0  0  0
   18.0415   19.5220   21.6069 H   0  0  0  0  0  0  0  0  0  0  0  0
   19.4609   18.5213   21.3289 H   0  0  0  0  0  0  0  0  0  0  0  0
   17.8607   17.5161   22.3984 C   0  0  0  0  0  0  0  0  0  0  0  0
   17.3397   17.1963   21.4851 H   0  0  0  0  0  0  0  0  0  0  0  0
   17.0771   17.7659   23.1274 H   0  0  0  0  0  0  0  0  0  0  0  0
   18.7070   16.3362   22.9282 C   0  0  0  0  0  0  0  0  0  0  0  0
   19.5146   16.0839   22.2289 H   0  0  0  0  0  0  0  0  0  0  0  0
   18.0824   15.4425   23.0552 H   0  0  0  0  0  0  0  0  0  0  0  0
   19.1543   16.5663   23.9030 H   0  0  0  0  0  0  0  0  0  0  0  0
  1  2  1  0  0  0  0
  1  3  1  0  0  0  0
  1  4  1  0  0  0  0
  1  5  1  0  0  0  0
  5  6  1  0  0  0  0
  5  7  1  0  0  0  0
  5  8  1  0  0  0  0
  8  9  1  0  0  0  0
  8 10  1  0  0  0  0
  8 11  1  0  0  0  0
 11 12  1  0  0  0  0
 11 13  1  0  0  0  0
 11 14  1  0  0  0  0
 14 15  1  0  0  0  0
 14 16  1  0  0  0  0
 14 17  1  0  0  0  0
 17 18  1  0  0  0  0
 17 19  1  0  0  0  0
 17 20  1  0  0  0  0
 20 21  1  0  0  0  0
 20 22  1  0  0  0  0
 20 23  1  0  0  0  0
M  END
> <VConfSearch Rank>
446

> <Conf_Id>
85

> <Delta U+W>
1.193

> <U+W>
-7.189

> <U>
48.775

> <W>
-55.965

> <W(PB)>
-58.038

> <W(SA)>
2.073

> <Valence>
2.602

> <Coulomb>
45.581

> <VdW>
0.592

> <VdW6>
-6.616

> <VdW12>
7.208

> <Bond>
0.196

> <Angle>
0.832

> <Pdih>
1.574

> <Idih>
0.000

> <Tether>
0.000

$$$$
VeraChem MOL file


 23 22  0  0  0  0  0  0  0  0999 V2000     
   18.0783   20.1825   22.5251 N   0  3  0  0  0  0  0  0  0  0  0  0
   18.9527   20.1330   23.0577 H   0  0  0  0  0  0  0  0  0  0  0  0
   17.3182   20.3394   23.1959 H   0  0  0  0  0  0  0  0  0  0  0  0
   18.1289   21.0163   21.9307 H   0  0  0  0  0  0  0  0  0  0  0  0
   17.8576   18.9241   21.7083 C   0  0  0  0  0  0  0  0  0  0  0  0
   16.9136   19.0531   21.1719 H   0  0  0  0  0  0  0  0  0  0  0  0
   17.7464   18.0779   22.3916 H   0  0  0  0  0  0  0  0  0  0  0  0
   18.9791   18.6321   20.6906 C   0  0  0  0  0  0  0  0  0  0  0  0
   18.5612   17.9809   19.9114 H   0  0  0  0  0  0  0  0  0  0  0  0
   19.2679   19.5605   20.1802 H   0  0  0  0  0  0  0  0  0  0  0  0
   20.2349   17.9288   21.2724 C   0  0  0  0  0  0  0  0  0  0  0  0
   20.9195   17.7341   20.4352 H   0  0  0  0  0  0  0  0  0  0  0  0
   19.9625   16.9392   21.6648 H   0  0  0  0  0  0  0  0  0  0  0  0
   21.0084   18.7352   22.3470 C   0  0  0  0  0  0  0  0  0  0  0  0
   22.0830   18.5422   22.2215 H   0  0  0  0  0  0  0  0  0  0  0  0
   20.8802   19.8125   22.1779 H   0  0  0  0  0  0  0  0  0  0  0  0
   20.6222   18.3473   23.7953 C   0  0  0  0  0  0  0  0  0  0  0  0
   20.9192   17.3057   23.9826 H   0  0  0  0  0  0  0  0  0  0  0  0
   19.5355   18.3813   23.9373 H   0  0  0  0  0  0  0  0  0  0  0  0
   21.3051   19.2633   24.8328 C   0  0  0  0  0  0  0  0  0  0  0  0
   22.3983   19.2075   24.7481 H   0  0  0  0  0  0  0  0  0  0  0  0
   21.0318   18.9642   25.8531 H   0  0  0  0  0  0  0  0  0  0  0  0
   21.0061   20.3107   24.6976 H   0  0  0  0  0  0  0  0  0  0  0  0
  1  2  1  0  0  0  0
  1  3  1  0  0  0  0
  1  4  1  0  0  0  0
  1  5  1  0  0  0  0
  5  6  1  0  0  0  0
  5  7  1  0  0  0  0
  5  8  1  0  0  0  0
  8  9  1  0  0  0  0
  8 10  1  0  0  0  0
  8 11  1  0  0  0  0
 11 12  1  0  0  0  0
 11 13  1  0  0  0  0
 11 14  1  0  0  0  0
 14 15  1  0  0  0  0
 14 16  1  0  0  0  0
 14 17  1  0  0  0  0
 17 18  1  0  0  0  0
 17 19  1  0  0  0  0
 17 20  1  0  0  0  0
 20 21  1  0  0  0  0
 20 22  1  0  0  0  0
 20 23  1  0  0  0  0
M  END
> <VConfSearch Rank>
447

> <Conf_Id>
82

> <Delta U+W>
5.994

> <U+W>
-2.388

> <U>
52.836

> <W>
-55.224

> <W(PB)>
-57.261

> <W(SA)>
2.037

> <Valence>
5.785

> <Coulomb>
46.744

> <VdW>
0.307

> <VdW6>
-7.672

> <VdW12>
7.979

> <Bond>
0.217

> <Angle>
1.470

> <Pdih>
4.098

> <Idih>
0.000

> <Tether>
0.000

$$$$
VeraChem MOL file


 23 22  0  0  0  0  0  0  0  0999 V2000     
   18.3887   17.8056   23.4102 N   0  3  0  0  0  0  0  0  0  0  0  0
   17.5998   17.5327   22.8151 H   0  0  0  0  0  0  0  0  0  0  0  0
   18.3932   17.1661   24.2123 H   0  0  0  0  0  0  0  0  0  0  0  0
   19.2474   17.6355   22.8769 H   0  0  0  0  0  0  0  0  0  0  0  0
   18.2876   19.2545   23.8461 C   0  0  0  0  0  0  0  0  0  0  0  0
   19.1137   19.4739   24.5276 H   0  0  0  0  0  0  0  0  0  0  0  0
   17.3522   19.3558   24.4032 H   0  0  0  0  0  0  0  0  0  0  0  0
   18.2897   20.2623   22.6785 C   0  0  0  0  0  0  0  0  0  0  0  0
   17.6403   19.8969   21.8719 H   0  0  0  0  0  0  0  0  0  0  0  0
   17.8255   21.1903   23.0380 H   0  0  0  0  0  0  0  0  0  0  0  0
   19.6913   20.6208   22.1155 C   0  0  0  0  0  0  0  0  0  0  0  0
   20.2945   21.1086   22.8938 H   0  0  0  0  0  0  0  0  0  0  0  0
   19.5471   21.3820   21.3362 H   0  0  0  0  0  0  0  0  0  0  0  0
   20.4778   19.4392   21.4925 C   0  0  0  0  0  0  0  0  0  0  0  0
   19.7822   18.6907   21.0904 H   0  0  0  0  0  0  0  0  0  0  0  0
   21.0419   19.8134   20.6267 H   0  0  0  0  0  0  0  0  0  0  0  0
   21.4869   18.7939   22.4736 C   0  0  0  0  0  0  0  0  0  0  0  0
   21.0034   18.5311   23.4220 H   0  0  0  0  0  0  0  0  0  0  0  0
   22.2668   19.5265   22.7246 H   0  0  0  0  0  0  0  0  0  0  0  0
   22.1477   17.5375   21.8681 C   0  0  0  0  0  0  0  0  0  0  0  0
   21.4010   16.7678   21.6341 H   0  0  0  0  0  0  0  0  0  0  0  0
   22.8702   17.1028   22.5711 H   0  0  0  0  0  0  0  0  0  0  0  0
   22.6855   17.7827   20.9429 H   0  0  0  0  0  0  0  0  0  0  0  0
  1  2  1  0  0  0  0
  1  3  1  0  0  0  0
  1  4  1  0  0  0  0
  1  5  1  0  0  0  0
  5  6  1  0  0  0  0
  5  7  1  0  0  0  0
  5  8  1  0  0  0  0
  8  9  1  0  0  0  0
  8 10  1  0  0  0  0
  8 11  1  0  0  0  0
 11 12  1  0  0  0  0
 11 13  1  0  0  0  0
 11 14  1  0  0  0  0
 14 15  1  0  0  0  0
 14 16  1  0  0  0  0
 14 17  1  0  0  0  0
 17 18  1  0  0  0  0
 17 19  1  0  0  0  0
 17 20  1  0  0  0  0
 20 21  1  0  0  0  0
 20 22  1  0  0  0  0
 20 23  1  0  0  0  0
M  END
> <VConfSearch Rank>
448

> <Conf_Id>
5

> <Delta U+W>
6.087

> <U+W>
-2.295

> <U>
52.836

> <W>
-55.131

> <W(PB)>
-57.202

> <W(SA)>
2.071

> <Valence>
5.785

> <Coulomb>
46.744

> <VdW>
0.307

> <VdW6>
-7.672

> <VdW12>
7.980

> <Bond>
0.217

> <Angle>
1.470

> <Pdih>
4.098

> <Idih>
0.000

> <Tether>
0.000

$$$$
VeraChem MOL file


 23 22  0  0  0  0  0  0  0  0999 V2000     
   21.1770   22.1663   24.2801 N   0  3  0  0  0  0  0  0  0  0  0  0
   22.0526   22.1986   23.7481 H   0  0  0  0  0  0  0  0  0  0  0  0
   21.3836   22.5312   25.2162 H   0  0  0  0  0  0  0  0  0  0  0  0
   20.5310   22.8284   23.8384 H   0  0  0  0  0  0  0  0  0  0  0  0
   20.6007   20.7660   24.3365 C   0  0  0  0  0  0  0  0  0  0  0  0
   19.6898   20.8000   24.9404 H   0  0  0  0  0  0  0  0  0  0  0  0
   21.3253   20.1230   24.8434 H   0  0  0  0  0  0  0  0  0  0  0  0
   20.2794   20.1890   22.9464 C   0  0  0  0  0  0  0  0  0  0  0  0
   19.5639   20.8465   22.4347 H   0  0  0  0  0  0  0  0  0  0  0  0
   21.1936   20.1720   22.3381 H   0  0  0  0  0  0  0  0  0  0  0  0
   19.6951   18.7626   23.0475 C   0  0  0  0  0  0  0  0  0  0  0  0
   18.7836   18.7830   23.6612 H   0  0  0  0  0  0  0  0  0  0  0  0
   20.4116   18.1092   23.5646 H   0  0  0  0  0  0  0  0  0  0  0  0
   19.3685   18.1731   21.6565 C   0  0  0  0  0  0  0  0  0  0  0  0
   18.6520   18.8262   21.1394 H   0  0  0  0  0  0  0  0  0  0  0  0
   20.2798   18.1527   21.0427 H   0  0  0  0  0  0  0  0  0  0  0  0
   18.7842   16.7465   21.7579 C   0  0  0  0  0  0  0  0  0  0  0  0
   17.8709   16.7621   22.3691 H   0  0  0  0  0  0  0  0  0  0  0  0
   19.4986   16.0885   22.2725 H   0  0  0  0  0  0  0  0  0  0  0  0
   18.4594   16.1612   20.3671 C   0  0  0  0  0  0  0  0  0  0  0  0
   18.0459   15.1485   20.4596 H   0  0  0  0  0  0  0  0  0  0  0  0
   19.3611   16.1011   19.7437 H   0  0  0  0  0  0  0  0  0  0  0  0
   17.7207   16.7799   19.8411 H   0  0  0  0  0  0  0  0  0  0  0  0
  1  2  1  0  0  0  0
  1  3  1  0  0  0  0
  1  4  1  0  0  0  0
  1  5  1  0  0  0  0
  5  6  1  0  0  0  0
  5  7  1  0  0  0  0
  5  8  1  0  0  0  0
  8  9  1  0  0  0  0
  8 10  1  0  0  0  0
  8 11  1  0  0  0  0
 11 12  1  0  0  0  0
 11 13  1  0  0  0  0
 11 14  1  0  0  0  0
 14 15  1  0  0  0  0
 14 16  1  0  0  0  0
 14 17  1  0  0  0  0
 17 18  1  0  0  0  0
 17 19  1  0  0  0  0
 17 20  1  0  0  0  0
 20 21  1  0  0  0  0
 20 22  1  0  0  0  0
 20 23  1  0  0  0  0
M  END
> <VConfSearch Rank>
449

> <Conf_Id>
40

> <Delta U+W>
0.000

> <U+W>
-8.382

> <U>
46.604

> <W>
-54.986

> <W(PB)>
-57.162

> <W(SA)>
2.176

> <Valence>
1.727

> <Coulomb>
44.434

> <VdW>
0.443

> <VdW6>
-4.623

> <VdW12>
5.066

> <Bond>
0.112

> <Angle>
0.386

> <Pdih>
1.228

> <Idih>
0.000

> <Tether>
0.000

$$$$
VeraChem MOL file


 23 22  0  0  0  0  0  0  0  0999 V2000     
   19.4520   19.9643   19.1774 N   0  3  0  0  0  0  0  0  0  0  0  0
   20.3702   20.2007   18.7879 H   0  0  0  0  0  0  0  0  0  0  0  0
   18.9552   20.8469   19.3352 H   0  0  0  0  0  0  0  0  0  0  0  0
   18.9391   19.4601   18.4461 H   0  0  0  0  0  0  0  0  0  0  0  0
   19.5701   19.1468   20.4477 C   0  0  0  0  0  0  0  0  0  0  0  0
   20.0815   18.2124   20.2014 H   0  0  0  0  0  0  0  0  0  0  0  0
   18.5591   18.9070   20.7866 H   0  0  0  0  0  0  0  0  0  0  0  0
   20.3367   19.8777   21.5663 C   0  0  0  0  0  0  0  0  0  0  0  0
   21.3326   20.1541   21.1953 H   0  0  0  0  0  0  0  0  0  0  0  0
   19.8227   20.8158   21.8150 H   0  0  0  0  0  0  0  0  0  0  0  0
   20.4986   19.0192   22.8432 C   0  0  0  0  0  0  0  0  0  0  0  0
   21.1479   19.5623   23.5419 H   0  0  0  0  0  0  0  0  0  0  0  0
   21.0216   18.0857   22.5931 H   0  0  0  0  0  0  0  0  0  0  0  0
   19.1490   18.6945   23.5330 C   0  0  0  0  0  0  0  0  0  0  0  0
   18.6361   19.6284   23.8015 H   0  0  0  0  0  0  0  0  0  0  0  0
   18.4909   18.1731   22.8256 H   0  0  0  0  0  0  0  0  0  0  0  0
   19.2990   17.8079   24.7931 C   0  0  0  0  0  0  0  0  0  0  0  0
   19.8023   16.8674   24.5283 H   0  0  0  0  0  0  0  0  0  0  0  0
   18.2970   17.5300   25.1489 H   0  0  0  0  0  0  0  0  0  0  0  0
   20.0610   18.4990   25.9467 C   0  0  0  0  0  0  0  0  0  0  0  0
   21.1098   18.6846   25.6842 H   0  0  0  0  0  0  0  0  0  0  0  0
   20.0535   17.8673   26.8443 H   0  0  0  0  0  0  0  0  0  0  0  0
   19.5962   19.4585   26.2082 H   0  0  0  0  0  0  0  0  0  0  0  0
  1  2  1  0  0  0  0
  1  3  1  0  0  0  0
  1  4  1  0  0  0  0
  1  5  1  0  0  0  0
  5  6  1  0  0  0  0
  5  7  1  0  0  0  0
  5  8  1  0  0  0  0
  8  9  1  0  0  0  0
  8 10  1  0  0  0  0
  8 11  1  0  0  0  0
 11 12  1  0  0  0  0
 11 13  1  0  0  0  0
 11 14  1  0  0  0  0
 14 15  1  0  0  0  0
 14 16  1  0  0  0  0
 14 17  1  0  0  0  0
 17 18  1  0  0  0  0
 17 19  1  0  0  0  0
 17 20  1  0  0  0  0
 20 21  1  0  0  0  0
 20 22  1  0  0  0  0
 20 23  1  0  0  0  0
M  END
> <VConfSearch Rank>
450

> <Conf_Id>
65

> <Delta U+W>
1.004

> <U+W>
-7.378

> <U>
48.047

> <W>
-55.425

> <W(PB)>
-57.542

> <W(SA)>
2.116

> <Valence>
2.583

> <Coulomb>
44.791

> <VdW>
0.673

> <VdW6>
-5.788

> <VdW12>
6.462

> <Bond>
0.177

> <Angle>
0.787

> <Pdih>
1.619

> <Idih>
0.000

> <Tether>
0.000

$$$$
VeraChem MOL file


 23 22  0  0  0  0  0  0  0  0999 V2000     
   17.7583   20.9442   20.3650 N   0  3  0  0  0  0  0  0  0  0  0  0
   16.7974   21.0127   20.7157 H   0  0  0  0  0  0  0  0  0  0  0  0
   17.6966   20.8327   19.3472 H   0  0  0  0  0  0  0  0  0  0  0  0
   18.2078   21.8490   20.5388 H   0  0  0  0  0  0  0  0  0  0  0  0
   18.5162   19.8027   21.0116 C   0  0  0  0  0  0  0  0  0  0  0  0
   19.5153   19.7715   20.5696 H   0  0  0  0  0  0  0  0  0  0  0  0
   18.0004   18.8713   20.7630 H   0  0  0  0  0  0  0  0  0  0  0  0
   18.6258   19.9416   22.5419 C   0  0  0  0  0  0  0  0  0  0  0  0
   19.1450   20.8764   22.7923 H   0  0  0  0  0  0  0  0  0  0  0  0
   17.6162   20.0196   22.9668 H   0  0  0  0  0  0  0  0  0  0  0  0
   19.3561   18.7482   23.2024 C   0  0  0  0  0  0  0  0  0  0  0  0
   18.8288   17.8156   22.9583 H   0  0  0  0  0  0  0  0  0  0  0  0
   19.2914   18.8665   24.2917 H   0  0  0  0  0  0  0  0  0  0  0  0
   20.8429   18.6353   22.7791 C   0  0  0  0  0  0  0  0  0  0  0  0
   20.9080   18.5418   21.6870 H   0  0  0  0  0  0  0  0  0  0  0  0
   21.3744   19.5603   23.0423 H   0  0  0  0  0  0  0  0  0  0  0  0
   21.5725   17.4242   23.4095 C   0  0  0  0  0  0  0  0  0  0  0  0
   22.5770   17.3507   22.9696 H   0  0  0  0  0  0  0  0  0  0  0  0
   21.0511   16.4949   23.1408 H   0  0  0  0  0  0  0  0  0  0  0  0
   21.7098   17.5182   24.9463 C   0  0  0  0  0  0  0  0  0  0  0  0
   20.7331   17.4675   25.4431 H   0  0  0  0  0  0  0  0  0  0  0  0
   22.1989   18.4552   25.2427 H   0  0  0  0  0  0  0  0  0  0  0  0
   22.3169   16.6876   25.3289 H   0  0  0  0  0  0  0  0  0  0  0  0
  1  2  1  0  0  0  0
  1  3  1  0  0  0  0
  1  4  1  0  0  0  0
  1  5  1  0  0  0  0
  5  6  1  0  0  0  0
  5  7  1  0  0  0  0
  5  8  1  0  0  0  0
  8  9  1  0  0  0  0
  8 10  1  0  0  0  0
  8 11  1  0  0  0  0
 11 12  1  0  0  0  0
 11 13  1  0  0  0  0
 11 14  1  0  0  0  0
 14 15  1  0  0  0  0
 14 16  1  0  0  0  0
 14 17  1  0  0  0  0
 17 18  1  0  0  0  0
 17 19  1  0  0  0  0
 17 20  1  0  0  0  0
 20 21  1  0  0  0  0
 20 22  1  0  0  0  0
 20 23  1  0  0  0  0
M  END
> <VConfSearch Rank>
451

> <Conf_Id>
92

> <Delta U+W>
0.973

> <U+W>
-7.409

> <U>
48.047

> <W>
-55.456

> <W(PB)>
-57.595

> <W(SA)>
2.138

> <Valence>
2.583

> <Coulomb>
44.791

> <VdW>
0.674

> <VdW6>
-5.789

> <VdW12>
6.462

> <Bond>
0.177

> <Angle>
0.787

> <Pdih>
1.619

> <Idih>
0.000

> <Tether>
0.000

$$$$
VeraChem MOL file


 23 22  0  0  0  0  0  0  0  0999 V2000     
   20.2895   20.7446   25.6089 N   0  3  0  0  0  0  0  0  0  0  0  0
   20.7543   20.3034   26.4097 H   0  0  0  0  0  0  0  0  0  0  0  0
   19.4893   21.2669   25.9799 H   0  0  0  0  0  0  0  0  0  0  0  0
   20.9461   21.4317   25.2248 H   0  0  0  0  0  0  0  0  0  0  0  0
   19.8668   19.7247   24.5711 C   0  0  0  0  0  0  0  0  0  0  0  0
   19.1940   19.0108   25.0539 H   0  0  0  0  0  0  0  0  0  0  0  0
   20.7614   19.1881   24.2448 H   0  0  0  0  0  0  0  0  0  0  0  0
   19.1648   20.3570   23.3545 C   0  0  0  0  0  0  0  0  0  0  0  0
   18.2939   20.9295   23.7006 H   0  0  0  0  0  0  0  0  0  0  0  0
   19.8403   21.0747   22.8702 H   0  0  0  0  0  0  0  0  0  0  0  0
   18.6958   19.3056   22.3213 C   0  0  0  0  0  0  0  0  0  0  0  0
   18.1257   19.8164   21.5330 H   0  0  0  0  0  0  0  0  0  0  0  0
   18.0000   18.6041   22.8025 H   0  0  0  0  0  0  0  0  0  0  0  0
   19.8651   18.5223   21.6772 C   0  0  0  0  0  0  0  0  0  0  0  0
   20.5756   19.2286   21.2259 H   0  0  0  0  0  0  0  0  0  0  0  0
   20.4150   17.9667   22.4486 H   0  0  0  0  0  0  0  0  0  0  0  0
   19.3682   17.5338   20.5989 C   0  0  0  0  0  0  0  0  0  0  0  0
   18.8231   18.0804   19.8166 H   0  0  0  0  0  0  0  0  0  0  0  0
   18.6563   16.8252   21.0450 H   0  0  0  0  0  0  0  0  0  0  0  0
   20.5350   16.7522   19.9582 C   0  0  0  0  0  0  0  0  0  0  0  0
   21.2474   17.4330   19.4741 H   0  0  0  0  0  0  0  0  0  0  0  0
   20.1626   16.0563   19.1953 H   0  0  0  0  0  0  0  0  0  0  0  0
   21.0789   16.1671   20.7112 H   0  0  0  0  0  0  0  0  0  0  0  0
  1  2  1  0  0  0  0
  1  3  1  0  0  0  0
  1  4  1  0  0  0  0
  1  5  1  0  0  0  0
  5  6  1  0  0  0  0
  5  7  1  0  0  0  0
  5  8  1  0  0  0  0
  8  9  1  0  0  0  0
  8 10  1  0  0  0  0
  8 11  1  0  0  0  0
 11 12  1  0  0  0  0
 11 13  1  0  0  0  0
 11 14  1  0  0  0  0
 14 15  1  0  0  0  0
 14 16  1  0  0  0  0
 14 17  1  0  0  0  0
 17 18  1  0  0  0  0
 17 19  1  0  0  0  0
 17 20  1  0  0  0  0
 20 21  1  0  0  0  0
 20 22  1  0  0  0  0
 20 23  1  0  0  0  0
M  END
> <VConfSearch Rank>
452

> <Conf_Id>
42

> <Delta U+W>
0.365

> <U+W>
-8.017

> <U>
47.375

> <W>
-55.392

> <W(PB)>
-57.543

> <W(SA)>
2.152

> <Valence>
2.032

> <Coulomb>
44.843

> <VdW>
0.499

> <VdW6>
-5.218

> <VdW12>
5.717

> <Bond>
0.135

> <Angle>
0.514

> <Pdih>
1.383

> <Idih>
0.000

> <Tether>
0.000

$$$$
VeraChem MOL file


 23 22  0  0  0  0  0  0  0  0999 V2000     
   18.9075   16.3176   21.1220 N   0  3  0  0  0  0  0  0  0  0  0  0
   19.8610   16.1263   20.7981 H   0  0  0  0  0  0  0  0  0  0  0  0
   18.2781   15.7370   20.5574 H   0  0  0  0  0  0  0  0  0  0  0  0
   18.8417   15.9790   22.0866 H   0  0  0  0  0  0  0  0  0  0  0  0
   18.5608   17.7900   21.0162 C   0  0  0  0  0  0  0  0  0  0  0  0
   17.5288   17.9216   21.3526 H   0  0  0  0  0  0  0  0  0  0  0  0
   18.6119   18.0659   19.9594 H   0  0  0  0  0  0  0  0  0  0  0  0
   19.4929   18.7102   21.8284 C   0  0  0  0  0  0  0  0  0  0  0  0
   20.5317   18.5561   21.5079 H   0  0  0  0  0  0  0  0  0  0  0  0
   19.2334   19.7480   21.5861 H   0  0  0  0  0  0  0  0  0  0  0  0
   19.3673   18.4916   23.3559 C   0  0  0  0  0  0  0  0  0  0  0  0
   19.5248   17.4300   23.5872 H   0  0  0  0  0  0  0  0  0  0  0  0
   18.3415   18.7245   23.6736 H   0  0  0  0  0  0  0  0  0  0  0  0
   20.3687   19.3175   24.2045 C   0  0  0  0  0  0  0  0  0  0  0  0
   20.2123   19.0449   25.2574 H   0  0  0  0  0  0  0  0  0  0  0  0
   21.3993   19.0159   23.9718 H   0  0  0  0  0  0  0  0  0  0  0  0
   20.2184   20.8557   24.0779 C   0  0  0  0  0  0  0  0  0  0  0  0
   20.4259   21.3094   25.0572 H   0  0  0  0  0  0  0  0  0  0  0  0
   19.1792   21.1199   23.8374 H   0  0  0  0  0  0  0  0  0  0  0  0
   21.1859   21.4842   23.0478 C   0  0  0  0  0  0  0  0  0  0  0  0
   22.2307   21.2889   23.3223 H   0  0  0  0  0  0  0  0  0  0  0  0
   21.0505   22.5727   23.0083 H   0  0  0  0  0  0  0  0  0  0  0  0
   21.0248   21.0929   22.0373 H   0  0  0  0  0  0  0  0  0  0  0  0
  1  2  1  0  0  0  0
  1  3  1  0  0  0  0
  1  4  1  0  0  0  0
  1  5  1  0  0  0  0
  5  6  1  0  0  0  0
  5  7  1  0  0  0  0
  5  8  1  0  0  0  0
  8  9  1  0  0  0  0
  8 10  1  0  0  0  0
  8 11  1  0  0  0  0
 11 12  1  0  0  0  0
 11 13  1  0  0  0  0
 11 14  1  0  0  0  0
 14 15  1  0  0  0  0
 14 16  1  0  0  0  0
 14 17  1  0  0  0  0
 17 18  1  0  0  0  0
 17 19  1  0  0  0  0
 17 20  1  0  0  0  0
 20 21  1  0  0  0  0
 20 22  1  0  0  0  0
 20 23  1  0  0  0  0
M  END
> <VConfSearch Rank>
453

> <Conf_Id>
3

> <Delta U+W>
3.283

> <U+W>
-5.099

> <U>
50.701

> <W>
-55.800

> <W(PB)>
-57.867

> <W(SA)>
2.067

> <Valence>
4.880

> <Coulomb>
45.095

> <VdW>
0.726

> <VdW6>
-6.620

> <VdW12>
7.346

> <Bond>
0.222

> <Angle>
1.260

> <Pdih>
3.398

> <Idih>
0.000

> <Tether>
0.000

$$$$
VeraChem MOL file


 23 22  0  0  0  0  0  0  0  0999 V2000     
   16.9062   18.9041   22.8451 N   0  3  0  0  0  0  0  0  0  0  0  0
   16.5935   18.1680   23.4863 H   0  0  0  0  0  0  0  0  0  0  0  0
   16.0662   19.3948   22.5205 H   0  0  0  0  0  0  0  0  0  0  0  0
   17.4522   19.5739   23.3954 H   0  0  0  0  0  0  0  0  0  0  0  0
   17.7112   18.3406   21.6907 C   0  0  0  0  0  0  0  0  0  0  0  0
   17.9856   19.1688   21.0324 H   0  0  0  0  0  0  0  0  0  0  0  0
   17.0601   17.6645   21.1299 H   0  0  0  0  0  0  0  0  0  0  0  0
   18.9789   17.5804   22.1313 C   0  0  0  0  0  0  0  0  0  0  0  0
   18.6844   16.7217   22.7491 H   0  0  0  0  0  0  0  0  0  0  0  0
   19.4667   17.1627   21.2406 H   0  0  0  0  0  0  0  0  0  0  0  0
   19.9991   18.4462   22.9131 C   0  0  0  0  0  0  0  0  0  0  0  0
   20.8353   17.8003   23.2107 H   0  0  0  0  0  0  0  0  0  0  0  0
   19.5457   18.8081   23.8455 H   0  0  0  0  0  0  0  0  0  0  0  0
   20.5376   19.6453   22.0917 C   0  0  0  0  0  0  0  0  0  0  0  0
   21.0154   19.2795   21.1724 H   0  0  0  0  0  0  0  0  0  0  0  0
   19.6996   20.2789   21.7730 H   0  0  0  0  0  0  0  0  0  0  0  0
   21.5371   20.5299   22.8758 C   0  0  0  0  0  0  0  0  0  0  0  0
   21.0609   20.9077   23.7914 H   0  0  0  0  0  0  0  0  0  0  0  0
   21.7768   21.4134   22.2677 H   0  0  0  0  0  0  0  0  0  0  0  0
   22.8533   19.8035   23.2357 C   0  0  0  0  0  0  0  0  0  0  0  0
   23.3324   19.3873   22.3400 H   0  0  0  0  0  0  0  0  0  0  0  0
   22.6823   18.9857   23.9464 H   0  0  0  0  0  0  0  0  0  0  0  0
   23.5616   20.5010   23.7012 H   0  0  0  0  0  0  0  0  0  0  0  0
  1  2  1  0  0  0  0
  1  3  1  0  0  0  0
  1  4  1  0  0  0  0
  1  5  1  0  0  0  0
  5  6  1  0  0  0  0
  5  7  1  0  0  0  0
  5  8  1  0  0  0  0
  8  9  1  0  0  0  0
  8 10  1  0  0  0  0
  8 11  1  0  0  0  0
 11 12  1  0  0  0  0
 11 13  1  0  0  0  0
 11 14  1  0  0  0  0
 14 15  1  0  0  0  0
 14 16  1  0  0  0  0
 14 17  1  0  0  0  0
 17 18  1  0  0  0  0
 17 19  1  0  0  0  0
 17 20  1  0  0  0  0
 20 21  1  0  0  0  0
 20 22  1  0  0  0  0
 20 23  1  0  0  0  0
M  END
> <VConfSearch Rank>
454

> <Conf_Id>
83

> <Delta U+W>
1.229

> <U+W>
-7.154

> <U>
48.727

> <W>
-55.880

> <W(PB)>
-57.960

> <W(SA)>
2.080

> <Valence>
2.671

> <Coulomb>
45.371

> <VdW>
0.684

> <VdW6>
-6.511

> <VdW12>
7.195

> <Bond>
0.203

> <Angle>
0.915

> <Pdih>
1.554

> <Idih>
0.000

> <Tether>
0.000

$$$$
VeraChem MOL file


 23 22  0  0  0  0  0  0  0  0999 V2000     
   16.9748   18.8781   23.5381 N   0  3  0  0  0  0  0  0  0  0  0  0
   16.5824   19.7877   23.8011 H   0  0  0  0  0  0  0  0  0  0  0  0
   17.7661   18.6969   24.1631 H   0  0  0  0  0  0  0  0  0  0  0  0
   16.2598   18.1726   23.7451 H   0  0  0  0  0  0  0  0  0  0  0  0
   17.3936   18.8454   22.0814 C   0  0  0  0  0  0  0  0  0  0  0  0
   16.4993   19.0107   21.4745 H   0  0  0  0  0  0  0  0  0  0  0  0
   17.7722   17.8445   21.8597 H   0  0  0  0  0  0  0  0  0  0  0  0
   18.4592   19.9000   21.7187 C   0  0  0  0  0  0  0  0  0  0  0  0
   18.6608   19.8410   20.6409 H   0  0  0  0  0  0  0  0  0  0  0  0
   18.0465   20.9018   21.8977 H   0  0  0  0  0  0  0  0  0  0  0  0
   19.7915   19.7500   22.4960 C   0  0  0  0  0  0  0  0  0  0  0  0
   19.6141   19.8830   23.5715 H   0  0  0  0  0  0  0  0  0  0  0  0
   20.4560   20.5693   22.1925 H   0  0  0  0  0  0  0  0  0  0  0  0
   20.4951   18.3921   22.2443 C   0  0  0  0  0  0  0  0  0  0  0  0
   19.8220   17.5714   22.5248 H   0  0  0  0  0  0  0  0  0  0  0  0
   20.6968   18.2730   21.1708 H   0  0  0  0  0  0  0  0  0  0  0  0
   21.8132   18.2247   23.0386 C   0  0  0  0  0  0  0  0  0  0  0  0
   22.1823   17.1994   22.8954 H   0  0  0  0  0  0  0  0  0  0  0  0
   21.6157   18.3321   24.1143 H   0  0  0  0  0  0  0  0  0  0  0  0
   22.9209   19.2147   22.6116 C   0  0  0  0  0  0  0  0  0  0  0  0
   23.1140   19.1501   21.5329 H   0  0  0  0  0  0  0  0  0  0  0  0
   23.8595   18.9891   23.1342 H   0  0  0  0  0  0  0  0  0  0  0  0
   22.6517   20.2505   22.8519 H   0  0  0  0  0  0  0  0  0  0  0  0
  1  2  1  0  0  0  0
  1  3  1  0  0  0  0
  1  4  1  0  0  0  0
  1  5  1  0  0  0  0
  5  6  1  0  0  0  0
  5  7  1  0  0  0  0
  5  8  1  0  0  0  0
  8  9  1  0  0  0  0
  8 10  1  0  0  0  0
  8 11  1  0  0  0  0
 11 12  1  0  0  0  0
 11 13  1  0  0  0  0
 11 14  1  0  0  0  0
 14 15  1  0  0  0  0
 14 16  1  0  0  0  0
 14 17  1  0  0  0  0
 17 18  1  0  0  0  0
 17 19  1  0  0  0  0
 17 20  1  0  0  0  0
 20 21  1  0  0  0  0
 20 22  1  0  0  0  0
 20 23  1  0  0  0  0
M  END
> <VConfSearch Rank>
455

> <Conf_Id>
50

> <Delta U+W>
1.252

> <U+W>
-7.130

> <U>
48.727

> <W>
-55.857

> <W(PB)>
-57.937

> <W(SA)>
2.080

> <Valence>
2.671

> <Coulomb>
45.371

> <VdW>
0.684

> <VdW6>
-6.511

> <VdW12>
7.196

> <Bond>
0.203

> <Angle>
0.915

> <Pdih>
1.554

> <Idih>
0.000

> <Tether>
0.000

$$$$
VeraChem MOL file


 23 22  0  0  0  0  0  0  0  0999 V2000     
   19.2392   22.1507   22.1896 N   0  3  0  0  0  0  0  0  0  0  0  0
   20.0962   22.1559   22.7509 H   0  0  0  0  0  0  0  0  0  0  0  0
   18.6931   22.9727   22.4690 H   0  0  0  0  0  0  0  0  0  0  0  0
   19.5155   22.2936   21.2130 H   0  0  0  0  0  0  0  0  0  0  0  0
   18.4549   20.8658   22.3716 C   0  0  0  0  0  0  0  0  0  0  0  0
   17.5399   20.9494   21.7787 H   0  0  0  0  0  0  0  0  0  0  0  0
   18.1721   20.7870   23.4248 H   0  0  0  0  0  0  0  0  0  0  0  0
   19.2252   19.6008   21.9458 C   0  0  0  0  0  0  0  0  0  0  0  0
   18.5425   18.7461   22.0101 H   0  0  0  0  0  0  0  0  0  0  0  0
   19.5114   19.6869   20.8892 H   0  0  0  0  0  0  0  0  0  0  0  0
   20.4845   19.3482   22.8135 C   0  0  0  0  0  0  0  0  0  0  0  0
   20.2217   19.3552   23.8804 H   0  0  0  0  0  0  0  0  0  0  0  0
   21.1826   20.1831   22.6663 H   0  0  0  0  0  0  0  0  0  0  0  0
   21.2235   18.0318   22.4569 C   0  0  0  0  0  0  0  0  0  0  0  0
   21.0753   17.7861   21.3963 H   0  0  0  0  0  0  0  0  0  0  0  0
   22.3027   18.2029   22.5724 H   0  0  0  0  0  0  0  0  0  0  0  0
   20.8475   16.8168   23.3433 C   0  0  0  0  0  0  0  0  0  0  0  0
   21.0947   17.0352   24.3916 H   0  0  0  0  0  0  0  0  0  0  0  0
   21.4789   15.9653   23.0534 H   0  0  0  0  0  0  0  0  0  0  0  0
   19.3664   16.3906   23.2447 C   0  0  0  0  0  0  0  0  0  0  0  0
   19.0713   16.2211   22.2012 H   0  0  0  0  0  0  0  0  0  0  0  0
   18.7034   17.1498   23.6776 H   0  0  0  0  0  0  0  0  0  0  0  0
   19.1988   15.4567   23.7967 H   0  0  0  0  0  0  0  0  0  0  0  0
  1  2  1  0  0  0  0
  1  3  1  0  0  0  0
  1  4  1  0  0  0  0
  1  5  1  0  0  0  0
  5  6  1  0  0  0  0
  5  7  1  0  0  0  0
  5  8  1  0  0  0  0
  8  9  1  0  0  0  0
  8 10  1  0  0  0  0
  8 11  1  0  0  0  0
 11 12  1  0  0  0  0
 11 13  1  0  0  0  0
 11 14  1  0  0  0  0
 14 15  1  0  0  0  0
 14 16  1  0  0  0  0
 14 17  1  0  0  0  0
 17 18  1  0  0  0  0
 17 19  1  0  0  0  0
 17 20  1  0  0  0  0
 20 21  1  0  0  0  0
 20 22  1  0  0  0  0
 20 23  1  0  0  0  0
M  END
> <VConfSearch Rank>
456

> <Conf_Id>
55

> <Delta U+W>
3.232

> <U+W>
-5.150

> <U>
50.625

> <W>
-55.776

> <W(PB)>
-57.839

> <W(SA)>
2.064

> <Valence>
4.837

> <Coulomb>
45.097

> <VdW>
0.692

> <VdW6>
-6.655

> <VdW12>
7.347

> <Bond>
0.223

> <Angle>
1.167

> <Pdih>
3.447

> <Idih>
0.000

> <Tether>
0.000

$$$$
VeraChem MOL file


 23 22  0  0  0  0  0  0  0  0999 V2000     
   17.9321   21.2935   23.6093 N   0  3  0  0  0  0  0  0  0  0  0  0
   18.1422   21.8559   24.4402 H   0  0  0  0  0  0  0  0  0  0  0  0
   16.9142   21.1696   23.5834 H   0  0  0  0  0  0  0  0  0  0  0  0
   18.1846   21.8579   22.7917 H   0  0  0  0  0  0  0  0  0  0  0  0
   18.6609   19.9653   23.6268 C   0  0  0  0  0  0  0  0  0  0  0  0
   18.3623   19.4095   22.7361 H   0  0  0  0  0  0  0  0  0  0  0  0
   18.3232   19.4083   24.5049 H   0  0  0  0  0  0  0  0  0  0  0  0
   20.1938   20.1198   23.6727 C   0  0  0  0  0  0  0  0  0  0  0  0
   20.5434   20.7176   22.8205 H   0  0  0  0  0  0  0  0  0  0  0  0
   20.4515   20.6881   24.5764 H   0  0  0  0  0  0  0  0  0  0  0  0
   20.9410   18.7628   23.7142 C   0  0  0  0  0  0  0  0  0  0  0  0
   20.3844   18.0454   24.3332 H   0  0  0  0  0  0  0  0  0  0  0  0
   21.9000   18.9167   24.2281 H   0  0  0  0  0  0  0  0  0  0  0  0
   21.2493   18.1429   22.3264 C   0  0  0  0  0  0  0  0  0  0  0  0
   21.8941   18.8254   21.7558 H   0  0  0  0  0  0  0  0  0  0  0  0
   21.8382   17.2287   22.4840 H   0  0  0  0  0  0  0  0  0  0  0  0
   20.0000   17.7943   21.4848 C   0  0  0  0  0  0  0  0  0  0  0  0
   19.4828   18.7147   21.1845 H   0  0  0  0  0  0  0  0  0  0  0  0
   19.2950   17.2055   22.0881 H   0  0  0  0  0  0  0  0  0  0  0  0
   20.3729   17.0011   20.2142 C   0  0  0  0  0  0  0  0  0  0  0  0
   20.8594   16.0507   20.4697 H   0  0  0  0  0  0  0  0  0  0  0  0
   21.0581   17.5756   19.5773 H   0  0  0  0  0  0  0  0  0  0  0  0
   19.4765   16.7717   19.6235 H   0  0  0  0  0  0  0  0  0  0  0  0
  1  2  1  0  0  0  0
  1  3  1  0  0  0  0
  1  4  1  0  0  0  0
  1  5  1  0  0  0  0
  5  6  1  0  0  0  0
  5  7  1  0  0  0  0
  5  8  1  0  0  0  0
  8  9  1  0  0  0  0
  8 10  1  0  0  0  0
  8 11  1  0  0  0  0
 11 12  1  0  0  0  0
 11 13  1  0  0  0  0
 11 14  1  0  0  0  0
 14 15  1  0  0  0  0
 14 16  1  0  0  0  0
 14 17  1  0  0  0  0
 17 18  1  0  0  0  0
 17 19  1  0  0  0  0
 17 20  1  0  0  0  0
 20 21  1  0  0  0  0
 20 22  1  0  0  0  0
 20 23  1  0  0  0  0
M  END
> <VConfSearch Rank>
457

> <Conf_Id>
93

> <Delta U+W>
2.589

> <U+W>
-5.793

> <U>
50.122

> <W>
-55.915

> <W(PB)>
-58.031

> <W(SA)>
2.115

> <Valence>
4.132

> <Coulomb>
45.536

> <VdW>
0.454

> <VdW6>
-6.262

> <VdW12>
6.715

> <Bond>
0.182

> <Angle>
1.157

> <Pdih>
2.794

> <Idih>
0.000

> <Tether>
0.000

$$$$
VeraChem MOL file


 23 22  0  0  0  0  0  0  0  0999 V2000     
   20.6868   15.9932   22.3874 N   0  3  0  0  0  0  0  0  0  0  0  0
   19.7351   15.7060   22.1373 H   0  0  0  0  0  0  0  0  0  0  0  0
   20.9457   15.4673   23.2291 H   0  0  0  0  0  0  0  0  0  0  0  0
   21.3054   15.6737   21.6350 H   0  0  0  0  0  0  0  0  0  0  0  0
   20.7875   17.4893   22.6047 C   0  0  0  0  0  0  0  0  0  0  0  0
   21.8166   17.7181   22.8947 H   0  0  0  0  0  0  0  0  0  0  0  0
   20.1334   17.7497   23.4387 H   0  0  0  0  0  0  0  0  0  0  0  0
   20.4109   18.3065   21.3533 C   0  0  0  0  0  0  0  0  0  0  0  0
   21.0853   18.0111   20.5384 H   0  0  0  0  0  0  0  0  0  0  0  0
   19.3951   18.0526   21.0224 H   0  0  0  0  0  0  0  0  0  0  0  0
   20.5355   19.8365   21.5657 C   0  0  0  0  0  0  0  0  0  0  0  0
   20.7472   20.3003   20.5923 H   0  0  0  0  0  0  0  0  0  0  0  0
   21.4074   20.0592   22.1964 H   0  0  0  0  0  0  0  0  0  0  0  0
   19.2702   20.5220   22.1441 C   0  0  0  0  0  0  0  0  0  0  0  0
   19.4551   21.6045   22.1812 H   0  0  0  0  0  0  0  0  0  0  0  0
   18.4287   20.3808   21.4519 H   0  0  0  0  0  0  0  0  0  0  0  0
   18.8615   20.0357   23.5537 C   0  0  0  0  0  0  0  0  0  0  0  0
   19.7302   20.0657   24.2262 H   0  0  0  0  0  0  0  0  0  0  0  0
   18.5221   18.9929   23.5057 H   0  0  0  0  0  0  0  0  0  0  0  0
   17.7258   20.8972   24.1460 C   0  0  0  0  0  0  0  0  0  0  0  0
   17.4409   20.5318   25.1411 H   0  0  0  0  0  0  0  0  0  0  0  0
   16.8333   20.8664   23.5075 H   0  0  0  0  0  0  0  0  0  0  0  0
   18.0367   21.9450   24.2489 H   0  0  0  0  0  0  0  0  0  0  0  0
  1  2  1  0  0  0  0
  1  3  1  0  0  0  0
  1  4  1  0  0  0  0
  1  5  1  0  0  0  0
  5  6  1  0  0  0  0
  5  7  1  0  0  0  0
  5  8  1  0  0  0  0
  8  9  1  0  0  0  0
  8 10  1  0  0  0  0
  8 11  1  0  0  0  0
 11 12  1  0  0  0  0
 11 13  1  0  0  0  0
 11 14  1  0  0  0  0
 14 15  1  0  0  0  0
 14 16  1  0  0  0  0
 14 17  1  0  0  0  0
 17 18  1  0  0  0  0
 17 19  1  0  0  0  0
 17 20  1  0  0  0  0
 20 21  1  0  0  0  0
 20 22  1  0  0  0  0
 20 23  1  0  0  0  0
M  END
> <VConfSearch Rank>
458

> <Conf_Id>
70

> <Delta U+W>
2.599

> <U+W>
-5.783

> <U>
50.122

> <W>
-55.906

> <W(PB)>
-58.010

> <W(SA)>
2.105

> <Valence>
4.132

> <Coulomb>
45.536

> <VdW>
0.454

> <VdW6>
-6.262

> <VdW12>
6.715

> <Bond>
0.182

> <Angle>
1.157

> <Pdih>
2.794

> <Idih>
0.000

> <Tether>
0.000

$$$$
VeraChem MOL file


 23 22  0  0  0  0  0  0  0  0999 V2000     
   22.6334   18.8895   22.9290 N   0  3  0  0  0  0  0  0  0  0  0  0
   23.2873   18.4820   22.2532 H   0  0  0  0  0  0  0  0  0  0  0  0
   23.1586   19.0484   23.7954 H   0  0  0  0  0  0  0  0  0  0  0  0
   22.3599   19.8089   22.5694 H   0  0  0  0  0  0  0  0  0  0  0  0
   21.4292   17.9967   23.1554 C   0  0  0  0  0  0  0  0  0  0  0  0
   20.7920   18.4700   23.9070 H   0  0  0  0  0  0  0  0  0  0  0  0
   21.7895   17.0487   23.5639 H   0  0  0  0  0  0  0  0  0  0  0  0
   20.6117   17.7258   21.8763 C   0  0  0  0  0  0  0  0  0  0  0  0
   21.2518   17.2195   21.1417 H   0  0  0  0  0  0  0  0  0  0  0  0
   19.8091   17.0156   22.1127 H   0  0  0  0  0  0  0  0  0  0  0  0
   20.0074   19.0014   21.2324 C   0  0  0  0  0  0  0  0  0  0  0  0
   19.4128   18.7080   20.3563 H   0  0  0  0  0  0  0  0  0  0  0  0
   20.8196   19.6295   20.8422 H   0  0  0  0  0  0  0  0  0  0  0  0
   19.1252   19.8557   22.1793 C   0  0  0  0  0  0  0  0  0  0  0  0
   19.7279   20.2372   23.0142 H   0  0  0  0  0  0  0  0  0  0  0  0
   18.7802   20.7405   21.6265 H   0  0  0  0  0  0  0  0  0  0  0  0
   17.8948   19.0967   22.7297 C   0  0  0  0  0  0  0  0  0  0  0  0
   18.2182   18.2472   23.3459 H   0  0  0  0  0  0  0  0  0  0  0  0
   17.3113   18.6820   21.8959 H   0  0  0  0  0  0  0  0  0  0  0  0
   16.9918   20.0163   23.5791 C   0  0  0  0  0  0  0  0  0  0  0  0
   16.1260   19.4617   23.9634 H   0  0  0  0  0  0  0  0  0  0  0  0
   16.6150   20.8587   22.9845 H   0  0  0  0  0  0  0  0  0  0  0  0
   17.5402   20.4228   24.4388 H   0  0  0  0  0  0  0  0  0  0  0  0
  1  2  1  0  0  0  0
  1  3  1  0  0  0  0
  1  4  1  0  0  0  0
  1  5  1  0  0  0  0
  5  6  1  0  0  0  0
  5  7  1  0  0  0  0
  5  8  1  0  0  0  0
  8  9  1  0  0  0  0
  8 10  1  0  0  0  0
  8 11  1  0  0  0  0
 11 12  1  0  0  0  0
 11 13  1  0  0  0  0
 11 14  1  0  0  0  0
 14 15  1  0  0  0  0
 14 16  1  0  0  0  0
 14 17  1  0  0  0  0
 17 18  1  0  0  0  0
 17 19  1  0  0  0  0
 17 20  1  0  0  0  0
 20 21  1  0  0  0  0
 20 22  1  0  0  0  0
 20 23  1  0  0  0  0
M  END
> <VConfSearch Rank>
459

> <Conf_Id>
72

> <Delta U+W>
1.051

> <U+W>
-7.331

> <U>
48.590

> <W>
-55.922

> <W(PB)>
-58.012

> <W(SA)>
2.090

> <Valence>
2.601

> <Coulomb>
45.520

> <VdW>
0.469

> <VdW6>
-6.867

> <VdW12>
7.336

> <Bond>
0.205

> <Angle>
0.962

> <Pdih>
1.434

> <Idih>
0.000

> <Tether>
0.000

$$$$
VeraChem MOL file


 23 22  0  0  0  0  0  0  0  0999 V2000     
   19.1931   16.6383   24.6361 N   0  3  0  0  0  0  0  0  0  0  0  0
   18.4173   16.5091   25.2944 H   0  0  0  0  0  0  0  0  0  0  0  0
   20.0270   16.2364   25.0763 H   0  0  0  0  0  0  0  0  0  0  0  0
   18.9825   16.0671   23.8114 H   0  0  0  0  0  0  0  0  0  0  0  0
   19.3907   18.0973   24.2783 C   0  0  0  0  0  0  0  0  0  0  0  0
   19.5818   18.6491   25.2026 H   0  0  0  0  0  0  0  0  0  0  0  0
   18.4578   18.4660   23.8439 H   0  0  0  0  0  0  0  0  0  0  0  0
   20.5496   18.3254   23.2900 C   0  0  0  0  0  0  0  0  0  0  0  0
   21.4741   17.9180   23.7202 H   0  0  0  0  0  0  0  0  0  0  0  0
   20.3650   17.7615   22.3667 H   0  0  0  0  0  0  0  0  0  0  0  0
   20.7687   19.8230   22.9613 C   0  0  0  0  0  0  0  0  0  0  0  0
   21.6188   19.9188   22.2728 H   0  0  0  0  0  0  0  0  0  0  0  0
   21.0707   20.3470   23.8786 H   0  0  0  0  0  0  0  0  0  0  0  0
   19.5321   20.5464   22.3626 C   0  0  0  0  0  0  0  0  0  0  0  0
   18.7362   20.5940   23.1179 H   0  0  0  0  0  0  0  0  0  0  0  0
   19.8036   21.5905   22.1545 H   0  0  0  0  0  0  0  0  0  0  0  0
   18.9589   19.9120   21.0698 C   0  0  0  0  0  0  0  0  0  0  0  0
   18.0861   20.4979   20.7496 H   0  0  0  0  0  0  0  0  0  0  0  0
   18.5826   18.9014   21.2771 H   0  0  0  0  0  0  0  0  0  0  0  0
   19.9772   19.8617   19.9083 C   0  0  0  0  0  0  0  0  0  0  0  0
   20.3773   20.8605   19.6910 H   0  0  0  0  0  0  0  0  0  0  0  0
   19.5000   19.4849   18.9944 H   0  0  0  0  0  0  0  0  0  0  0  0
   20.8189   19.1972   20.1397 H   0  0  0  0  0  0  0  0  0  0  0  0
  1  2  1  0  0  0  0
  1  3  1  0  0  0  0
  1  4  1  0  0  0  0
  1  5  1  0  0  0  0
  5  6  1  0  0  0  0
  5  7  1  0  0  0  0
  5  8  1  0  0  0  0
  8  9  1  0  0  0  0
  8 10  1  0  0  0  0
  8 11  1  0  0  0  0
 11 12  1  0  0  0  0
 11 13  1  0  0  0  0
 11 14  1  0  0  0  0
 14 15  1  0  0  0  0
 14 16  1  0  0  0  0
 14 17  1  0  0  0  0
 17 18  1  0  0  0  0
 17 19  1  0  0  0  0
 17 20  1  0  0  0  0
 20 21  1  0  0  0  0
 20 22  1  0  0  0  0
 20 23  1  0  0  0  0
M  END
> <VConfSearch Rank>
460

> <Conf_Id>
26

> <Delta U+W>
1.076

> <U+W>
-7.306

> <U>
48.641

> <W>
-55.947

> <W(PB)>
-58.031

> <W(SA)>
2.084

> <Valence>
2.922

> <Coulomb>
45.269

> <VdW>
0.449

> <VdW6>
-7.045

> <VdW12>
7.494

> <Bond>
0.220

> <Angle>
1.205

> <Pdih>
1.497

> <Idih>
0.000

> <Tether>
0.000

$$$$
VeraChem MOL file


 23 22  0  0  0  0  0  0  0  0999 V2000     
   19.1496   17.1630   20.1601 N   0  3  0  0  0  0  0  0  0  0  0  0
   18.6805   16.2810   20.3900 H   0  0  0  0  0  0  0  0  0  0  0  0
   19.6774   17.0030   19.2954 H   0  0  0  0  0  0  0  0  0  0  0  0
   18.4173   17.8458   19.9404 H   0  0  0  0  0  0  0  0  0  0  0  0
   20.0452   17.6367   21.2866 C   0  0  0  0  0  0  0  0  0  0  0  0
   20.5332   18.5596   20.9624 H   0  0  0  0  0  0  0  0  0  0  0  0
   20.8159   16.8781   21.4477 H   0  0  0  0  0  0  0  0  0  0  0  0
   19.2821   17.8868   22.6008 C   0  0  0  0  0  0  0  0  0  0  0  0
   18.4996   18.6387   22.4371 H   0  0  0  0  0  0  0  0  0  0  0  0
   18.7656   16.9643   22.8974 H   0  0  0  0  0  0  0  0  0  0  0  0
   20.2120   18.3328   23.7563 C   0  0  0  0  0  0  0  0  0  0  0  0
   20.9106   17.5160   23.9848 H   0  0  0  0  0  0  0  0  0  0  0  0
   19.6128   18.4722   24.6660 H   0  0  0  0  0  0  0  0  0  0  0  0
   21.0321   19.6203   23.4728 C   0  0  0  0  0  0  0  0  0  0  0  0
   21.6395   19.8512   24.3587 H   0  0  0  0  0  0  0  0  0  0  0  0
   21.7509   19.4248   22.6657 H   0  0  0  0  0  0  0  0  0  0  0  0
   20.1918   20.8694   23.1039 C   0  0  0  0  0  0  0  0  0  0  0  0
   19.6548   20.7010   22.1608 H   0  0  0  0  0  0  0  0  0  0  0  0
   20.8761   21.7082   22.9144 H   0  0  0  0  0  0  0  0  0  0  0  0
   19.1918   21.2830   24.2072 C   0  0  0  0  0  0  0  0  0  0  0  0
   18.4188   20.5189   24.3566 H   0  0  0  0  0  0  0  0  0  0  0  0
   18.6845   22.2178   23.9359 H   0  0  0  0  0  0  0  0  0  0  0  0
   19.7049   21.4447   25.1640 H   0  0  0  0  0  0  0  0  0  0  0  0
  1  2  1  0  0  0  0
  1  3  1  0  0  0  0
  1  4  1  0  0  0  0
  1  5  1  0  0  0  0
  5  6  1  0  0  0  0
  5  7  1  0  0  0  0
  5  8  1  0  0  0  0
  8  9  1  0  0  0  0
  8 10  1  0  0  0  0
  8 11  1  0  0  0  0
 11 12  1  0  0  0  0
 11 13  1  0  0  0  0
 11 14  1  0  0  0  0
 14 15  1  0  0  0  0
 14 16  1  0  0  0  0
 14 17  1  0  0  0  0
 17 18  1  0  0  0  0
 17 19  1  0  0  0  0
 17 20  1  0  0  0  0
 20 21  1  0  0  0  0
 20 22  1  0  0  0  0
 20 23  1  0  0  0  0
M  END
> <VConfSearch Rank>
461

> <Conf_Id>
90

> <Delta U+W>
1.131

> <U+W>
-7.251

> <U>
48.641

> <W>
-55.892

> <W(PB)>
-57.962

> <W(SA)>
2.070

> <Valence>
2.922

> <Coulomb>
45.269

> <VdW>
0.450

> <VdW6>
-7.045

> <VdW12>
7.495

> <Bond>
0.220

> <Angle>
1.205

> <Pdih>
1.497

> <Idih>
0.000

> <Tether>
0.000

$$$$
VeraChem MOL file


 23 22  0  0  0  0  0  0  0  0999 V2000     
   17.7188   17.5965   21.6792 N   0  3  0  0  0  0  0  0  0  0  0  0
   17.1187   16.8372   22.0186 H   0  0  0  0  0  0  0  0  0  0  0  0
   18.6859   17.2624   21.7310 H   0  0  0  0  0  0  0  0  0  0  0  0
   17.4970   17.7325   20.6878 H   0  0  0  0  0  0  0  0  0  0  0  0
   17.5235   18.8693   22.4794 C   0  0  0  0  0  0  0  0  0  0  0  0
   17.7454   18.6486   23.5267 H   0  0  0  0  0  0  0  0  0  0  0  0
   16.4689   19.1489   22.4082 H   0  0  0  0  0  0  0  0  0  0  0  0
   18.3982   20.0446   21.9974 C   0  0  0  0  0  0  0  0  0  0  0  0
   18.1335   20.2882   20.9599 H   0  0  0  0  0  0  0  0  0  0  0  0
   18.1518   20.9340   22.5925 H   0  0  0  0  0  0  0  0  0  0  0  0
   19.9212   19.7748   22.0881 C   0  0  0  0  0  0  0  0  0  0  0  0
   20.4561   20.6573   21.7109 H   0  0  0  0  0  0  0  0  0  0  0  0
   20.1868   18.9470   21.4185 H   0  0  0  0  0  0  0  0  0  0  0  0
   20.3985   19.4698   23.5305 C   0  0  0  0  0  0  0  0  0  0  0  0
   20.0492   20.2681   24.1998 H   0  0  0  0  0  0  0  0  0  0  0  0
   19.9405   18.5397   23.8926 H   0  0  0  0  0  0  0  0  0  0  0  0
   21.9371   19.3601   23.6573 C   0  0  0  0  0  0  0  0  0  0  0  0
   22.1966   19.2508   24.7196 H   0  0  0  0  0  0  0  0  0  0  0  0
   22.4059   20.2956   23.3215 H   0  0  0  0  0  0  0  0  0  0  0  0
   22.5338   18.1688   22.8737 C   0  0  0  0  0  0  0  0  0  0  0  0
   22.0625   17.2236   23.1725 H   0  0  0  0  0  0  0  0  0  0  0  0
   23.6107   18.0825   23.0679 H   0  0  0  0  0  0  0  0  0  0  0  0
   22.4034   18.2920   21.7914 H   0  0  0  0  0  0  0  0  0  0  0  0
  1  2  1  0  0  0  0
  1  3  1  0  0  0  0
  1  4  1  0  0  0  0
  1  5  1  0  0  0  0
  5  6  1  0  0  0  0
  5  7  1  0  0  0  0
  5  8  1  0  0  0  0
  8  9  1  0  0  0  0
  8 10  1  0  0  0  0
  8 11  1  0  0  0  0
 11 12  1  0  0  0  0
 11 13  1  0  0  0  0
 11 14  1  0  0  0  0
 14 15  1  0  0  0  0
 14 16  1  0  0  0  0
 14 17  1  0  0  0  0
 17 18  1  0  0  0  0
 17 19  1  0  0  0  0
 17 20  1  0  0  0  0
 20 21  1  0  0  0  0
 20 22  1  0  0  0  0
 20 23  1  0  0  0  0
M  END
> <VConfSearch Rank>
462

> <Conf_Id>
85

> <Delta U+W>
1.193

> <U+W>
-7.189

> <U>
48.775

> <W>
-55.965

> <W(PB)>
-58.038

> <W(SA)>
2.073

> <Valence>
2.602

> <Coulomb>
45.581

> <VdW>
0.592

> <VdW6>
-6.616

> <VdW12>
7.208

> <Bond>
0.196

> <Angle>
0.832

> <Pdih>
1.574

> <Idih>
0.000

> <Tether>
0.000

$$$$
VeraChem MOL file


 23 22  0  0  0  0  0  0  0  0999 V2000     
   21.6496   18.2013   22.3079 N   0  3  0  0  0  0  0  0  0  0  0  0
   20.8429   17.9589   22.8920 H   0  0  0  0  0  0  0  0  0  0  0  0
   22.4761   18.2147   22.9154 H   0  0  0  0  0  0  0  0  0  0  0  0
   21.7835   17.4365   21.6384 H   0  0  0  0  0  0  0  0  0  0  0  0
   21.4443   19.5304   21.6073 C   0  0  0  0  0  0  0  0  0  0  0  0
   22.3393   19.7168   21.0075 H   0  0  0  0  0  0  0  0  0  0  0  0
   21.3724   20.3173   22.3628 H   0  0  0  0  0  0  0  0  0  0  0  0
   20.2058   19.5706   20.6890 C   0  0  0  0  0  0  0  0  0  0  0  0
   20.3607   20.3724   19.9548 H   0  0  0  0  0  0  0  0  0  0  0  0
   20.1447   18.6412   20.1074 H   0  0  0  0  0  0  0  0  0  0  0  0
   18.8567   19.8410   21.4080 C   0  0  0  0  0  0  0  0  0  0  0  0
   18.0782   19.8983   20.6345 H   0  0  0  0  0  0  0  0  0  0  0  0
   18.8752   20.8335   21.8794 H   0  0  0  0  0  0  0  0  0  0  0  0
   18.4287   18.7671   22.4408 C   0  0  0  0  0  0  0  0  0  0  0  0
   17.3362   18.6563   22.3966 H   0  0  0  0  0  0  0  0  0  0  0  0
   18.8363   17.7870   22.1597 H   0  0  0  0  0  0  0  0  0  0  0  0
   18.8104   19.1343   23.8957 C   0  0  0  0  0  0  0  0  0  0  0  0
   18.2526   20.0309   24.2009 H   0  0  0  0  0  0  0  0  0  0  0  0
   19.8717   19.3991   23.9712 H   0  0  0  0  0  0  0  0  0  0  0  0
   18.4965   17.9841   24.8756 C   0  0  0  0  0  0  0  0  0  0  0  0
   17.4277   17.7339   24.8596 H   0  0  0  0  0  0  0  0  0  0  0  0
   18.7594   18.2679   25.9030 H   0  0  0  0  0  0  0  0  0  0  0  0
   19.0621   17.0784   24.6215 H   0  0  0  0  0  0  0  0  0  0  0  0
  1  2  1  0  0  0  0
  1  3  1  0  0  0  0
  1  4  1  0  0  0  0
  1  5  1  0  0  0  0
  5  6  1  0  0  0  0
  5  7  1  0  0  0  0
  5  8  1  0  0  0  0
  8  9  1  0  0  0  0
  8 10  1  0  0  0  0
  8 11  1  0  0  0  0
 11 12  1  0  0  0  0
 11 13  1  0  0  0  0
 11 14  1  0  0  0  0
 14 15  1  0  0  0  0
 14 16  1  0  0  0  0
 14 17  1  0  0  0  0
 17 18  1  0  0  0  0
 17 19  1  0  0  0  0
 17 20  1  0  0  0  0
 20 21  1  0  0  0  0
 20 22  1  0  0  0  0
 20 23  1  0  0  0  0
M  END
> <VConfSearch Rank>
463

> <Conf_Id>
82

> <Delta U+W>
5.994

> <U+W>
-2.388

> <U>
52.836

> <W>
-55.224

> <W(PB)>
-57.261

> <W(SA)>
2.037

> <Valence>
5.785

> <Coulomb>
46.744

> <VdW>
0.307

> <VdW6>
-7.672

> <VdW12>
7.979

> <Bond>
0.217

> <Angle>
1.470

> <Pdih>
4.098

> <Idih>
0.000

> <Tether>
0.000

$$$$
VeraChem MOL file


 23 22  0  0  0  0  0  0  0  0999 V2000     
   18.1497   18.4107   21.5476 N   0  3  0  0  0  0  0  0  0  0  0  0
   18.2626   17.7762   20.7503 H   0  0  0  0  0  0  0  0  0  0  0  0
   17.1640   18.3659   21.8279 H   0  0  0  0  0  0  0  0  0  0  0  0
   18.7064   18.0325   22.3208 H   0  0  0  0  0  0  0  0  0  0  0  0
   18.5734   19.8254   21.2029 C   0  0  0  0  0  0  0  0  0  0  0  0
   18.3724   20.4705   22.0624 H   0  0  0  0  0  0  0  0  0  0  0  0
   17.9397   20.1557   20.3754 H   0  0  0  0  0  0  0  0  0  0  0  0
   20.0528   19.9532   20.7862 C   0  0  0  0  0  0  0  0  0  0  0  0
   20.3195   19.1318   20.1079 H   0  0  0  0  0  0  0  0  0  0  0  0
   20.1547   20.8731   20.1953 H   0  0  0  0  0  0  0  0  0  0  0  0
   21.0671   20.0288   21.9590 C   0  0  0  0  0  0  0  0  0  0  0  0
   20.8780   20.9283   22.5611 H   0  0  0  0  0  0  0  0  0  0  0  0
   22.0647   20.1732   21.5214 H   0  0  0  0  0  0  0  0  0  0  0  0
   21.1203   18.7768   22.8716 C   0  0  0  0  0  0  0  0  0  0  0  0
   20.8437   17.8800   22.3016 H   0  0  0  0  0  0  0  0  0  0  0  0
   22.1614   18.6178   23.1855 H   0  0  0  0  0  0  0  0  0  0  0  0
   20.2554   18.9159   24.1483 C   0  0  0  0  0  0  0  0  0  0  0  0
   19.2313   19.2199   23.9009 H   0  0  0  0  0  0  0  0  0  0  0  0
   20.6654   19.7184   24.7776 H   0  0  0  0  0  0  0  0  0  0  0  0
   20.2203   17.6036   24.9596 C   0  0  0  0  0  0  0  0  0  0  0  0
   19.7852   16.7840   24.3733 H   0  0  0  0  0  0  0  0  0  0  0  0
   19.6156   17.7256   25.8678 H   0  0  0  0  0  0  0  0  0  0  0  0
   21.2307   17.3036   25.2669 H   0  0  0  0  0  0  0  0  0  0  0  0
  1  2  1  0  0  0  0
  1  3  1  0  0  0  0
  1  4  1  0  0  0  0
  1  5  1  0  0  0  0
  5  6  1  0  0  0  0
  5  7  1  0  0  0  0
  5  8  1  0  0  0  0
  8  9  1  0  0  0  0
  8 10  1  0  0  0  0
  8 11  1  0  0  0  0
 11 12  1  0  0  0  0
 11 13  1  0  0  0  0
 11 14  1  0  0  0  0
 14 15  1  0  0  0  0
 14 16  1  0  0  0  0
 14 17  1  0  0  0  0
 17 18  1  0  0  0  0
 17 19  1  0  0  0  0
 17 20  1  0  0  0  0
 20 21  1  0  0  0  0
 20 22  1  0  0  0  0
 20 23  1  0  0  0  0
M  END
> <VConfSearch Rank>
464

> <Conf_Id>
5

> <Delta U+W>
6.087

> <U+W>
-2.295

> <U>
52.836

> <W>
-55.131

> <W(PB)>
-57.202

> <W(SA)>
2.071

> <Valence>
5.785

> <Coulomb>
46.744

> <VdW>
0.307

> <VdW6>
-7.672

> <VdW12>
7.980

> <Bond>
0.217

> <Angle>
1.470

> <Pdih>
4.098

> <Idih>
0.000

> <Tether>
0.000

$$$$
VeraChem MOL file


 23 22  0  0  0  0  0  0  0  0999 V2000     
   20.0332   18.6330   26.4163 N   0  3  0  0  0  0  0  0  0  0  0  0
   19.8919   17.6180   26.4413 H   0  0  0  0  0  0  0  0  0  0  0  0
   19.6155   19.0131   27.2725 H   0  0  0  0  0  0  0  0  0  0  0  0
   21.0429   18.7986   26.4787 H   0  0  0  0  0  0  0  0  0  0  0  0
   19.4335   19.2570   25.1726 C   0  0  0  0  0  0  0  0  0  0  0  0
   19.5938   20.3373   25.2261 H   0  0  0  0  0  0  0  0  0  0  0  0
   18.3566   19.0683   25.1860 H   0  0  0  0  0  0  0  0  0  0  0  0
   20.0395   18.7074   23.8690 C   0  0  0  0  0  0  0  0  0  0  0  0
   21.1233   18.8847   23.8672 H   0  0  0  0  0  0  0  0  0  0  0  0
   19.8906   17.6202   23.8273 H   0  0  0  0  0  0  0  0  0  0  0  0
   19.4022   19.3680   22.6266 C   0  0  0  0  0  0  0  0  0  0  0  0
   19.5486   20.4561   22.6747 H   0  0  0  0  0  0  0  0  0  0  0  0
   18.3172   19.1929   22.6348 H   0  0  0  0  0  0  0  0  0  0  0  0
   20.0037   18.8232   21.3111 C   0  0  0  0  0  0  0  0  0  0  0  0
   21.0885   18.9983   21.3027 H   0  0  0  0  0  0  0  0  0  0  0  0
   19.8573   17.7352   21.2628 H   0  0  0  0  0  0  0  0  0  0  0  0
   19.3660   19.4840   20.0688 C   0  0  0  0  0  0  0  0  0  0  0  0
   19.5119   20.5725   20.1112 H   0  0  0  0  0  0  0  0  0  0  0  0
   18.2809   19.3094   20.0713 H   0  0  0  0  0  0  0  0  0  0  0  0
   19.9691   18.9375   18.7573 C   0  0  0  0  0  0  0  0  0  0  0  0
   19.5041   19.4182   17.8868 H   0  0  0  0  0  0  0  0  0  0  0  0
   19.8086   17.8550   18.6699 H   0  0  0  0  0  0  0  0  0  0  0  0
   21.0493   19.1278   18.7100 H   0  0  0  0  0  0  0  0  0  0  0  0
  1  2  1  0  0  0  0
  1  3  1  0  0  0  0
  1  4  1  0  0  0  0
  1  5  1  0  0  0  0
  5  6  1  0  0  0  0
  5  7  1  0  0  0  0
  5  8  1  0  0  0  0
  8  9  1  0  0  0  0
  8 10  1  0  0  0  0
  8 11  1  0  0  0  0
 11 12  1  0  0  0  0
 11 13  1  0  0  0  0
 11 14  1  0  0  0  0
 14 15  1  0  0  0  0
 14 16  1  0  0  0  0
 14 17  1  0  0  0  0
 17 18  1  0  0  0  0
 17 19  1  0  0  0  0
 17 20  1  0  0  0  0
 20 21  1  0  0  0  0
 20 22  1  0  0  0  0
 20 23  1  0  0  0  0
M  END
> <VConfSearch Rank>
465

> <Conf_Id>
40

> <Delta U+W>
0.000

> <U+W>
-8.382

> <U>
46.604

> <W>
-54.986

> <W(PB)>
-57.162

> <W(SA)>
2.176

> <Valence>
1.727

> <Coulomb>
44.434

> <VdW>
0.443

> <VdW6>
-4.623

> <VdW12>
5.066

> <Bond>
0.112

> <Angle>
0.386

> <Pdih>
1.228

> <Idih>
0.000

> <Tether>
0.000

$$$$
VeraChem MOL file


 23 22  0  0  0  0  0  0  0  0999 V2000     
   20.1803   22.2585   21.1554 N   0  3  0  0  0  0  0  0  0  0  0  0
   20.2911   22.9668   21.8881 H   0  0  0  0  0  0  0  0  0  0  0  0
   19.2286   22.3527   20.7864 H   0  0  0  0  0  0  0  0  0  0  0  0
   20.8211   22.5127   20.3960 H   0  0  0  0  0  0  0  0  0  0  0  0
   20.4495   20.8608   21.6750 C   0  0  0  0  0  0  0  0  0  0  0  0
   21.4849   20.8242   22.0243 H   0  0  0  0  0  0  0  0  0  0  0  0
   20.3439   20.1664   20.8377 H   0  0  0  0  0  0  0  0  0  0  0  0
   19.5023   20.4493   22.8181 C   0  0  0  0  0  0  0  0  0  0  0  0
   19.5846   21.1823   23.6316 H   0  0  0  0  0  0  0  0  0  0  0  0
   18.4622   20.4847   22.4674 H   0  0  0  0  0  0  0  0  0  0  0  0
   19.8144   19.0416   23.3790 C   0  0  0  0  0  0  0  0  0  0  0  0
   19.1767   18.8726   24.2564 H   0  0  0  0  0  0  0  0  0  0  0  0
   20.8525   19.0121   23.7379 H   0  0  0  0  0  0  0  0  0  0  0  0
   19.5856   17.9102   22.3445 C   0  0  0  0  0  0  0  0  0  0  0  0
   18.5419   17.9271   22.0016 H   0  0  0  0  0  0  0  0  0  0  0  0
   20.2053   18.0932   21.4568 H   0  0  0  0  0  0  0  0  0  0  0  0
   19.9273   16.5012   22.8871 C   0  0  0  0  0  0  0  0  0  0  0  0
   20.9737   16.4753   23.2220 H   0  0  0  0  0  0  0  0  0  0  0  0
   19.8511   15.7787   22.0624 H   0  0  0  0  0  0  0  0  0  0  0  0
   19.0015   16.0414   24.0364 C   0  0  0  0  0  0  0  0  0  0  0  0
   19.1337   16.6588   24.9334 H   0  0  0  0  0  0  0  0  0  0  0  0
   19.2234   15.0034   24.3160 H   0  0  0  0  0  0  0  0  0  0  0  0
   17.9464   16.0898   23.7372 H   0  0  0  0  0  0  0  0  0  0  0  0
  1  2  1  0  0  0  0
  1  3  1  0  0  0  0
  1  4  1  0  0  0  0
  1  5  1  0  0  0  0
  5  6  1  0  0  0  0
  5  7  1  0  0  0  0
  5  8  1  0  0  0  0
  8  9  1  0  0  0  0
  8 10  1  0  0  0  0
  8 11  1  0  0  0  0
 11 12  1  0  0  0  0
 11 13  1  0  0  0  0
 11 14  1  0  0  0  0
 14 15  1  0  0  0  0
 14 16  1  0  0  0  0
 14 17  1  0  0  0  0
 17 18  1  0  0  0  0
 17 19  1  0  0  0  0
 17 20  1  0  0  0  0
 20 21  1  0  0  0  0
 20 22  1  0  0  0  0
 20 23  1  0  0  0  0
M  END
> <VConfSearch Rank>
466

> <Conf_Id>
65

> <Delta U+W>
1.004

> <U+W>
-7.378

> <U>
48.047

> <W>
-55.425

> <W(PB)>
-57.542

> <W(SA)>
2.116

> <Valence>
2.583

> <Coulomb>
44.791

> <VdW>
0.673

> <VdW6>
-5.788

> <VdW12>
6.462

> <Bond>
0.177

> <Angle>
0.787

> <Pdih>
1.619

> <Idih>
0.000

> <Tether>
0.000

$$$$
VeraChem MOL file


 23 22  0  0  0  0  0  0  0  0999 V2000     
   21.8981   19.4130   19.7681 N   0  3  0  0  0  0  0  0  0  0  0  0
   21.6346   20.2498   19.2378 H   0  0  0  0  0  0  0  0  0  0  0  0
   22.1460   18.6917   19.0823 H   0  0  0  0  0  0  0  0  0  0  0  0
   22.7542   19.6402   20.2841 H   0  0  0  0  0  0  0  0  0  0  0  0
   20.7867   18.9549   20.6904 C   0  0  0  0  0  0  0  0  0  0  0  0
   21.1245   18.0469   21.1963 H   0  0  0  0  0  0  0  0  0  0  0  0
   19.9191   18.7034   20.0744 H   0  0  0  0  0  0  0  0  0  0  0  0
   20.3912   20.0178   21.7329 C   0  0  0  0  0  0  0  0  0  0  0  0
   21.2620   20.2700   22.3527 H   0  0  0  0  0  0  0  0  0  0  0  0
   20.0998   20.9391   21.2110 H   0  0  0  0  0  0  0  0  0  0  0  0
   19.2219   19.5644   22.6388 C   0  0  0  0  0  0  0  0  0  0  0  0
   18.3491   19.3223   22.0167 H   0  0  0  0  0  0  0  0  0  0  0  0
   18.9282   20.4128   23.2705 H   0  0  0  0  0  0  0  0  0  0  0  0
   19.5807   18.3502   23.5329 C   0  0  0  0  0  0  0  0  0  0  0  0
   19.8979   17.5099   22.9014 H   0  0  0  0  0  0  0  0  0  0  0  0
   20.4405   18.6001   24.1697 H   0  0  0  0  0  0  0  0  0  0  0  0
   18.4057   17.8690   24.4186 C   0  0  0  0  0  0  0  0  0  0  0  0
   18.7055   16.9421   24.9274 H   0  0  0  0  0  0  0  0  0  0  0  0
   17.5459   17.6074   23.7860 H   0  0  0  0  0  0  0  0  0  0  0  0
   17.9728   18.9019   25.4840 C   0  0  0  0  0  0  0  0  0  0  0  0
   17.5455   19.8016   25.0244 H   0  0  0  0  0  0  0  0  0  0  0  0
   18.8230   19.2048   26.1090 H   0  0  0  0  0  0  0  0  0  0  0  0
   17.2070   18.4744   26.1441 H   0  0  0  0  0  0  0  0  0  0  0  0
  1  2  1  0  0  0  0
  1  3  1  0  0  0  0
  1  4  1  0  0  0  0
  1  5  1  0  0  0  0
  5  6  1  0  0  0  0
  5  7  1  0  0  0  0
  5  8  1  0  0  0  0
  8  9  1  0  0  0  0
  8 10  1  0  0  0  0
  8 11  1  0  0  0  0
 11 12  1  0  0  0  0
 11 13  1  0  0  0  0
 11 14  1  0  0  0  0
 14 15  1  0  0  0  0
 14 16  1  0  0  0  0
 14 17  1  0  0  0  0
 17 18  1  0  0  0  0
 17 19  1  0  0  0  0
 17 20  1  0  0  0  0
 20 21  1  0  0  0  0
 20 22  1  0  0  0  0
 20 23  1  0  0  0  0
M  END
> <VConfSearch Rank>
467

> <Conf_Id>
92

> <Delta U+W>
0.973

> <U+W>
-7.409

> <U>
48.047

> <W>
-55.456

> <W(PB)>
-57.595

> <W(SA)>
2.138

> <Valence>
2.583

> <Coulomb>
44.791

> <VdW>
0.674

> <VdW6>
-5.789

> <VdW12>
6.462

> <Bond>
0.177

> <Angle>
0.787

> <Pdih>
1.619

> <Idih>
0.000

> <Tether>
0.000

$$$$
VeraChem MOL file


 23 22  0  0  0  0  0  0  0  0999 V2000     
   20.7824   21.8924   20.9049 N   0  3  0  0  0  0  0  0  0  0  0  0
   20.1299   22.6634   20.7266 H   0  0  0  0  0  0  0  0  0  0  0  0
   21.3196   21.7518   20.0433 H   0  0  0  0  0  0  0  0  0  0  0  0
   21.4402   22.2184   21.6204 H   0  0  0  0  0  0  0  0  0  0  0  0
   20.0602   20.6312   21.3333 C   0  0  0  0  0  0  0  0  0  0  0  0
   19.3585   20.3582   20.5405 H   0  0  0  0  0  0  0  0  0  0  0  0
   19.4877   20.8627   22.2351 H   0  0  0  0  0  0  0  0  0  0  0  0
   21.0142   19.4535   21.6088 C   0  0  0  0  0  0  0  0  0  0  0  0
   21.6145   19.2603   20.7097 H   0  0  0  0  0  0  0  0  0  0  0  0
   21.7195   19.7281   22.4045 H   0  0  0  0  0  0  0  0  0  0  0  0
   20.2666   18.1574   22.0012 C   0  0  0  0  0  0  0  0  0  0  0  0
   20.9980   17.3423   22.0906 H   0  0  0  0  0  0  0  0  0  0  0  0
   19.5803   17.8711   21.1920 H   0  0  0  0  0  0  0  0  0  0  0  0
   19.4830   18.2857   23.3297 C   0  0  0  0  0  0  0  0  0  0  0  0
   20.1659   18.6042   24.1295 H   0  0  0  0  0  0  0  0  0  0  0  0
   18.7143   19.0647   23.2386 H   0  0  0  0  0  0  0  0  0  0  0  0
   18.8093   16.9541   23.7293 C   0  0  0  0  0  0  0  0  0  0  0  0
   19.5709   16.1684   23.8317 H   0  0  0  0  0  0  0  0  0  0  0  0
   18.1253   16.6305   22.9322 H   0  0  0  0  0  0  0  0  0  0  0  0
   18.0270   17.0837   25.0537 C   0  0  0  0  0  0  0  0  0  0  0  0
   18.6915   17.3739   25.8779 H   0  0  0  0  0  0  0  0  0  0  0  0
   17.5564   16.1286   25.3209 H   0  0  0  0  0  0  0  0  0  0  0  0
   17.2341   17.8385   24.9717 H   0  0  0  0  0  0  0  0  0  0  0  0
  1  2  1  0  0  0  0
  1  3  1  0  0  0  0
  1  4  1  0  0  0  0
  1  5  1  0  0  0  0
  5  6  1  0  0  0  0
  5  7  1  0  0  0  0
  5  8  1  0  0  0  0
  8  9  1  0  0  0  0
  8 10  1  0  0  0  0
  8 11  1  0  0  0  0
 11 12  1  0  0  0  0
 11 13  1  0  0  0  0
 11 14  1  0  0  0  0
 14 15  1  0  0  0  0
 14 16  1  0  0  0  0
 14 17  1  0  0  0  0
 17 18  1  0  0  0  0
 17 19  1  0  0  0  0
 17 20  1  0  0  0  0
 20 21  1  0  0  0  0
 20 22  1  0  0  0  0
 20 23  1  0  0  0  0
M  END
> <VConfSearch Rank>
468

> <Conf_Id>
42

> <Delta U+W>
0.365

> <U+W>
-8.017

> <U>
47.375

> <W>
-55.392

> <W(PB)>
-57.543

> <W(SA)>
2.152

> <Valence>
2.032

> <Coulomb>
44.843

> <VdW>
0.499

> <VdW6>
-5.218

> <VdW12>
5.717

> <Bond>
0.135

> <Angle>
0.514

> <Pdih>
1.383

> <Idih>
0.000

> <Tether>
0.000

$$$$
VeraChem MOL file


 23 22  0  0  0  0  0  0  0  0999 V2000     
   18.5050   21.9065   22.6360 N   0  3  0  0  0  0  0  0  0  0  0  0
   18.9895   22.1829   21.7760 H   0  0  0  0  0  0  0  0  0  0  0  0
   18.1823   22.7691   23.0875 H   0  0  0  0  0  0  0  0  0  0  0  0
   17.6690   21.3838   22.3580 H   0  0  0  0  0  0  0  0  0  0  0  0
   19.4002   21.0935   23.5510 C   0  0  0  0  0  0  0  0  0  0  0  0
   18.8341   20.8529   24.4549 H   0  0  0  0  0  0  0  0  0  0  0  0
   20.2435   21.7282   23.8366 H   0  0  0  0  0  0  0  0  0  0  0  0
   19.9327   19.7965   22.9113 C   0  0  0  0  0  0  0  0  0  0  0  0
   20.4773   20.0384   21.9890 H   0  0  0  0  0  0  0  0  0  0  0  0
   20.6581   19.3541   23.6050 H   0  0  0  0  0  0  0  0  0  0  0  0
   18.8115   18.7706   22.6159 C   0  0  0  0  0  0  0  0  0  0  0  0
   18.0322   19.2465   22.0063 H   0  0  0  0  0  0  0  0  0  0  0  0
   18.3269   18.4799   23.5583 H   0  0  0  0  0  0  0  0  0  0  0  0
   19.2895   17.4982   21.8693 C   0  0  0  0  0  0  0  0  0  0  0  0
   18.4046   16.8748   21.6798 H   0  0  0  0  0  0  0  0  0  0  0  0
   19.6790   17.7663   20.8775 H   0  0  0  0  0  0  0  0  0  0  0  0
   20.3269   16.6405   22.6391 C   0  0  0  0  0  0  0  0  0  0  0  0
   20.1305   15.5800   22.4274 H   0  0  0  0  0  0  0  0  0  0  0  0
   20.1938   16.7610   23.7232 H   0  0  0  0  0  0  0  0  0  0  0  0
   21.7903   16.9423   22.2395 C   0  0  0  0  0  0  0  0  0  0  0  0
   21.9514   16.7514   21.1706 H   0  0  0  0  0  0  0  0  0  0  0  0
   22.4816   16.2995   22.7998 H   0  0  0  0  0  0  0  0  0  0  0  0
   22.0674   17.9828   22.4411 H   0  0  0  0  0  0  0  0  0  0  0  0
  1  2  1  0  0  0  0
  1  3  1  0  0  0  0
  1  4  1  0  0  0  0
  1  5  1  0  0  0  0
  5  6  1  0  0  0  0
  5  7  1  0  0  0  0
  5  8  1  0  0  0  0
  8  9  1  0  0  0  0
  8 10  1  0  0  0  0
  8 11  1  0  0  0  0
 11 12  1  0  0  0  0
 11 13  1  0  0  0  0
 11 14  1  0  0  0  0
 14 15  1  0  0  0  0
 14 16  1  0  0  0  0
 14 17  1  0  0  0  0
 17 18  1  0  0  0  0
 17 19  1  0  0  0  0
 17 20  1  0  0  0  0
 20 21  1  0  0  0  0
 20 22  1  0  0  0  0
 20 23  1  0  0  0  0
M  END
> <VConfSearch Rank>
469

> <Conf_Id>
3

> <Delta U+W>
3.283

> <U+W>
-5.099

> <U>
50.701

> <W>
-55.800

> <W(PB)>
-57.867

> <W(SA)>
2.067

> <Valence>
4.880

> <Coulomb>
45.095

> <VdW>
0.726

> <VdW6>
-6.620

> <VdW12>
7.346

> <Bond>
0.222

> <Angle>
1.260

> <Pdih>
3.398

> <Idih>
0.000

> <Tether>
0.000

$$$$
VeraChem MOL file


 23 22  0  0  0  0  0  0  0  0999 V2000     
   22.2340   17.7896   23.5277 N   0  3  0  0  0  0  0  0  0  0  0  0
   22.6100   18.2099   24.3836 H   0  0  0  0  0  0  0  0  0  0  0  0
   22.8398   16.9961   23.2928 H   0  0  0  0  0  0  0  0  0  0  0  0
   21.3120   17.4066   23.7577 H   0  0  0  0  0  0  0  0  0  0  0  0
   22.1559   18.7938   22.3946 C   0  0  0  0  0  0  0  0  0  0  0  0
   21.7784   18.2768   21.5087 H   0  0  0  0  0  0  0  0  0  0  0  0
   23.1729   19.1331   22.1803 H   0  0  0  0  0  0  0  0  0  0  0  0
   21.2655   20.0138   22.7075 C   0  0  0  0  0  0  0  0  0  0  0  0
   21.6858   20.5523   23.5673 H   0  0  0  0  0  0  0  0  0  0  0  0
   21.3110   20.7099   21.8594 H   0  0  0  0  0  0  0  0  0  0  0  0
   19.7849   19.6614   22.9995 C   0  0  0  0  0  0  0  0  0  0  0  0
   19.2570   20.5912   23.2478 H   0  0  0  0  0  0  0  0  0  0  0  0
   19.7208   19.0258   23.8926 H   0  0  0  0  0  0  0  0  0  0  0  0
   19.0771   18.9659   21.8088 C   0  0  0  0  0  0  0  0  0  0  0  0
   19.1180   19.6152   20.9234 H   0  0  0  0  0  0  0  0  0  0  0  0
   19.6185   18.0483   21.5440 H   0  0  0  0  0  0  0  0  0  0  0  0
   17.6053   18.5870   22.1031 C   0  0  0  0  0  0  0  0  0  0  0  0
   17.5591   17.9284   22.9817 H   0  0  0  0  0  0  0  0  0  0  0  0
   17.2179   17.9997   21.2588 H   0  0  0  0  0  0  0  0  0  0  0  0
   16.6850   19.8097   22.3205 C   0  0  0  0  0  0  0  0  0  0  0  0
   16.7388   20.5009   21.4694 H   0  0  0  0  0  0  0  0  0  0  0  0
   16.9538   20.3613   23.2297 H   0  0  0  0  0  0  0  0  0  0  0  0
   15.6404   19.4896   22.4268 H   0  0  0  0  0  0  0  0  0  0  0  0
  1  2  1  0  0  0  0
  1  3  1  0  0  0  0
  1  4  1  0  0  0  0
  1  5  1  0  0  0  0
  5  6  1  0  0  0  0
  5  7  1  0  0  0  0
  5  8  1  0  0  0  0
  8  9  1  0  0  0  0
  8 10  1  0  0  0  0
  8 11  1  0  0  0  0
 11 12  1  0  0  0  0
 11 13  1  0  0  0  0
 11 14  1  0  0  0  0
 14 15  1  0  0  0  0
 14 16  1  0  0  0  0
 14 17  1  0  0  0  0
 17 18  1  0  0  0  0
 17 19  1  0  0  0  0
 17 20  1  0  0  0  0
 20 21  1  0  0  0  0
 20 22  1  0  0  0  0
 20 23  1  0  0  0  0
M  END
> <VConfSearch Rank>
470

> <Conf_Id>
83

> <Delta U+W>
1.229

> <U+W>
-7.154

> <U>
48.727

> <W>
-55.880

> <W(PB)>
-57.960

> <W(SA)>
2.080

> <Valence>
2.671

> <Coulomb>
45.371

> <VdW>
0.684

> <VdW6>
-6.511

> <VdW12>
7.195

> <Bond>
0.203

> <Angle>
0.915

> <Pdih>
1.554

> <Idih>
0.000

> <Tether>
0.000

$$$$
VeraChem MOL file


 23 22  0  0  0  0  0  0  0  0999 V2000     
   18.2209   20.4927   24.5981 N   0  3  0  0  0  0  0  0  0  0  0  0
   17.4008   20.9821   24.2261 H   0  0  0  0  0  0  0  0  0  0  0  0
   19.0469   20.9011   24.1503 H   0  0  0  0  0  0  0  0  0  0  0  0
   18.2769   20.7189   25.5969 H   0  0  0  0  0  0  0  0  0  0  0  0
   18.1390   18.9973   24.3628 C   0  0  0  0  0  0  0  0  0  0  0  0
   17.2590   18.6248   24.8942 H   0  0  0  0  0  0  0  0  0  0  0  0
   19.0235   18.5349   24.8081 H   0  0  0  0  0  0  0  0  0  0  0  0
   18.0390   18.6084   22.8735 C   0  0  0  0  0  0  0  0  0  0  0  0
   17.9291   17.5182   22.8007 H   0  0  0  0  0  0  0  0  0  0  0  0
   17.1196   19.0368   22.4529 H   0  0  0  0  0  0  0  0  0  0  0  0
   19.2501   19.0575   22.0172 C   0  0  0  0  0  0  0  0  0  0  0  0
   19.3250   20.1530   22.0208 H   0  0  0  0  0  0  0  0  0  0  0  0
   19.0562   18.7681   20.9763 H   0  0  0  0  0  0  0  0  0  0  0  0
   20.5916   18.4384   22.4857 C   0  0  0  0  0  0  0  0  0  0  0  0
   20.7746   18.7072   23.5343 H   0  0  0  0  0  0  0  0  0  0  0  0
   20.5241   17.3422   22.4550 H   0  0  0  0  0  0  0  0  0  0  0  0
   21.8096   18.9039   21.6513 C   0  0  0  0  0  0  0  0  0  0  0  0
   22.7252   18.5149   22.1184 H   0  0  0  0  0  0  0  0  0  0  0  0
   21.8885   19.9994   21.6871 H   0  0  0  0  0  0  0  0  0  0  0  0
   21.7653   18.4333   20.1795 C   0  0  0  0  0  0  0  0  0  0  0  0
   21.6532   17.3431   20.1166 H   0  0  0  0  0  0  0  0  0  0  0  0
   22.6942   18.7052   19.6617 H   0  0  0  0  0  0  0  0  0  0  0  0
   20.9358   18.8971   19.6317 H   0  0  0  0  0  0  0  0  0  0  0  0
  1  2  1  0  0  0  0
  1  3  1  0  0  0  0
  1  4  1  0  0  0  0
  1  5  1  0  0  0  0
  5  6  1  0  0  0  0
  5  7  1  0  0  0  0
  5  8  1  0  0  0  0
  8  9  1  0  0  0  0
  8 10  1  0  0  0  0
  8 11  1  0  0  0  0
 11 12  1  0  0  0  0
 11 13  1  0  0  0  0
 11 14  1  0  0  0  0
 14 15  1  0  0  0  0
 14 16  1  0  0  0  0
 14 17  1  0  0  0  0
 17 18  1  0  0  0  0
 17 19  1  0  0  0  0
 17 20  1  0  0  0  0
 20 21  1  0  0  0  0
 20 22  1  0  0  0  0
 20 23  1  0  0  0  0
M  END
> <VConfSearch Rank>
471

> <Conf_Id>
50

> <Delta U+W>
1.252

> <U+W>
-7.130

> <U>
48.727

> <W>
-55.857

> <W(PB)>
-57.937

> <W(SA)>
2.080

> <Valence>
2.671

> <Coulomb>
45.371

> <VdW>
0.684

> <VdW6>
-6.511

> <VdW12>
7.196

> <Bond>
0.203

> <Angle>
0.915

> <Pdih>
1.554

> <Idih>
0.000

> <Tether>
0.000

$$$$
VeraChem MOL file


 23 22  0  0  0  0  0  0  0  0999 V2000     
   18.9767   15.9777   22.5282 N   0  3  0  0  0  0  0  0  0  0  0  0
   19.8227   15.9635   23.1058 H   0  0  0  0  0  0  0  0  0  0  0  0
   18.9723   15.1096   21.9821 H   0  0  0  0  0  0  0  0  0  0  0  0
   18.1743   15.9344   23.1645 H   0  0  0  0  0  0  0  0  0  0  0  0
   18.9242   17.2034   21.6370 C   0  0  0  0  0  0  0  0  0  0  0  0
   18.0213   17.1293   21.0247 H   0  0  0  0  0  0  0  0  0  0  0  0
   19.7905   17.1759   20.9706 H   0  0  0  0  0  0  0  0  0  0  0  0
   18.9080   18.5357   22.4112 C   0  0  0  0  0  0  0  0  0  0  0  0
   18.7589   19.3484   21.6915 H   0  0  0  0  0  0  0  0  0  0  0  0
   18.0394   18.5564   23.0826 H   0  0  0  0  0  0  0  0  0  0  0  0
   20.2071   18.7700   23.2237 C   0  0  0  0  0  0  0  0  0  0  0  0
   21.0883   18.6569   22.5772 H   0  0  0  0  0  0  0  0  0  0  0  0
   20.2869   17.9850   23.9876 H   0  0  0  0  0  0  0  0  0  0  0  0
   20.2458   20.1459   23.9388 C   0  0  0  0  0  0  0  0  0  0  0  0
   19.2275   20.4767   24.1856 H   0  0  0  0  0  0  0  0  0  0  0  0
   20.7561   20.0162   24.9033 H   0  0  0  0  0  0  0  0  0  0  0  0
   20.9945   21.2592   23.1622 C   0  0  0  0  0  0  0  0  0  0  0  0
   22.0413   20.9614   23.0093 H   0  0  0  0  0  0  0  0  0  0  0  0
   21.0240   22.1617   23.7887 H   0  0  0  0  0  0  0  0  0  0  0  0
   20.3616   21.6224   21.8011 C   0  0  0  0  0  0  0  0  0  0  0  0
   19.2977   21.8688   21.9119 H   0  0  0  0  0  0  0  0  0  0  0  0
   20.4575   20.7978   21.0841 H   0  0  0  0  0  0  0  0  0  0  0  0
   20.8646   22.4952   21.3652 H   0  0  0  0  0  0  0  0  0  0  0  0
  1  2  1  0  0  0  0
  1  3  1  0  0  0  0
  1  4  1  0  0  0  0
  1  5  1  0  0  0  0
  5  6  1  0  0  0  0
  5  7  1  0  0  0  0
  5  8  1  0  0  0  0
  8  9  1  0  0  0  0
  8 10  1  0  0  0  0
  8 11  1  0  0  0  0
 11 12  1  0  0  0  0
 11 13  1  0  0  0  0
 11 14  1  0  0  0  0
 14 15  1  0  0  0  0
 14 16  1  0  0  0  0
 14 17  1  0  0  0  0
 17 18  1  0  0  0  0
 17 19  1  0  0  0  0
 17 20  1  0  0  0  0
 20 21  1  0  0  0  0
 20 22  1  0  0  0  0
 20 23  1  0  0  0  0
M  END
> <VConfSearch Rank>
472

> <Conf_Id>
55

> <Delta U+W>
3.232

> <U+W>
-5.150

> <U>
50.625

> <W>
-55.776

> <W(PB)>
-57.839

> <W(SA)>
2.064

> <Valence>
4.837

> <Coulomb>
45.097

> <VdW>
0.692

> <VdW6>
-6.655

> <VdW12>
7.347

> <Bond>
0.223

> <Angle>
1.167

> <Pdih>
3.447

> <Idih>
0.000

> <Tether>
0.000

$$$$
VeraChem MOL file


 23 22  0  0  0  0  0  0  0  0999 V2000     
   22.4121   19.9210   21.0390 N   0  3  0  0  0  0  0  0  0  0  0  0
   22.9615   20.7407   21.3169 H   0  0  0  0  0  0  0  0  0  0  0  0
   22.4440   19.8746   20.0149 H   0  0  0  0  0  0  0  0  0  0  0  0
   22.9058   19.0942   21.3904 H   0  0  0  0  0  0  0  0  0  0  0  0
   20.9896   19.9926   21.5556 C   0  0  0  0  0  0  0  0  0  0  0  0
   20.4584   19.1109   21.1926 H   0  0  0  0  0  0  0  0  0  0  0  0
   20.5181   20.8777   21.1200 H   0  0  0  0  0  0  0  0  0  0  0  0
   20.9102   20.0704   23.0930 C   0  0  0  0  0  0  0  0  0  0  0  0
   21.4210   19.2104   23.5461 H   0  0  0  0  0  0  0  0  0  0  0  0
   21.4604   20.9638   23.4173 H   0  0  0  0  0  0  0  0  0  0  0  0
   19.4572   20.1672   23.6229 C   0  0  0  0  0  0  0  0  0  0  0  0
   18.8525   20.7926   22.9514 H   0  0  0  0  0  0  0  0  0  0  0  0
   19.4791   20.6991   24.5842 H   0  0  0  0  0  0  0  0  0  0  0  0
   18.7547   18.8048   23.8591 C   0  0  0  0  0  0  0  0  0  0  0  0
   19.3130   18.2307   24.6115 H   0  0  0  0  0  0  0  0  0  0  0  0
   17.7668   19.0016   24.2982 H   0  0  0  0  0  0  0  0  0  0  0  0
   18.5745   17.9439   22.5875 C   0  0  0  0  0  0  0  0  0  0  0  0
   19.5532   17.6060   22.2229 H   0  0  0  0  0  0  0  0  0  0  0  0
   18.1190   18.5466   21.7893 H   0  0  0  0  0  0  0  0  0  0  0  0
   17.6946   16.7050   22.8588 C   0  0  0  0  0  0  0  0  0  0  0  0
   16.6897   16.9983   23.1892 H   0  0  0  0  0  0  0  0  0  0  0  0
   18.1381   16.0688   23.6358 H   0  0  0  0  0  0  0  0  0  0  0  0
   17.5862   16.1000   21.9493 H   0  0  0  0  0  0  0  0  0  0  0  0
  1  2  1  0  0  0  0
  1  3  1  0  0  0  0
  1  4  1  0  0  0  0
  1  5  1  0  0  0  0
  5  6  1  0  0  0  0
  5  7  1  0  0  0  0
  5  8  1  0  0  0  0
  8  9  1  0  0  0  0
  8 10  1  0  0  0  0
  8 11  1  0  0  0  0
 11 12  1  0  0  0  0
 11 13  1  0  0  0  0
 11 14  1  0  0  0  0
 14 15  1  0  0  0  0
 14 16  1  0  0  0  0
 14 17  1  0  0  0  0
 17 18  1  0  0  0  0
 17 19  1  0  0  0  0
 17 20  1  0  0  0  0
 20 21  1  0  0  0  0
 20 22  1  0  0  0  0
 20 23  1  0  0  0  0
M  END
> <VConfSearch Rank>
473

> <Conf_Id>
93

> <Delta U+W>
2.589

> <U+W>
-5.793

> <U>
50.122

> <W>
-55.915

> <W(PB)>
-58.031

> <W(SA)>
2.115

> <Valence>
4.132

> <Coulomb>
45.536

> <VdW>
0.454

> <VdW6>
-6.262

> <VdW12>
6.715

> <Bond>
0.182

> <Angle>
1.157

> <Pdih>
2.794

> <Idih>
0.000

> <Tether>
0.000

$$$$
VeraChem MOL file


 23 22  0  0  0  0  0  0  0  0999 V2000     
   22.6791   19.9293   22.3098 N   0  3  0  0  0  0  0  0  0  0  0  0
   22.8795   19.5631   23.2460 H   0  0  0  0  0  0  0  0  0  0  0  0
   22.9086   20.9289   22.3250 H   0  0  0  0  0  0  0  0  0  0  0  0
   23.3381   19.4826   21.6641 H   0  0  0  0  0  0  0  0  0  0  0  0
   21.2393   19.6881   21.9043 C   0  0  0  0  0  0  0  0  0  0  0  0
   21.0910   20.1276   20.9142 H   0  0  0  0  0  0  0  0  0  0  0  0
   20.6002   20.2200   22.6115 H   0  0  0  0  0  0  0  0  0  0  0  0
   20.8667   18.1930   21.8656 C   0  0  0  0  0  0  0  0  0  0  0  0
   21.5344   17.6944   21.1503 H   0  0  0  0  0  0  0  0  0  0  0  0
   21.0547   17.7268   22.8419 H   0  0  0  0  0  0  0  0  0  0  0  0
   19.4012   17.9424   21.4286 C   0  0  0  0  0  0  0  0  0  0  0  0
   19.3508   16.9523   20.9546 H   0  0  0  0  0  0  0  0  0  0  0  0
   19.1133   18.6601   20.6478 H   0  0  0  0  0  0  0  0  0  0  0  0
   18.3625   17.9621   22.5801 C   0  0  0  0  0  0  0  0  0  0  0  0
   17.3810   17.7034   22.1591 H   0  0  0  0  0  0  0  0  0  0  0  0
   18.6019   17.1695   23.3025 H   0  0  0  0  0  0  0  0  0  0  0  0
   18.2483   19.3140   23.3216 C   0  0  0  0  0  0  0  0  0  0  0  0
   18.1227   20.1293   22.5955 H   0  0  0  0  0  0  0  0  0  0  0  0
   19.1722   19.5136   23.8796 H   0  0  0  0  0  0  0  0  0  0  0  0
   17.0632   19.3225   24.3106 C   0  0  0  0  0  0  0  0  0  0  0  0
   17.0035   20.2846   24.8358 H   0  0  0  0  0  0  0  0  0  0  0  0
   17.1737   18.5329   25.0654 H   0  0  0  0  0  0  0  0  0  0  0  0
   16.1107   19.1650   23.7880 H   0  0  0  0  0  0  0  0  0  0  0  0
  1  2  1  0  0  0  0
  1  3  1  0  0  0  0
  1  4  1  0  0  0  0
  1  5  1  0  0  0  0
  5  6  1  0  0  0  0
  5  7  1  0  0  0  0
  5  8  1  0  0  0  0
  8  9  1  0  0  0  0
  8 10  1  0  0  0  0
  8 11  1  0  0  0  0
 11 12  1  0  0  0  0
 11 13  1  0  0  0  0
 11 14  1  0  0  0  0
 14 15  1  0  0  0  0
 14 16  1  0  0  0  0
 14 17  1  0  0  0  0
 17 18  1  0  0  0  0
 17 19  1  0  0  0  0
 17 20  1  0  0  0  0
 20 21  1  0  0  0  0
 20 22  1  0  0  0  0
 20 23  1  0  0  0  0
M  END
> <VConfSearch Rank>
474

> <Conf_Id>
70

> <Delta U+W>
2.599

> <U+W>
-5.783

> <U>
50.122

> <W>
-55.906

> <W(PB)>
-58.010

> <W(SA)>
2.105

> <Valence>
4.132

> <Coulomb>
45.536

> <VdW>
0.454

> <VdW6>
-6.262

> <VdW12>
6.715

> <Bond>
0.182

> <Angle>
1.157

> <Pdih>
2.794

> <Idih>
0.000

> <Tether>
0.000

$$$$
VeraChem MOL file


 23 22  0  0  0  0  0  0  0  0999 V2000     
   21.9200   17.7059   24.0025 N   0  3  0  0  0  0  0  0  0  0  0  0
   22.4507   18.1349   24.7672 H   0  0  0  0  0  0  0  0  0  0  0  0
   22.4227   16.8544   23.7302 H   0  0  0  0  0  0  0  0  0  0  0  0
   21.0171   17.4128   24.3876 H   0  0  0  0  0  0  0  0  0  0  0  0
   21.7478   18.6569   22.8345 C   0  0  0  0  0  0  0  0  0  0  0  0
   21.2064   18.1300   22.0444 H   0  0  0  0  0  0  0  0  0  0  0  0
   22.7436   18.9044   22.4568 H   0  0  0  0  0  0  0  0  0  0  0  0
   21.0010   19.9555   23.1999 C   0  0  0  0  0  0  0  0  0  0  0  0
   21.5712   20.4932   23.9690 H   0  0  0  0  0  0  0  0  0  0  0  0
   20.9871   20.6150   22.3228 H   0  0  0  0  0  0  0  0  0  0  0  0
   19.5519   19.7284   23.7055 C   0  0  0  0  0  0  0  0  0  0  0  0
   19.0883   20.7050   23.9015 H   0  0  0  0  0  0  0  0  0  0  0  0
   19.5834   19.2153   24.6761 H   0  0  0  0  0  0  0  0  0  0  0  0
   18.6432   18.9213   22.7424 C   0  0  0  0  0  0  0  0  0  0  0  0
   19.0421   17.9070   22.6088 H   0  0  0  0  0  0  0  0  0  0  0  0
   17.6592   18.7992   23.2158 H   0  0  0  0  0  0  0  0  0  0  0  0
   18.4558   19.5930   21.3615 C   0  0  0  0  0  0  0  0  0  0  0  0
   19.4194   19.6608   20.8393 H   0  0  0  0  0  0  0  0  0  0  0  0
   18.0925   20.6215   21.4955 H   0  0  0  0  0  0  0  0  0  0  0  0
   17.4616   18.8099   20.4779 C   0  0  0  0  0  0  0  0  0  0  0  0
   17.3425   19.2983   19.5021 H   0  0  0  0  0  0  0  0  0  0  0  0
   16.4719   18.7550   20.9498 H   0  0  0  0  0  0  0  0  0  0  0  0
   17.8134   17.7851   20.3011 H   0  0  0  0  0  0  0  0  0  0  0  0
  1  2  1  0  0  0  0
  1  3  1  0  0  0  0
  1  4  1  0  0  0  0
  1  5  1  0  0  0  0
  5  6  1  0  0  0  0
  5  7  1  0  0  0  0
  5  8  1  0  0  0  0
  8  9  1  0  0  0  0
  8 10  1  0  0  0  0
  8 11  1  0  0  0  0
 11 12  1  0  0  0  0
 11 13  1  0  0  0  0
 11 14  1  0  0  0  0
 14 15  1  0  0  0  0
 14 16  1  0  0  0  0
 14 17  1  0  0  0  0
 17 18  1  0  0  0  0
 17 19  1  0  0  0  0
 17 20  1  0  0  0  0
 20 21  1  0  0  0  0
 20 22  1  0  0  0  0
 20 23  1  0  0  0  0
M  END
> <VConfSearch Rank>
475

> <Conf_Id>
72

> <Delta U+W>
1.051

> <U+W>
-7.331

> <U>
48.590

> <W>
-55.922

> <W(PB)>
-58.012

> <W(SA)>
2.090

> <Valence>
2.601

> <Coulomb>
45.520

> <VdW>
0.469

> <VdW6>
-6.867

> <VdW12>
7.336

> <Bond>
0.205

> <Angle>
0.962

> <Pdih>
1.434

> <Idih>
0.000

> <Tether>
0.000

$$$$
VeraChem MOL file


 23 22  0  0  0  0  0  0  0  0999 V2000     
   18.6192   19.3458   19.7157 N   0  3  0  0  0  0  0  0  0  0  0  0
   17.7174   19.7226   19.4046 H   0  0  0  0  0  0  0  0  0  0  0  0
   18.8828   18.6149   19.0471 H   0  0  0  0  0  0  0  0  0  0  0  0
   19.3059   20.1011   19.6232 H   0  0  0  0  0  0  0  0  0  0  0  0
   18.5487   18.8157   21.1333 C   0  0  0  0  0  0  0  0  0  0  0  0
   17.7811   18.0378   21.1656 H   0  0  0  0  0  0  0  0  0  0  0  0
   18.2347   19.6363   21.7836 H   0  0  0  0  0  0  0  0  0  0  0  0
   19.8885   18.2422   21.6312 C   0  0  0  0  0  0  0  0  0  0  0  0
   20.2130   17.4443   20.9501 H   0  0  0  0  0  0  0  0  0  0  0  0
   20.6628   19.0186   21.5870 H   0  0  0  0  0  0  0  0  0  0  0  0
   19.7961   17.6672   23.0664 C   0  0  0  0  0  0  0  0  0  0  0  0
   20.7734   17.2559   23.3520 H   0  0  0  0  0  0  0  0  0  0  0  0
   19.1054   16.8127   23.0624 H   0  0  0  0  0  0  0  0  0  0  0  0
   19.3241   18.6798   24.1447 C   0  0  0  0  0  0  0  0  0  0  0  0
   18.2818   18.9642   23.9468 H   0  0  0  0  0  0  0  0  0  0  0  0
   19.3110   18.1730   25.1195 H   0  0  0  0  0  0  0  0  0  0  0  0
   20.1811   19.9659   24.2617 C   0  0  0  0  0  0  0  0  0  0  0  0
   19.7465   20.6064   25.0418 H   0  0  0  0  0  0  0  0  0  0  0  0
   20.1247   20.5459   23.3309 H   0  0  0  0  0  0  0  0  0  0  0  0
   21.6598   19.6870   24.6142 C   0  0  0  0  0  0  0  0  0  0  0  0
   21.7409   19.0966   25.5360 H   0  0  0  0  0  0  0  0  0  0  0  0
   22.2024   20.6285   24.7695 H   0  0  0  0  0  0  0  0  0  0  0  0
   22.1689   19.1409   23.8103 H   0  0  0  0  0  0  0  0  0  0  0  0
  1  2  1  0  0  0  0
  1  3  1  0  0  0  0
  1  4  1  0  0  0  0
  1  5  1  0  0  0  0
  5  6  1  0  0  0  0
  5  7  1  0  0  0  0
  5  8  1  0  0  0  0
  8  9  1  0  0  0  0
  8 10  1  0  0  0  0
  8 11  1  0  0  0  0
 11 12  1  0  0  0  0
 11 13  1  0  0  0  0
 11 14  1  0  0  0  0
 14 15  1  0  0  0  0
 14 16  1  0  0  0  0
 14 17  1  0  0  0  0
 17 18  1  0  0  0  0
 17 19  1  0  0  0  0
 17 20  1  0  0  0  0
 20 21  1  0  0  0  0
 20 22  1  0  0  0  0
 20 23  1  0  0  0  0
M  END
> <VConfSearch Rank>
476

> <Conf_Id>
26

> <Delta U+W>
1.076

> <U+W>
-7.306

> <U>
48.641

> <W>
-55.947

> <W(PB)>
-58.031

> <W(SA)>
2.084

> <Valence>
2.922

> <Coulomb>
45.269

> <VdW>
0.449

> <VdW6>
-7.045

> <VdW12>
7.494

> <Bond>
0.220

> <Angle>
1.205

> <Pdih>
1.497

> <Idih>
0.000

> <Tether>
0.000

$$$$
VeraChem MOL file


 23 22  0  0  0  0  0  0  0  0999 V2000     
   20.1047   21.7343   21.1276 N   0  3  0  0  0  0  0  0  0  0  0  0
   19.2295   22.2518   20.9963 H   0  0  0  0  0  0  0  0  0  0  0  0
   20.7285   22.0048   20.3597 H   0  0  0  0  0  0  0  0  0  0  0  0
   20.5314   22.0784   21.9937 H   0  0  0  0  0  0  0  0  0  0  0  0
   19.8754   20.2371   21.1657 C   0  0  0  0  0  0  0  0  0  0  0  0
   20.8482   19.7511   21.2768 H   0  0  0  0  0  0  0  0  0  0  0  0
   19.4476   19.9361   20.2057 H   0  0  0  0  0  0  0  0  0  0  0  0
   18.9419   19.7979   22.3092 C   0  0  0  0  0  0  0  0  0  0  0  0
   19.3638   20.1111   23.2726 H   0  0  0  0  0  0  0  0  0  0  0  0
   17.9811   20.3201   22.2093 H   0  0  0  0  0  0  0  0  0  0  0  0
   18.6825   18.2709   22.3158 C   0  0  0  0  0  0  0  0  0  0  0  0
   18.1505   17.9975   21.3940 H   0  0  0  0  0  0  0  0  0  0  0  0
   17.9954   18.0270   23.1370 H   0  0  0  0  0  0  0  0  0  0  0  0
   19.9587   17.3938   22.4290 C   0  0  0  0  0  0  0  0  0  0  0  0
   19.6577   16.3371   22.4407 H   0  0  0  0  0  0  0  0  0  0  0  0
   20.5674   17.5166   21.5232 H   0  0  0  0  0  0  0  0  0  0  0  0
   20.8440   17.6748   23.6698 C   0  0  0  0  0  0  0  0  0  0  0  0
   21.2446   18.6965   23.6271 H   0  0  0  0  0  0  0  0  0  0  0  0
   21.7169   17.0081   23.6353 H   0  0  0  0  0  0  0  0  0  0  0  0
   20.1062   17.4592   25.0106 C   0  0  0  0  0  0  0  0  0  0  0  0
   19.2889   18.1794   25.1405 H   0  0  0  0  0  0  0  0  0  0  0  0
   20.7966   17.5868   25.8544 H   0  0  0  0  0  0  0  0  0  0  0  0
   19.6855   16.4471   25.0709 H   0  0  0  0  0  0  0  0  0  0  0  0
  1  2  1  0  0  0  0
  1  3  1  0  0  0  0
  1  4  1  0  0  0  0
  1  5  1  0  0  0  0
  5  6  1  0  0  0  0
  5  7  1  0  0  0  0
  5  8  1  0  0  0  0
  8  9  1  0  0  0  0
  8 10  1  0  0  0  0
  8 11  1  0  0  0  0
 11 12  1  0  0  0  0
 11 13  1  0  0  0  0
 11 14  1  0  0  0  0
 14 15  1  0  0  0  0
 14 16  1  0  0  0  0
 14 17  1  0  0  0  0
 17 18  1  0  0  0  0
 17 19  1  0  0  0  0
 17 20  1  0  0  0  0
 20 21  1  0  0  0  0
 20 22  1  0  0  0  0
 20 23  1  0  0  0  0
M  END
> <VConfSearch Rank>
477

> <Conf_Id>
90

> <Delta U+W>
1.131

> <U+W>
-7.251

> <U>
48.641

> <W>
-55.892

> <W(PB)>
-57.962

> <W(SA)>
2.070

> <Valence>
2.922

> <Coulomb>
45.269

> <VdW>
0.450

> <VdW6>
-7.045

> <VdW12>
7.495

> <Bond>
0.220

> <Angle>
1.205

> <Pdih>
1.497

> <Idih>
0.000

> <Tether>
0.000

$$$$
VeraChem MOL file


 23 22  0  0  0  0  0  0  0  0999 V2000     
   22.2887   19.2159   21.7162 N   0  3  0  0  0  0  0  0  0  0  0  0
   23.2081   18.8309   21.9578 H   0  0  0  0  0  0  0  0  0  0  0  0
   21.8948   19.6157   22.5733 H   0  0  0  0  0  0  0  0  0  0  0  0
   22.4507   19.9913   21.0657 H   0  0  0  0  0  0  0  0  0  0  0  0
   21.3758   18.1625   21.1200 C   0  0  0  0  0  0  0  0  0  0  0  0
   21.2701   17.3543   21.8482 H   0  0  0  0  0  0  0  0  0  0  0  0
   21.8701   17.7569   20.2330 H   0  0  0  0  0  0  0  0  0  0  0  0
   19.9832   18.6984   20.7297 C   0  0  0  0  0  0  0  0  0  0  0  0
   20.0990   19.4765   19.9636 H   0  0  0  0  0  0  0  0  0  0  0  0
   19.4134   17.8870   20.2576 H   0  0  0  0  0  0  0  0  0  0  0  0
   19.1712   19.2678   21.9201 C   0  0  0  0  0  0  0  0  0  0  0  0
   18.2076   19.6361   21.5420 H   0  0  0  0  0  0  0  0  0  0  0  0
   19.6914   20.1409   22.3336 H   0  0  0  0  0  0  0  0  0  0  0  0
   18.9135   18.2219   23.0342 C   0  0  0  0  0  0  0  0  0  0  0  0
   18.4703   17.3222   22.5854 H   0  0  0  0  0  0  0  0  0  0  0  0
   19.8637   17.9068   23.4855 H   0  0  0  0  0  0  0  0  0  0  0  0
   17.9678   18.7324   24.1480 C   0  0  0  0  0  0  0  0  0  0  0  0
   17.7527   17.9027   24.8358 H   0  0  0  0  0  0  0  0  0  0  0  0
   17.0033   19.0270   23.7112 H   0  0  0  0  0  0  0  0  0  0  0  0
   18.5540   19.9114   24.9576 C   0  0  0  0  0  0  0  0  0  0  0  0
   19.5317   19.6510   25.3832 H   0  0  0  0  0  0  0  0  0  0  0  0
   17.8867   20.1760   25.7880 H   0  0  0  0  0  0  0  0  0  0  0  0
   18.6762   20.8067   24.3355 H   0  0  0  0  0  0  0  0  0  0  0  0
  1  2  1  0  0  0  0
  1  3  1  0  0  0  0
  1  4  1  0  0  0  0
  1  5  1  0  0  0  0
  5  6  1  0  0  0  0
  5  7  1  0  0  0  0
  5  8  1  0  0  0  0
  8  9  1  0  0  0  0
  8 10  1  0  0  0  0
  8 11  1  0  0  0  0
 11 12  1  0  0  0  0
 11 13  1  0  0  0  0
 11 14  1  0  0  0  0
 14 15  1  0  0  0  0
 14 16  1  0  0  0  0
 14 17  1  0  0  0  0
 17 18  1  0  0  0  0
 17 19  1  0  0  0  0
 17 20  1  0  0  0  0
 20 21  1  0  0  0  0
 20 22  1  0  0  0  0
 20 23  1  0  0  0  0
M  END
> <VConfSearch Rank>
478

> <Conf_Id>
85

> <Delta U+W>
1.193

> <U+W>
-7.189

> <U>
48.775

> <W>
-55.965

> <W(PB)>
-58.038

> <W(SA)>
2.073

> <Valence>
2.602

> <Coulomb>
45.581

> <VdW>
0.592

> <VdW6>
-6.616

> <VdW12>
7.208

> <Bond>
0.196

> <Angle>
0.832

> <Pdih>
1.574

> <Idih>
0.000

> <Tether>
0.000

$$$$
VeraChem MOL file


 23 22  0  0  0  0  0  0  0  0999 V2000     
   21.7109   18.7749   21.9819 N   0  3  0  0  0  0  0  0  0  0  0  0
   21.0084   18.1381   22.3710 H   0  0  0  0  0  0  0  0  0  0  0  0
   22.5758   18.6430   22.5175 H   0  0  0  0  0  0  0  0  0  0  0  0
   21.9040   18.4685   21.0228 H   0  0  0  0  0  0  0  0  0  0  0  0
   21.2356   20.2143   22.0258 C   0  0  0  0  0  0  0  0  0  0  0  0
   22.0325   20.8270   21.5956 H   0  0  0  0  0  0  0  0  0  0  0  0
   21.1077   20.5093   23.0707 H   0  0  0  0  0  0  0  0  0  0  0  0
   19.9293   20.4676   21.2460 C   0  0  0  0  0  0  0  0  0  0  0  0
   19.8889   21.5373   21.0013 H   0  0  0  0  0  0  0  0  0  0  0  0
   19.9647   19.9422   20.2823 H   0  0  0  0  0  0  0  0  0  0  0  0
   18.6242   20.1056   22.0047 C   0  0  0  0  0  0  0  0  0  0  0  0
   17.7805   20.3871   21.3593 H   0  0  0  0  0  0  0  0  0  0  0  0
   18.5272   20.7304   22.9034 H   0  0  0  0  0  0  0  0  0  0  0  0
   18.4661   18.6086   22.3754 C   0  0  0  0  0  0  0  0  0  0  0  0
   17.4054   18.3363   22.2822 H   0  0  0  0  0  0  0  0  0  0  0  0
   18.9971   17.9799   21.6485 H   0  0  0  0  0  0  0  0  0  0  0  0
   18.9132   18.2886   23.8227 C   0  0  0  0  0  0  0  0  0  0  0  0
   18.2498   18.8068   24.5295 H   0  0  0  0  0  0  0  0  0  0  0  0
   19.9215   18.6719   24.0189 H   0  0  0  0  0  0  0  0  0  0  0  0
   18.8746   16.7727   24.1099 C   0  0  0  0  0  0  0  0  0  0  0  0
   17.8618   16.3717   23.9726 H   0  0  0  0  0  0  0  0  0  0  0  0
   19.1800   16.5665   25.1440 H   0  0  0  0  0  0  0  0  0  0  0  0
   19.5516   16.2234   23.4431 H   0  0  0  0  0  0  0  0  0  0  0  0
  1  2  1  0  0  0  0
  1  3  1  0  0  0  0
  1  4  1  0  0  0  0
  1  5  1  0  0  0  0
  5  6  1  0  0  0  0
  5  7  1  0  0  0  0
  5  8  1  0  0  0  0
  8  9  1  0  0  0  0
  8 10  1  0  0  0  0
  8 11  1  0  0  0  0
 11 12  1  0  0  0  0
 11 13  1  0  0  0  0
 11 14  1  0  0  0  0
 14 15  1  0  0  0  0
 14 16  1  0  0  0  0
 14 17  1  0  0  0  0
 17 18  1  0  0  0  0
 17 19  1  0  0  0  0
 17 20  1  0  0  0  0
 20 21  1  0  0  0  0
 20 22  1  0  0  0  0
 20 23  1  0  0  0  0
M  END
> <VConfSearch Rank>
479

> <Conf_Id>
82

> <Delta U+W>
5.994

> <U+W>
-2.388

> <U>
52.836

> <W>
-55.224

> <W(PB)>
-57.261

> <W(SA)>
2.037

> <Valence>
5.785

> <Coulomb>
46.744

> <VdW>
0.307

> <VdW6>
-7.672

> <VdW12>
7.979

> <Bond>
0.217

> <Angle>
1.470

> <Pdih>
4.098

> <Idih>
0.000

> <Tether>
0.000

$$$$
VeraChem MOL file


 23 22  0  0  0  0  0  0  0  0999 V2000     
   21.6924   18.1805   22.0209 N   0  3  0  0  0  0  0  0  0  0  0  0
   21.6845   17.3406   21.4330 H   0  0  0  0  0  0  0  0  0  0  0  0
   22.6316   18.5867   21.9488 H   0  0  0  0  0  0  0  0  0  0  0  0
   21.0355   18.8498   21.6072 H   0  0  0  0  0  0  0  0  0  0  0  0
   21.3253   17.8628   23.4575 C   0  0  0  0  0  0  0  0  0  0  0  0
   21.4123   18.7764   24.0516 H   0  0  0  0  0  0  0  0  0  0  0  0
   22.0655   17.1472   23.8255 H   0  0  0  0  0  0  0  0  0  0  0  0
   19.9156   17.2602   23.6260 C   0  0  0  0  0  0  0  0  0  0  0  0
   19.7384   16.5071   22.8468 H   0  0  0  0  0  0  0  0  0  0  0  0
   19.8979   16.7139   24.5784 H   0  0  0  0  0  0  0  0  0  0  0  0
   18.7536   18.2896   23.6488 C   0  0  0  0  0  0  0  0  0  0  0  0
   18.8646   18.9613   24.5113 H   0  0  0  0  0  0  0  0  0  0  0  0
   17.8243   17.7316   23.8293 H   0  0  0  0  0  0  0  0  0  0  0  0
   18.5731   19.1147   22.3489 C   0  0  0  0  0  0  0  0  0  0  0  0
   18.9195   18.5369   21.4818 H   0  0  0  0  0  0  0  0  0  0  0  0
   17.4986   19.2774   22.1854 H   0  0  0  0  0  0  0  0  0  0  0  0
   19.2598   20.5012   22.4068 C   0  0  0  0  0  0  0  0  0  0  0  0
   20.3091   20.4103   22.7116 H   0  0  0  0  0  0  0  0  0  0  0  0
   18.7729   21.1145   23.1781 H   0  0  0  0  0  0  0  0  0  0  0  0
   19.1800   21.2345   21.0512 C   0  0  0  0  0  0  0  0  0  0  0  0
   19.6859   20.6661   20.2601 H   0  0  0  0  0  0  0  0  0  0  0  0
   19.6581   22.2206   21.1154 H   0  0  0  0  0  0  0  0  0  0  0  0
   18.1362   21.3867   20.7468 H   0  0  0  0  0  0  0  0  0  0  0  0
  1  2  1  0  0  0  0
  1  3  1  0  0  0  0
  1  4  1  0  0  0  0
  1  5  1  0  0  0  0
  5  6  1  0  0  0  0
  5  7  1  0  0  0  0
  5  8  1  0  0  0  0
  8  9  1  0  0  0  0
  8 10  1  0  0  0  0
  8 11  1  0  0  0  0
 11 12  1  0  0  0  0
 11 13  1  0  0  0  0
 11 14  1  0  0  0  0
 14 15  1  0  0  0  0
 14 16  1  0  0  0  0
 14 17  1  0  0  0  0
 17 18  1  0  0  0  0
 17 19  1  0  0  0  0
 17 20  1  0  0  0  0
 20 21  1  0  0  0  0
 20 22  1  0  0  0  0
 20 23  1  0  0  0  0
M  END
> <VConfSearch Rank>
480

> <Conf_Id>
5

> <Delta U+W>
6.087

> <U+W>
-2.295

> <U>
52.836

> <W>
-55.131

> <W(PB)>
-57.202

> <W(SA)>
2.071

> <Valence>
5.785

> <Coulomb>
46.744

> <VdW>
0.307

> <VdW6>
-7.672

> <VdW12>
7.980

> <Bond>
0.217

> <Angle>
1.470

> <Pdih>
4.098

> <Idih>
0.000

> <Tether>
0.000

$$$$
VeraChem MOL file


 23 22  0  0  0  0  0  0  0  0999 V2000     
   19.9337   20.9692   25.9023 N   0  3  0  0  0  0  0  0  0  0  0  0
   20.0817   20.1574   26.5105 H   0  0  0  0  0  0  0  0  0  0  0  0
   19.3832   21.6476   26.4396 H   0  0  0  0  0  0  0  0  0  0  0  0
   20.8520   21.3943   25.7381 H   0  0  0  0  0  0  0  0  0  0  0  0
   19.2472   20.5876   24.6065 C   0  0  0  0  0  0  0  0  0  0  0  0
   19.0952   21.5000   24.0237 H   0  0  0  0  0  0  0  0  0  0  0  0
   18.2672   20.1706   24.8540 H   0  0  0  0  0  0  0  0  0  0  0  0
   20.0485   19.5696   23.7758 C   0  0  0  0  0  0  0  0  0  0  0  0
   21.0378   19.9861   23.5435 H   0  0  0  0  0  0  0  0  0  0  0  0
   20.2128   18.6614   24.3709 H   0  0  0  0  0  0  0  0  0  0  0  0
   19.3156   19.2074   22.4651 C   0  0  0  0  0  0  0  0  0  0  0  0
   19.1485   20.1193   21.8750 H   0  0  0  0  0  0  0  0  0  0  0  0
   18.3244   18.7960   22.7016 H   0  0  0  0  0  0  0  0  0  0  0  0
   20.1119   18.1852   21.6224 C   0  0  0  0  0  0  0  0  0  0  0  0
   21.1031   18.5965   21.3858 H   0  0  0  0  0  0  0  0  0  0  0  0
   20.2791   17.2733   22.2123 H   0  0  0  0  0  0  0  0  0  0  0  0
   19.3786   17.8231   20.3118 C   0  0  0  0  0  0  0  0  0  0  0  0
   19.2111   18.7319   19.7168 H   0  0  0  0  0  0  0  0  0  0  0  0
   18.3873   17.4088   20.5433 H   0  0  0  0  0  0  0  0  0  0  0  0
   20.1767   16.8023   19.4730 C   0  0  0  0  0  0  0  0  0  0  0  0
   19.6405   16.5577   18.5469 H   0  0  0  0  0  0  0  0  0  0  0  0
   20.3308   15.8686   20.0296 H   0  0  0  0  0  0  0  0  0  0  0  0
   21.1611   17.2020   19.1967 H   0  0  0  0  0  0  0  0  0  0  0  0
  1  2  1  0  0  0  0
  1  3  1  0  0  0  0
  1  4  1  0  0  0  0
  1  5  1  0  0  0  0
  5  6  1  0  0  0  0
  5  7  1  0  0  0  0
  5  8  1  0  0  0  0
  8  9  1  0  0  0  0
  8 10  1  0  0  0  0
  8 11  1  0  0  0  0
 11 12  1  0  0  0  0
 11 13  1  0  0  0  0
 11 14  1  0  0  0  0
 14 15  1  0  0  0  0
 14 16  1  0  0  0  0
 14 17  1  0  0  0  0
 17 18  1  0  0  0  0
 17 19  1  0  0  0  0
 17 20  1  0  0  0  0
 20 21  1  0  0  0  0
 20 22  1  0  0  0  0
 20 23  1  0  0  0  0
M  END
> <VConfSearch Rank>
481

> <Conf_Id>
40

> <Delta U+W>
0.000

> <U+W>
-8.382

> <U>
46.604

> <W>
-54.986

> <W(PB)>
-57.162

> <W(SA)>
2.176

> <Valence>
1.727

> <Coulomb>
44.434

> <VdW>
0.443

> <VdW6>
-4.623

> <VdW12>
5.066

> <Bond>
0.112

> <Angle>
0.386

> <Pdih>
1.228

> <Idih>
0.000

> <Tether>
0.000

$$$$
VeraChem MOL file


 23 22  0  0  0  0  0  0  0  0999 V2000     
   20.3939   19.4784   26.0997 N   0  3  0  0  0  0  0  0  0  0  0  0
   19.6663   20.0665   26.5188 H   0  0  0  0  0  0  0  0  0  0  0  0
   21.2318   20.0605   26.0001 H   0  0  0  0  0  0  0  0  0  0  0  0
   20.6178   18.7483   26.7844 H   0  0  0  0  0  0  0  0  0  0  0  0
   19.9525   18.8912   24.7745 C   0  0  0  0  0  0  0  0  0  0  0  0
   19.0770   18.2628   24.9588 H   0  0  0  0  0  0  0  0  0  0  0  0
   20.7608   18.2554   24.4043 H   0  0  0  0  0  0  0  0  0  0  0  0
   19.6083   19.9640   23.7239 C   0  0  0  0  0  0  0  0  0  0  0  0
   18.8290   20.6234   24.1287 H   0  0  0  0  0  0  0  0  0  0  0  0
   20.4878   20.5947   23.5376 H   0  0  0  0  0  0  0  0  0  0  0  0
   19.1096   19.3597   22.3898 C   0  0  0  0  0  0  0  0  0  0  0  0
   18.7798   20.1825   21.7424 H   0  0  0  0  0  0  0  0  0  0  0  0
   18.2241   18.7370   22.5781 H   0  0  0  0  0  0  0  0  0  0  0  0
   20.1913   18.5243   21.6586 C   0  0  0  0  0  0  0  0  0  0  0  0
   21.0683   19.1532   21.4521 H   0  0  0  0  0  0  0  0  0  0  0  0
   20.5384   17.7164   22.3161 H   0  0  0  0  0  0  0  0  0  0  0  0
   19.6906   17.8884   20.3389 C   0  0  0  0  0  0  0  0  0  0  0  0
   18.8194   17.2497   20.5410 H   0  0  0  0  0  0  0  0  0  0  0  0
   20.4744   17.2239   19.9492 H   0  0  0  0  0  0  0  0  0  0  0  0
   19.3337   18.9263   19.2504 C   0  0  0  0  0  0  0  0  0  0  0  0
   18.4691   19.5356   19.5410 H   0  0  0  0  0  0  0  0  0  0  0  0
   19.0796   18.4227   18.3087 H   0  0  0  0  0  0  0  0  0  0  0  0
   20.1787   19.5988   19.0536 H   0  0  0  0  0  0  0  0  0  0  0  0
  1  2  1  0  0  0  0
  1  3  1  0  0  0  0
  1  4  1  0  0  0  0
  1  5  1  0  0  0  0
  5  6  1  0  0  0  0
  5  7  1  0  0  0  0
  5  8  1  0  0  0  0
  8  9  1  0  0  0  0
  8 10  1  0  0  0  0
  8 11  1  0  0  0  0
 11 12  1  0  0  0  0
 11 13  1  0  0  0  0
 11 14  1  0  0  0  0
 14 15  1  0  0  0  0
 14 16  1  0  0  0  0
 14 17  1  0  0  0  0
 17 18  1  0  0  0  0
 17 19  1  0  0  0  0
 17 20  1  0  0  0  0
 20 21  1  0  0  0  0
 20 22  1  0  0  0  0
 20 23  1  0  0  0  0
M  END
> <VConfSearch Rank>
482

> <Conf_Id>
65

> <Delta U+W>
1.004

> <U+W>
-7.378

> <U>
48.047

> <W>
-55.425

> <W(PB)>
-57.542

> <W(SA)>
2.116

> <Valence>
2.583

> <Coulomb>
44.791

> <VdW>
0.673

> <VdW6>
-5.788

> <VdW12>
6.462

> <Bond>
0.177

> <Angle>
0.787

> <Pdih>
1.619

> <Idih>
0.000

> <Tether>
0.000

$$$$
VeraChem MOL file


 23 22  0  0  0  0  0  0  0  0999 V2000     
   22.5255   18.5845   24.8420 N   0  3  0  0  0  0  0  0  0  0  0  0
   22.4611   17.6774   25.3151 H   0  0  0  0  0  0  0  0  0  0  0  0
   22.8670   19.2585   25.5356 H   0  0  0  0  0  0  0  0  0  0  0  0
   23.2535   18.4997   24.1254 H   0  0  0  0  0  0  0  0  0  0  0  0
   21.1968   19.0095   24.2507 C   0  0  0  0  0  0  0  0  0  0  0  0
   21.3332   19.9925   23.7930 H   0  0  0  0  0  0  0  0  0  0  0  0
   20.4789   19.1075   25.0695 H   0  0  0  0  0  0  0  0  0  0  0  0
   20.6567   18.0161   23.2044 C   0  0  0  0  0  0  0  0  0  0  0  0
   21.3768   17.9182   22.3811 H   0  0  0  0  0  0  0  0  0  0  0  0
   20.5701   17.0233   23.6657 H   0  0  0  0  0  0  0  0  0  0  0  0
   19.2760   18.4287   22.6413 C   0  0  0  0  0  0  0  0  0  0  0  0
   18.5553   18.5163   23.4661 H   0  0  0  0  0  0  0  0  0  0  0  0
   18.9129   17.6189   21.9953 H   0  0  0  0  0  0  0  0  0  0  0  0
   19.3178   19.7545   21.8394 C   0  0  0  0  0  0  0  0  0  0  0  0
   19.7043   20.5588   22.4791 H   0  0  0  0  0  0  0  0  0  0  0  0
   20.0232   19.6592   21.0024 H   0  0  0  0  0  0  0  0  0  0  0  0
   17.9341   20.1921   21.3004 C   0  0  0  0  0  0  0  0  0  0  0  0
   18.0314   21.1901   20.8506 H   0  0  0  0  0  0  0  0  0  0  0  0
   17.2269   20.2992   22.1347 H   0  0  0  0  0  0  0  0  0  0  0  0
   17.3501   19.2266   20.2439 C   0  0  0  0  0  0  0  0  0  0  0  0
   17.1154   18.2468   20.6777 H   0  0  0  0  0  0  0  0  0  0  0  0
   18.0531   19.0768   19.4142 H   0  0  0  0  0  0  0  0  0  0  0  0
   16.4198   19.6325   19.8258 H   0  0  0  0  0  0  0  0  0  0  0  0
  1  2  1  0  0  0  0
  1  3  1  0  0  0  0
  1  4  1  0  0  0  0
  1  5  1  0  0  0  0
  5  6  1  0  0  0  0
  5  7  1  0  0  0  0
  5  8  1  0  0  0  0
  8  9  1  0  0  0  0
  8 10  1  0  0  0  0
  8 11  1  0  0  0  0
 11 12  1  0  0  0  0
 11 13  1  0  0  0  0
 11 14  1  0  0  0  0
 14 15  1  0  0  0  0
 14 16  1  0  0  0  0
 14 17  1  0  0  0  0
 17 18  1  0  0  0  0
 17 19  1  0  0  0  0
 17 20  1  0  0  0  0
 20 21  1  0  0  0  0
 20 22  1  0  0  0  0
 20 23  1  0  0  0  0
M  END
> <VConfSearch Rank>
483

> <Conf_Id>
92

> <Delta U+W>
0.973

> <U+W>
-7.409

> <U>
48.047

> <W>
-55.456

> <W(PB)>
-57.595

> <W(SA)>
2.138

> <Valence>
2.583

> <Coulomb>
44.791

> <VdW>
0.674

> <VdW6>
-5.789

> <VdW12>
6.462

> <Bond>
0.177

> <Angle>
0.787

> <Pdih>
1.619

> <Idih>
0.000

> <Tether>
0.000

$$$$
VeraChem MOL file


 23 22  0  0  0  0  0  0  0  0999 V2000     
   22.5274   20.9087   23.5985 N   0  3  0  0  0  0  0  0  0  0  0  0
   22.4389   21.9157   23.7721 H   0  0  0  0  0  0  0  0  0  0  0  0
   23.3912   20.7738   23.0633 H   0  0  0  0  0  0  0  0  0  0  0  0
   22.6643   20.4602   24.5101 H   0  0  0  0  0  0  0  0  0  0  0  0
   21.3192   20.3544   22.8713 C   0  0  0  0  0  0  0  0  0  0  0  0
   21.2169   20.8945   21.9262 H   0  0  0  0  0  0  0  0  0  0  0  0
   20.4367   20.5600   23.4825 H   0  0  0  0  0  0  0  0  0  0  0  0
   21.4222   18.8424   22.5954 C   0  0  0  0  0  0  0  0  0  0  0  0
   22.3358   18.6444   22.0191 H   0  0  0  0  0  0  0  0  0  0  0  0
   21.5258   18.3001   23.5447 H   0  0  0  0  0  0  0  0  0  0  0  0
   20.2062   18.2931   21.8128 C   0  0  0  0  0  0  0  0  0  0  0  0
   20.3903   17.2369   21.5720 H   0  0  0  0  0  0  0  0  0  0  0  0
   20.1204   18.8199   20.8522 H   0  0  0  0  0  0  0  0  0  0  0  0
   18.8757   18.4121   22.5945 C   0  0  0  0  0  0  0  0  0  0  0  0
   18.9758   17.9126   23.5681 H   0  0  0  0  0  0  0  0  0  0  0  0
   18.6537   19.4678   22.7997 H   0  0  0  0  0  0  0  0  0  0  0  0
   17.6955   17.7888   21.8164 C   0  0  0  0  0  0  0  0  0  0  0  0
   17.9031   16.7289   21.6127 H   0  0  0  0  0  0  0  0  0  0  0  0
   17.5911   18.2844   20.8410 H   0  0  0  0  0  0  0  0  0  0  0  0
   16.3689   17.9092   22.5963 C   0  0  0  0  0  0  0  0  0  0  0  0
   16.4313   17.3936   23.5635 H   0  0  0  0  0  0  0  0  0  0  0  0
   15.5433   17.4609   22.0284 H   0  0  0  0  0  0  0  0  0  0  0  0
   16.1158   18.9607   22.7851 H   0  0  0  0  0  0  0  0  0  0  0  0
  1  2  1  0  0  0  0
  1  3  1  0  0  0  0
  1  4  1  0  0  0  0
  1  5  1  0  0  0  0
  5  6  1  0  0  0  0
  5  7  1  0  0  0  0
  5  8  1  0  0  0  0
  8  9  1  0  0  0  0
  8 10  1  0  0  0  0
  8 11  1  0  0  0  0
 11 12  1  0  0  0  0
 11 13  1  0  0  0  0
 11 14  1  0  0  0  0
 14 15  1  0  0  0  0
 14 16  1  0  0  0  0
 14 17  1  0  0  0  0
 17 18  1  0  0  0  0
 17 19  1  0  0  0  0
 17 20  1  0  0  0  0
 20 21  1  0  0  0  0
 20 22  1  0  0  0  0
 20 23  1  0  0  0  0
M  END
> <VConfSearch Rank>
484

> <Conf_Id>
42

> <Delta U+W>
0.365

> <U+W>
-8.017

> <U>
47.375

> <W>
-55.392

> <W(PB)>
-57.543

> <W(SA)>
2.152

> <Valence>
2.032

> <Coulomb>
44.843

> <VdW>
0.499

> <VdW6>
-5.218

> <VdW12>
5.717

> <Bond>
0.135

> <Angle>
0.514

> <Pdih>
1.383

> <Idih>
0.000

> <Tether>
0.000

$$$$
VeraChem MOL file


 23 22  0  0  0  0  0  0  0  0999 V2000     
   19.0896   19.9125   19.6553 N   0  3  0  0  0  0  0  0  0  0  0  0
   18.9312   18.9540   19.3285 H   0  0  0  0  0  0  0  0  0  0  0  0
   19.2155   20.4957   18.8210 H   0  0  0  0  0  0  0  0  0  0  0  0
   18.2262   20.2240   20.1101 H   0  0  0  0  0  0  0  0  0  0  0  0
   20.2819   20.0004   20.5882 C   0  0  0  0  0  0  0  0  0  0  0  0
   20.4098   21.0465   20.8793 H   0  0  0  0  0  0  0  0  0  0  0  0
   21.1663   19.6940   20.0229 H   0  0  0  0  0  0  0  0  0  0  0  0
   20.1537   19.1227   21.8485 C   0  0  0  0  0  0  0  0  0  0  0  0
   19.9977   18.0767   21.5535 H   0  0  0  0  0  0  0  0  0  0  0  0
   21.1095   19.1652   22.3849 H   0  0  0  0  0  0  0  0  0  0  0  0
   19.0150   19.5879   22.7885 C   0  0  0  0  0  0  0  0  0  0  0  0
   18.0754   19.6455   22.2235 H   0  0  0  0  0  0  0  0  0  0  0  0
   19.2249   20.6087   23.1368 H   0  0  0  0  0  0  0  0  0  0  0  0
   18.7790   18.6650   24.0123 C   0  0  0  0  0  0  0  0  0  0  0  0
   17.9258   19.0720   24.5727 H   0  0  0  0  0  0  0  0  0  0  0  0
   18.4629   17.6674   23.6776 H   0  0  0  0  0  0  0  0  0  0  0  0
   19.9819   18.5487   24.9839 C   0  0  0  0  0  0  0  0  0  0  0  0
   19.5968   18.4773   26.0108 H   0  0  0  0  0  0  0  0  0  0  0  0
   20.5888   19.4643   24.9526 H   0  0  0  0  0  0  0  0  0  0  0  0
   20.8661   17.3074   24.7200 C   0  0  0  0  0  0  0  0  0  0  0  0
   20.2836   16.3827   24.8239 H   0  0  0  0  0  0  0  0  0  0  0  0
   21.6913   17.2633   25.4424 H   0  0  0  0  0  0  0  0  0  0  0  0
   21.3041   17.3181   23.7159 H   0  0  0  0  0  0  0  0  0  0  0  0
  1  2  1  0  0  0  0
  1  3  1  0  0  0  0
  1  4  1  0  0  0  0
  1  5  1  0  0  0  0
  5  6  1  0  0  0  0
  5  7  1  0  0  0  0
  5  8  1  0  0  0  0
  8  9  1  0  0  0  0
  8 10  1  0  0  0  0
  8 11  1  0  0  0  0
 11 12  1  0  0  0  0
 11 13  1  0  0  0  0
 11 14  1  0  0  0  0
 14 15  1  0  0  0  0
 14 16  1  0  0  0  0
 14 17  1  0  0  0  0
 17 18  1  0  0  0  0
 17 19  1  0  0  0  0
 17 20  1  0  0  0  0
 20 21  1  0  0  0  0
 20 22  1  0  0  0  0
 20 23  1  0  0  0  0
M  END
> <VConfSearch Rank>
485

> <Conf_Id>
3

> <Delta U+W>
3.283

> <U+W>
-5.099

> <U>
50.701

> <W>
-55.800

> <W(PB)>
-57.867

> <W(SA)>
2.067

> <Valence>
4.880

> <Coulomb>
45.095

> <VdW>
0.726

> <VdW6>
-6.620

> <VdW12>
7.346

> <Bond>
0.222

> <Angle>
1.260

> <Pdih>
3.398

> <Idih>
0.000

> <Tether>
0.000

$$$$
VeraChem MOL file


 23 22  0  0  0  0  0  0  0  0999 V2000     
   20.6048   16.2710   22.5282 N   0  3  0  0  0  0  0  0  0  0  0  0
   19.9730   15.6726   21.9865 H   0  0  0  0  0  0  0  0  0  0  0  0
   21.3726   15.6756   22.8566 H   0  0  0  0  0  0  0  0  0  0  0  0
   21.0090   16.9520   21.8783 H   0  0  0  0  0  0  0  0  0  0  0  0
   19.8881   16.9516   23.6777 C   0  0  0  0  0  0  0  0  0  0  0  0
   20.6205   17.5462   24.2296 H   0  0  0  0  0  0  0  0  0  0  0  0
   19.5143   16.1708   24.3456 H   0  0  0  0  0  0  0  0  0  0  0  0
   18.7146   17.8484   23.2329 C   0  0  0  0  0  0  0  0  0  0  0  0
   17.9632   17.2288   22.7256 H   0  0  0  0  0  0  0  0  0  0  0  0
   18.2226   18.2540   24.1270 H   0  0  0  0  0  0  0  0  0  0  0  0
   19.1258   19.0172   22.3021 C   0  0  0  0  0  0  0  0  0  0  0  0
   18.2157   19.5603   22.0164 H   0  0  0  0  0  0  0  0  0  0  0  0
   19.5507   18.6215   21.3701 H   0  0  0  0  0  0  0  0  0  0  0  0
   20.1289   19.9979   22.9612 C   0  0  0  0  0  0  0  0  0  0  0  0
   19.6912   20.4141   23.8790 H   0  0  0  0  0  0  0  0  0  0  0  0
   21.0297   19.4511   23.2692 H   0  0  0  0  0  0  0  0  0  0  0  0
   20.5646   21.1533   22.0275 C   0  0  0  0  0  0  0  0  0  0  0  0
   21.0134   20.7430   21.1121 H   0  0  0  0  0  0  0  0  0  0  0  0
   21.3570   21.7287   22.5263 H   0  0  0  0  0  0  0  0  0  0  0  0
   19.4124   22.1146   21.6564 C   0  0  0  0  0  0  0  0  0  0  0  0
   18.9251   22.5129   22.5557 H   0  0  0  0  0  0  0  0  0  0  0  0
   18.6509   21.6155   21.0445 H   0  0  0  0  0  0  0  0  0  0  0  0
   19.7939   22.9653   21.0771 H   0  0  0  0  0  0  0  0  0  0  0  0
  1  2  1  0  0  0  0
  1  3  1  0  0  0  0
  1  4  1  0  0  0  0
  1  5  1  0  0  0  0
  5  6  1  0  0  0  0
  5  7  1  0  0  0  0
  5  8  1  0  0  0  0
  8  9  1  0  0  0  0
  8 10  1  0  0  0  0
  8 11  1  0  0  0  0
 11 12  1  0  0  0  0
 11 13  1  0  0  0  0
 11 14  1  0  0  0  0
 14 15  1  0  0  0  0
 14 16  1  0  0  0  0
 14 17  1  0  0  0  0
 17 18  1  0  0  0  0
 17 19  1  0  0  0  0
 17 20  1  0  0  0  0
 20 21  1  0  0  0  0
 20 22  1  0  0  0  0
 20 23  1  0  0  0  0
M  END
> <VConfSearch Rank>
486

> <Conf_Id>
83

> <Delta U+W>
1.229

> <U+W>
-7.154

> <U>
48.727

> <W>
-55.880

> <W(PB)>
-57.960

> <W(SA)>
2.080

> <Valence>
2.671

> <Coulomb>
45.371

> <VdW>
0.684

> <VdW6>
-6.511

> <VdW12>
7.195

> <Bond>
0.203

> <Angle>
0.915

> <Pdih>
1.554

> <Idih>
0.000

> <Tether>
0.000

$$$$
VeraChem MOL file


 23 22  0  0  0  0  0  0  0  0999 V2000     
   18.7384   19.3833   19.8627 N   0  3  0  0  0  0  0  0  0  0  0  0
   19.4497   19.7364   19.2146 H   0  0  0  0  0  0  0  0  0  0  0  0
   18.5936   20.1041   20.5761 H   0  0  0  0  0  0  0  0  0  0  0  0
   17.8639   19.3038   19.3328 H   0  0  0  0  0  0  0  0  0  0  0  0
   19.1459   18.0596   20.4793 C   0  0  0  0  0  0  0  0  0  0  0  0
   19.2487   17.3328   19.6689 H   0  0  0  0  0  0  0  0  0  0  0  0
   18.3354   17.7257   21.1319 H   0  0  0  0  0  0  0  0  0  0  0  0
   20.4651   18.1266   21.2759 C   0  0  0  0  0  0  0  0  0  0  0  0
   20.7097   17.1191   21.6377 H   0  0  0  0  0  0  0  0  0  0  0  0
   21.2790   18.4130   20.5966 H   0  0  0  0  0  0  0  0  0  0  0  0
   20.4331   19.1062   22.4763 C   0  0  0  0  0  0  0  0  0  0  0  0
   20.2644   20.1306   22.1187 H   0  0  0  0  0  0  0  0  0  0  0  0
   21.4270   19.1052   22.9422 H   0  0  0  0  0  0  0  0  0  0  0  0
   19.3638   18.7376   23.5361 C   0  0  0  0  0  0  0  0  0  0  0  0
   18.3721   18.7146   23.0656 H   0  0  0  0  0  0  0  0  0  0  0  0
   19.5507   17.7226   23.9131 H   0  0  0  0  0  0  0  0  0  0  0  0
   19.3082   19.7274   24.7251 C   0  0  0  0  0  0  0  0  0  0  0  0
   18.4540   19.4622   25.3637 H   0  0  0  0  0  0  0  0  0  0  0  0
   19.1108   20.7431   24.3549 H   0  0  0  0  0  0  0  0  0  0  0  0
   20.5909   19.7282   25.5878 C   0  0  0  0  0  0  0  0  0  0  0  0
   20.8286   18.7171   25.9431 H   0  0  0  0  0  0  0  0  0  0  0  0
   20.4608   20.3709   26.4681 H   0  0  0  0  0  0  0  0  0  0  0  0
   21.4542   20.1084   25.0280 H   0  0  0  0  0  0  0  0  0  0  0  0
  1  2  1  0  0  0  0
  1  3  1  0  0  0  0
  1  4  1  0  0  0  0
  1  5  1  0  0  0  0
  5  6  1  0  0  0  0
  5  7  1  0  0  0  0
  5  8  1  0  0  0  0
  8  9  1  0  0  0  0
  8 10  1  0  0  0  0
  8 11  1  0  0  0  0
 11 12  1  0  0  0  0
 11 13  1  0  0  0  0
 11 14  1  0  0  0  0
 14 15  1  0  0  0  0
 14 16  1  0  0  0  0
 14 17  1  0  0  0  0
 17 18  1  0  0  0  0
 17 19  1  0  0  0  0
 17 20  1  0  0  0  0
 20 21  1  0  0  0  0
 20 22  1  0  0  0  0
 20 23  1  0  0  0  0
M  END
> <VConfSearch Rank>
487

> <Conf_Id>
50

> <Delta U+W>
1.252

> <U+W>
-7.130

> <U>
48.727

> <W>
-55.857

> <W(PB)>
-57.937

> <W(SA)>
2.080

> <Valence>
2.671

> <Coulomb>
45.371

> <VdW>
0.684

> <VdW6>
-6.511

> <VdW12>
7.196

> <Bond>
0.203

> <Angle>
0.915

> <Pdih>
1.554

> <Idih>
0.000

> <Tether>
0.000

$$$$
VeraChem MOL file


 23 22  0  0  0  0  0  0  0  0999 V2000     
   20.9895   17.4136   20.1811 N   0  3  0  0  0  0  0  0  0  0  0  0
   21.6297   17.1718   20.9435 H   0  0  0  0  0  0  0  0  0  0  0  0
   21.5465   17.4432   19.3204 H   0  0  0  0  0  0  0  0  0  0  0  0
   20.3282   16.6368   20.0824 H   0  0  0  0  0  0  0  0  0  0  0  0
   20.2801   18.7289   20.4377 C   0  0  0  0  0  0  0  0  0  0  0  0
   19.6500   18.9404   19.5694 H   0  0  0  0  0  0  0  0  0  0  0  0
   21.0370   19.5147   20.5084 H   0  0  0  0  0  0  0  0  0  0  0  0
   19.4117   18.7298   21.7108 C   0  0  0  0  0  0  0  0  0  0  0  0
   18.8598   19.6756   21.7484 H   0  0  0  0  0  0  0  0  0  0  0  0
   18.6567   17.9359   21.6373 H   0  0  0  0  0  0  0  0  0  0  0  0
   20.2469   18.5440   23.0033 C   0  0  0  0  0  0  0  0  0  0  0  0
   21.0655   19.2761   23.0385 H   0  0  0  0  0  0  0  0  0  0  0  0
   20.7237   17.5553   22.9713 H   0  0  0  0  0  0  0  0  0  0  0  0
   19.4006   18.6305   24.3004 C   0  0  0  0  0  0  0  0  0  0  0  0
   18.3721   18.2949   24.1083 H   0  0  0  0  0  0  0  0  0  0  0  0
   19.8134   17.9168   25.0267 H   0  0  0  0  0  0  0  0  0  0  0  0
   19.3888   20.0264   24.9748 C   0  0  0  0  0  0  0  0  0  0  0  0
   20.4133   20.3084   25.2553 H   0  0  0  0  0  0  0  0  0  0  0  0
   18.8253   19.9541   25.9155 H   0  0  0  0  0  0  0  0  0  0  0  0
   18.7680   21.1459   24.1109 C   0  0  0  0  0  0  0  0  0  0  0  0
   17.7638   20.8688   23.7650 H   0  0  0  0  0  0  0  0  0  0  0  0
   19.3916   21.3665   23.2359 H   0  0  0  0  0  0  0  0  0  0  0  0
   18.6789   22.0732   24.6915 H   0  0  0  0  0  0  0  0  0  0  0  0
  1  2  1  0  0  0  0
  1  3  1  0  0  0  0
  1  4  1  0  0  0  0
  1  5  1  0  0  0  0
  5  6  1  0  0  0  0
  5  7  1  0  0  0  0
  5  8  1  0  0  0  0
  8  9  1  0  0  0  0
  8 10  1  0  0  0  0
  8 11  1  0  0  0  0
 11 12  1  0  0  0  0
 11 13  1  0  0  0  0
 11 14  1  0  0  0  0
 14 15  1  0  0  0  0
 14 16  1  0  0  0  0
 14 17  1  0  0  0  0
 17 18  1  0  0  0  0
 17 19  1  0  0  0  0
 17 20  1  0  0  0  0
 20 21  1  0  0  0  0
 20 22  1  0  0  0  0
 20 23  1  0  0  0  0
M  END
> <VConfSearch Rank>
488

> <Conf_Id>
55

> <Delta U+W>
3.232

> <U+W>
-5.150

> <U>
50.625

> <W>
-55.776

> <W(PB)>
-57.839

> <W(SA)>
2.064

> <Valence>
4.837

> <Coulomb>
45.097

> <VdW>
0.692

> <VdW6>
-6.655

> <VdW12>
7.347

> <Bond>
0.223

> <Angle>
1.167

> <Pdih>
3.447

> <Idih>
0.000

> <Tether>
0.000

$$$$
VeraChem MOL file


 23 22  0  0  0  0  0  0  0  0999 V2000     
   20.5899   18.7787   19.5653 N   0  3  0  0  0  0  0  0  0  0  0  0
   21.5623   18.7568   19.2415 H   0  0  0  0  0  0  0  0  0  0  0  0
   20.0502   19.2811   18.8524 H   0  0  0  0  0  0  0  0  0  0  0  0
   20.2516   17.8111   19.5684 H   0  0  0  0  0  0  0  0  0  0  0  0
   20.4628   19.4269   20.9288 C   0  0  0  0  0  0  0  0  0  0  0  0
   19.4034   19.4478   21.1905 H   0  0  0  0  0  0  0  0  0  0  0  0
   20.8131   20.4592   20.8440 H   0  0  0  0  0  0  0  0  0  0  0  0
   21.2698   18.6969   22.0205 C   0  0  0  0  0  0  0  0  0  0  0  0
   20.9608   17.6452   22.0853 H   0  0  0  0  0  0  0  0  0  0  0  0
   22.3252   18.6917   21.7172 H   0  0  0  0  0  0  0  0  0  0  0  0
   21.1601   19.3714   23.4113 C   0  0  0  0  0  0  0  0  0  0  0  0
   21.1411   20.4644   23.2992 H   0  0  0  0  0  0  0  0  0  0  0  0
   22.0775   19.1466   23.9730 H   0  0  0  0  0  0  0  0  0  0  0  0
   19.9586   18.9029   24.2729 C   0  0  0  0  0  0  0  0  0  0  0  0
   20.0451   17.8247   24.4660 H   0  0  0  0  0  0  0  0  0  0  0  0
   20.0293   19.3940   25.2533 H   0  0  0  0  0  0  0  0  0  0  0  0
   18.5710   19.2043   23.6612 C   0  0  0  0  0  0  0  0  0  0  0  0
   18.4207   18.5983   22.7584 H   0  0  0  0  0  0  0  0  0  0  0  0
   18.5168   20.2595   23.3589 H   0  0  0  0  0  0  0  0  0  0  0  0
   17.4315   18.8978   24.6563 C   0  0  0  0  0  0  0  0  0  0  0  0
   17.5205   19.5129   25.5612 H   0  0  0  0  0  0  0  0  0  0  0  0
   17.4443   17.8422   24.9577 H   0  0  0  0  0  0  0  0  0  0  0  0
   16.4540   19.1067   24.2026 H   0  0  0  0  0  0  0  0  0  0  0  0
  1  2  1  0  0  0  0
  1  3  1  0  0  0  0
  1  4  1  0  0  0  0
  1  5  1  0  0  0  0
  5  6  1  0  0  0  0
  5  7  1  0  0  0  0
  5  8  1  0  0  0  0
  8  9  1  0  0  0  0
  8 10  1  0  0  0  0
  8 11  1  0  0  0  0
 11 12  1  0  0  0  0
 11 13  1  0  0  0  0
 11 14  1  0  0  0  0
 14 15  1  0  0  0  0
 14 16  1  0  0  0  0
 14 17  1  0  0  0  0
 17 18  1  0  0  0  0
 17 19  1  0  0  0  0
 17 20  1  0  0  0  0
 20 21  1  0  0  0  0
 20 22  1  0  0  0  0
 20 23  1  0  0  0  0
M  END
> <VConfSearch Rank>
489

> <Conf_Id>
93

> <Delta U+W>
2.589

> <U+W>
-5.793

> <U>
50.122

> <W>
-55.915

> <W(PB)>
-58.031

> <W(SA)>
2.115

> <Valence>
4.132

> <Coulomb>
45.536

> <VdW>
0.454

> <VdW6>
-6.262

> <VdW12>
6.715

> <Bond>
0.182

> <Angle>
1.157

> <Pdih>
2.794

> <Idih>
0.000

> <Tether>
0.000

$$$$
VeraChem MOL file


 23 22  0  0  0  0  0  0  0  0999 V2000     
   17.1044   17.5610   21.5562 N   0  3  0  0  0  0  0  0  0  0  0  0
   17.1157   16.9493   22.3786 H   0  0  0  0  0  0  0  0  0  0  0  0
   17.1320   16.9522   20.7312 H   0  0  0  0  0  0  0  0  0  0  0  0
   16.1956   18.0351   21.5458 H   0  0  0  0  0  0  0  0  0  0  0  0
   18.2555   18.5461   21.5680 C   0  0  0  0  0  0  0  0  0  0  0  0
   18.1970   19.1422   20.6533 H   0  0  0  0  0  0  0  0  0  0  0  0
   19.1845   17.9736   21.5418 H   0  0  0  0  0  0  0  0  0  0  0  0
   18.2365   19.4802   22.7939 C   0  0  0  0  0  0  0  0  0  0  0  0
   17.2864   20.0310   22.7872 H   0  0  0  0  0  0  0  0  0  0  0  0
   18.2479   18.8933   23.7219 H   0  0  0  0  0  0  0  0  0  0  0  0
   19.3997   20.5042   22.7965 C   0  0  0  0  0  0  0  0  0  0  0  0
   19.0703   21.3936   23.3515 H   0  0  0  0  0  0  0  0  0  0  0  0
   19.5988   20.8502   21.7727 H   0  0  0  0  0  0  0  0  0  0  0  0
   20.7116   20.0026   23.4543 C   0  0  0  0  0  0  0  0  0  0  0  0
   21.4305   20.8336   23.4593 H   0  0  0  0  0  0  0  0  0  0  0  0
   20.5220   19.7582   24.5087 H   0  0  0  0  0  0  0  0  0  0  0  0
   21.3587   18.7854   22.7543 C   0  0  0  0  0  0  0  0  0  0  0  0
   21.4473   18.9776   21.6759 H   0  0  0  0  0  0  0  0  0  0  0  0
   20.7205   17.9008   22.8766 H   0  0  0  0  0  0  0  0  0  0  0  0
   22.7541   18.4707   23.3344 C   0  0  0  0  0  0  0  0  0  0  0  0
   23.1940   17.5982   22.8342 H   0  0  0  0  0  0  0  0  0  0  0  0
   22.6943   18.2490   24.4079 H   0  0  0  0  0  0  0  0  0  0  0  0
   23.4394   19.3174   23.1978 H   0  0  0  0  0  0  0  0  0  0  0  0
  1  2  1  0  0  0  0
  1  3  1  0  0  0  0
  1  4  1  0  0  0  0
  1  5  1  0  0  0  0
  5  6  1  0  0  0  0
  5  7  1  0  0  0  0
  5  8  1  0  0  0  0
  8  9  1  0  0  0  0
  8 10  1  0  0  0  0
  8 11  1  0  0  0  0
 11 12  1  0  0  0  0
 11 13  1  0  0  0  0
 11 14  1  0  0  0  0
 14 15  1  0  0  0  0
 14 16  1  0  0  0  0
 14 17  1  0  0  0  0
 17 18  1  0  0  0  0
 17 19  1  0  0  0  0
 17 20  1  0  0  0  0
 20 21  1  0  0  0  0
 20 22  1  0  0  0  0
 20 23  1  0  0  0  0
M  END
> <VConfSearch Rank>
490

> <Conf_Id>
70

> <Delta U+W>
2.599

> <U+W>
-5.783

> <U>
50.122

> <W>
-55.906

> <W(PB)>
-58.010

> <W(SA)>
2.105

> <Valence>
4.132

> <Coulomb>
45.536

> <VdW>
0.454

> <VdW6>
-6.262

> <VdW12>
6.715

> <Bond>
0.182

> <Angle>
1.157

> <Pdih>
2.794

> <Idih>
0.000

> <Tether>
0.000

$$$$
VeraChem MOL file


 23 22  0  0  0  0  0  0  0  0999 V2000     
   19.6325   17.8386   19.9915 N   0  3  0  0  0  0  0  0  0  0  0  0
   19.8634   18.3294   19.1218 H   0  0  0  0  0  0  0  0  0  0  0  0
   19.1472   16.9745   19.7277 H   0  0  0  0  0  0  0  0  0  0  0  0
   20.5175   17.5655   20.4292 H   0  0  0  0  0  0  0  0  0  0  0  0
   18.7925   18.6972   20.9163 C   0  0  0  0  0  0  0  0  0  0  0  0
   18.5540   18.1067   21.8048 H   0  0  0  0  0  0  0  0  0  0  0  0
   17.8566   18.9263   20.3995 H   0  0  0  0  0  0  0  0  0  0  0  0
   19.4817   20.0115   21.3350 C   0  0  0  0  0  0  0  0  0  0  0  0
   19.6852   20.6116   20.4381 H   0  0  0  0  0  0  0  0  0  0  0  0
   18.7804   20.6030   21.9372 H   0  0  0  0  0  0  0  0  0  0  0  0
   20.8029   19.8075   22.1222 C   0  0  0  0  0  0  0  0  0  0  0  0
   21.1982   20.7911   22.4112 H   0  0  0  0  0  0  0  0  0  0  0  0
   21.5576   19.3691   21.4554 H   0  0  0  0  0  0  0  0  0  0  0  0
   20.6784   18.9207   23.3883 C   0  0  0  0  0  0  0  0  0  0  0  0
   20.3742   17.9035   23.1077 H   0  0  0  0  0  0  0  0  0  0  0  0
   21.6743   18.8239   23.8424 H   0  0  0  0  0  0  0  0  0  0  0  0
   19.6982   19.4846   24.4438 C   0  0  0  0  0  0  0  0  0  0  0  0
   18.6805   19.5234   24.0332 H   0  0  0  0  0  0  0  0  0  0  0  0
   19.9793   20.5164   24.6972 H   0  0  0  0  0  0  0  0  0  0  0  0
   19.6881   18.6268   25.7269 C   0  0  0  0  0  0  0  0  0  0  0  0
   18.9862   19.0392   26.4633 H   0  0  0  0  0  0  0  0  0  0  0  0
   20.6829   18.5969   26.1901 H   0  0  0  0  0  0  0  0  0  0  0  0
   19.3810   17.5955   25.5095 H   0  0  0  0  0  0  0  0  0  0  0  0
  1  2  1  0  0  0  0
  1  3  1  0  0  0  0
  1  4  1  0  0  0  0
  1  5  1  0  0  0  0
  5  6  1  0  0  0  0
  5  7  1  0  0  0  0
  5  8  1  0  0  0  0
  8  9  1  0  0  0  0
  8 10  1  0  0  0  0
  8 11  1  0  0  0  0
 11 12  1  0  0  0  0
 11 13  1  0  0  0  0
 11 14  1  0  0  0  0
 14 15  1  0  0  0  0
 14 16  1  0  0  0  0
 14 17  1  0  0  0  0
 17 18  1  0  0  0  0
 17 19  1  0  0  0  0
 17 20  1  0  0  0  0
 20 21  1  0  0  0  0
 20 22  1  0  0  0  0
 20 23  1  0  0  0  0
M  END
> <VConfSearch Rank>
491

> <Conf_Id>
72

> <Delta U+W>
1.051

> <U+W>
-7.331

> <U>
48.590

> <W>
-55.922

> <W(PB)>
-58.012

> <W(SA)>
2.090

> <Valence>
2.601

> <Coulomb>
45.520

> <VdW>
0.469

> <VdW6>
-6.867

> <VdW12>
7.336

> <Bond>
0.205

> <Angle>
0.962

> <Pdih>
1.434

> <Idih>
0.000

> <Tether>
0.000

$$$$
VeraChem MOL file


 23 22  0  0  0  0  0  0  0  0999 V2000     
   19.2300   17.4710   25.3175 N   0  3  0  0  0  0  0  0  0  0  0  0
   18.8296   16.5428   25.4912 H   0  0  0  0  0  0  0  0  0  0  0  0
   18.9391   18.0709   26.0961 H   0  0  0  0  0  0  0  0  0  0  0  0
   20.2485   17.3722   25.3771 H   0  0  0  0  0  0  0  0  0  0  0  0
   18.7932   18.0309   23.9792 C   0  0  0  0  0  0  0  0  0  0  0  0
   17.7011   18.0821   23.9743 H   0  0  0  0  0  0  0  0  0  0  0  0
   19.1084   17.3293   23.2024 H   0  0  0  0  0  0  0  0  0  0  0  0
   19.3782   19.4255   23.6878 C   0  0  0  0  0  0  0  0  0  0  0  0
   19.0867   20.1127   24.4930 H   0  0  0  0  0  0  0  0  0  0  0  0
   20.4745   19.3780   23.7053 H   0  0  0  0  0  0  0  0  0  0  0  0
   18.8946   20.0059   22.3357 C   0  0  0  0  0  0  0  0  0  0  0  0
   19.3275   21.0058   22.1988 H   0  0  0  0  0  0  0  0  0  0  0  0
   17.8075   20.1584   22.3837 H   0  0  0  0  0  0  0  0  0  0  0  0
   19.2165   19.1270   21.0969 C   0  0  0  0  0  0  0  0  0  0  0  0
   18.6483   18.1890   21.1573 H   0  0  0  0  0  0  0  0  0  0  0  0
   18.8456   19.6387   20.1982 H   0  0  0  0  0  0  0  0  0  0  0  0
   20.7167   18.7923   20.8978 C   0  0  0  0  0  0  0  0  0  0  0  0
   20.8189   18.1602   20.0046 H   0  0  0  0  0  0  0  0  0  0  0  0
   21.0857   18.1878   21.7372 H   0  0  0  0  0  0  0  0  0  0  0  0
   21.6064   20.0442   20.7254 C   0  0  0  0  0  0  0  0  0  0  0  0
   21.2486   20.6713   19.8986 H   0  0  0  0  0  0  0  0  0  0  0  0
   22.6411   19.7532   20.5028 H   0  0  0  0  0  0  0  0  0  0  0  0
   21.6234   20.6543   21.6370 H   0  0  0  0  0  0  0  0  0  0  0  0
  1  2  1  0  0  0  0
  1  3  1  0  0  0  0
  1  4  1  0  0  0  0
  1  5  1  0  0  0  0
  5  6  1  0  0  0  0
  5  7  1  0  0  0  0
  5  8  1  0  0  0  0
  8  9  1  0  0  0  0
  8 10  1  0  0  0  0
  8 11  1  0  0  0  0
 11 12  1  0  0  0  0
 11 13  1  0  0  0  0
 11 14  1  0  0  0  0
 14 15  1  0  0  0  0
 14 16  1  0  0  0  0
 14 17  1  0  0  0  0
 17 18  1  0  0  0  0
 17 19  1  0  0  0  0
 17 20  1  0  0  0  0
 20 21  1  0  0  0  0
 20 22  1  0  0  0  0
 20 23  1  0  0  0  0
M  END
> <VConfSearch Rank>
492

> <Conf_Id>
26

> <Delta U+W>
1.076

> <U+W>
-7.306

> <U>
48.641

> <W>
-55.947

> <W(PB)>
-58.031

> <W(SA)>
2.084

> <Valence>
2.922

> <Coulomb>
45.269

> <VdW>
0.449

> <VdW6>
-7.045

> <VdW12>
7.494

> <Bond>
0.220

> <Angle>
1.205

> <Pdih>
1.497

> <Idih>
0.000

> <Tether>
0.000

$$$$
VeraChem MOL file


 23 22  0  0  0  0  0  0  0  0999 V2000     
   19.2975   21.8131   23.8779 N   0  3  0  0  0  0  0  0  0  0  0  0
   18.7129   21.8116   24.7199 H   0  0  0  0  0  0  0  0  0  0  0  0
   19.1643   22.7235   23.4246 H   0  0  0  0  0  0  0  0  0  0  0  0
   20.2736   21.7746   24.1884 H   0  0  0  0  0  0  0  0  0  0  0  0
   18.9536   20.6664   22.9493 C   0  0  0  0  0  0  0  0  0  0  0  0
   19.5906   20.7477   22.0647 H   0  0  0  0  0  0  0  0  0  0  0  0
   17.9128   20.7854   22.6362 H   0  0  0  0  0  0  0  0  0  0  0  0
   19.1435   19.2838   23.6006 C   0  0  0  0  0  0  0  0  0  0  0  0
   20.1849   19.1683   23.9271 H   0  0  0  0  0  0  0  0  0  0  0  0
   18.5280   19.2266   24.5082 H   0  0  0  0  0  0  0  0  0  0  0  0
   18.7520   18.1197   22.6569 C   0  0  0  0  0  0  0  0  0  0  0  0
   17.6770   18.1857   22.4394 H   0  0  0  0  0  0  0  0  0  0  0  0
   18.8884   17.1671   23.1861 H   0  0  0  0  0  0  0  0  0  0  0  0
   19.5275   18.0821   21.3123 C   0  0  0  0  0  0  0  0  0  0  0  0
   19.1836   17.2137   20.7336 H   0  0  0  0  0  0  0  0  0  0  0  0
   19.2589   18.9614   20.7115 H   0  0  0  0  0  0  0  0  0  0  0  0
   21.0705   18.0164   21.4426 C   0  0  0  0  0  0  0  0  0  0  0  0
   21.4500   18.9266   21.9259 H   0  0  0  0  0  0  0  0  0  0  0  0
   21.5069   18.0073   20.4341 H   0  0  0  0  0  0  0  0  0  0  0  0
   21.5682   16.7712   22.2110 C   0  0  0  0  0  0  0  0  0  0  0  0
   21.2471   16.7908   23.2599 H   0  0  0  0  0  0  0  0  0  0  0  0
   22.6649   16.7264   22.2017 H   0  0  0  0  0  0  0  0  0  0  0  0
   21.1903   15.8480   21.7529 H   0  0  0  0  0  0  0  0  0  0  0  0
  1  2  1  0  0  0  0
  1  3  1  0  0  0  0
  1  4  1  0  0  0  0
  1  5  1  0  0  0  0
  5  6  1  0  0  0  0
  5  7  1  0  0  0  0
  5  8  1  0  0  0  0
  8  9  1  0  0  0  0
  8 10  1  0  0  0  0
  8 11  1  0  0  0  0
 11 12  1  0  0  0  0
 11 13  1  0  0  0  0
 11 14  1  0  0  0  0
 14 15  1  0  0  0  0
 14 16  1  0  0  0  0
 14 17  1  0  0  0  0
 17 18  1  0  0  0  0
 17 19  1  0  0  0  0
 17 20  1  0  0  0  0
 20 21  1  0  0  0  0
 20 22  1  0  0  0  0
 20 23  1  0  0  0  0
M  END
> <VConfSearch Rank>
493

> <Conf_Id>
90

> <Delta U+W>
1.131

> <U+W>
-7.251

> <U>
48.641

> <W>
-55.892

> <W(PB)>
-57.962

> <W(SA)>
2.070

> <Valence>
2.922

> <Coulomb>
45.269

> <VdW>
0.450

> <VdW6>
-7.045

> <VdW12>
7.495

> <Bond>
0.220

> <Angle>
1.205

> <Pdih>
1.497

> <Idih>
0.000

> <Tether>
0.000

$$$$
VeraChem MOL file


 23 22  0  0  0  0  0  0  0  0999 V2000     
   18.2246   19.8131   24.5216 N   0  3  0  0  0  0  0  0  0  0  0  0
   18.3386   20.1223   25.4928 H   0  0  0  0  0  0  0  0  0  0  0  0
   18.6471   18.8825   24.4501 H   0  0  0  0  0  0  0  0  0  0  0  0
   17.2186   19.7034   24.3587 H   0  0  0  0  0  0  0  0  0  0  0  0
   18.8503   20.7876   23.5431 C   0  0  0  0  0  0  0  0  0  0  0  0
   19.9109   20.8819   23.7901 H   0  0  0  0  0  0  0  0  0  0  0  0
   18.3788   21.7622   23.6963 H   0  0  0  0  0  0  0  0  0  0  0  0
   18.6938   20.3698   22.0667 C   0  0  0  0  0  0  0  0  0  0  0  0
   17.6254   20.3243   21.8171 H   0  0  0  0  0  0  0  0  0  0  0  0
   19.1230   21.1557   21.4311 H   0  0  0  0  0  0  0  0  0  0  0  0
   19.3590   19.0136   21.7221 C   0  0  0  0  0  0  0  0  0  0  0  0
   19.1815   18.7967   20.6598 H   0  0  0  0  0  0  0  0  0  0  0  0
   18.8660   18.2107   22.2847 H   0  0  0  0  0  0  0  0  0  0  0  0
   20.8843   18.9991   21.9955 C   0  0  0  0  0  0  0  0  0  0  0  0
   21.3465   19.8599   21.4928 H   0  0  0  0  0  0  0  0  0  0  0  0
   21.0782   19.1267   23.0688 H   0  0  0  0  0  0  0  0  0  0  0  0
   21.5835   17.7089   21.5037 C   0  0  0  0  0  0  0  0  0  0  0  0
   22.6685   17.8232   21.6364 H   0  0  0  0  0  0  0  0  0  0  0  0
   21.4177   17.5840   20.4244 H   0  0  0  0  0  0  0  0  0  0  0  0
   21.1213   16.4376   22.2515 C   0  0  0  0  0  0  0  0  0  0  0  0
   21.2522   16.5475   23.3358 H   0  0  0  0  0  0  0  0  0  0  0  0
   21.7087   15.5680   21.9294 H   0  0  0  0  0  0  0  0  0  0  0  0
   20.0660   16.2138   22.0526 H   0  0  0  0  0  0  0  0  0  0  0  0
  1  2  1  0  0  0  0
  1  3  1  0  0  0  0
  1  4  1  0  0  0  0
  1  5  1  0  0  0  0
  5  6  1  0  0  0  0
  5  7  1  0  0  0  0
  5  8  1  0  0  0  0
  8  9  1  0  0  0  0
  8 10  1  0  0  0  0
  8 11  1  0  0  0  0
 11 12  1  0  0  0  0
 11 13  1  0  0  0  0
 11 14  1  0  0  0  0
 14 15  1  0  0  0  0
 14 16  1  0  0  0  0
 14 17  1  0  0  0  0
 17 18  1  0  0  0  0
 17 19  1  0  0  0  0
 17 20  1  0  0  0  0
 20 21  1  0  0  0  0
 20 22  1  0  0  0  0
 20 23  1  0  0  0  0
M  END
> <VConfSearch Rank>
494

> <Conf_Id>
85

> <Delta U+W>
1.193

> <U+W>
-7.189

> <U>
48.775

> <W>
-55.965

> <W(PB)>
-58.038

> <W(SA)>
2.073

> <Valence>
2.602

> <Coulomb>
45.581

> <VdW>
0.592

> <VdW6>
-6.616

> <VdW12>
7.208

> <Bond>
0.196

> <Angle>
0.832

> <Pdih>
1.574

> <Idih>
0.000

> <Tether>
0.000

$$$$
VeraChem MOL file


 23 22  0  0  0  0  0  0  0  0999 V2000     
   19.9950   20.7201   23.5579 N   0  3  0  0  0  0  0  0  0  0  0  0
   19.4140   20.3969   22.7778 H   0  0  0  0  0  0  0  0  0  0  0  0
   20.4166   21.6125   23.2783 H   0  0  0  0  0  0  0  0  0  0  0  0
   19.3682   20.9194   24.3443 H   0  0  0  0  0  0  0  0  0  0  0  0
   21.0467   19.6914   23.9258 C   0  0  0  0  0  0  0  0  0  0  0  0
   21.6202   20.1053   24.7597 H   0  0  0  0  0  0  0  0  0  0  0  0
   21.7248   19.5648   23.0777 H   0  0  0  0  0  0  0  0  0  0  0  0
   20.4678   18.3240   24.3427 C   0  0  0  0  0  0  0  0  0  0  0  0
   21.2264   17.8113   24.9490 H   0  0  0  0  0  0  0  0  0  0  0  0
   19.6059   18.4728   25.0066 H   0  0  0  0  0  0  0  0  0  0  0  0
   20.0831   17.3823   23.1699 C   0  0  0  0  0  0  0  0  0  0  0  0
   19.7420   16.4342   23.6086 H   0  0  0  0  0  0  0  0  0  0  0  0
   20.9772   17.1291   22.5834 H   0  0  0  0  0  0  0  0  0  0  0  0
   18.9634   17.9093   22.2362 C   0  0  0  0  0  0  0  0  0  0  0  0
   18.3450   17.0582   21.9183 H   0  0  0  0  0  0  0  0  0  0  0  0
   18.2881   18.5737   22.7915 H   0  0  0  0  0  0  0  0  0  0  0  0
   19.5074   18.6027   20.9633 C   0  0  0  0  0  0  0  0  0  0  0  0
   20.0384   17.8635   20.3472 H   0  0  0  0  0  0  0  0  0  0  0  0
   20.2472   19.3711   21.2172 H   0  0  0  0  0  0  0  0  0  0  0  0
   18.3735   19.2364   20.1299 C   0  0  0  0  0  0  0  0  0  0  0  0
   17.6445   18.4778   19.8160 H   0  0  0  0  0  0  0  0  0  0  0  0
   18.7760   19.7098   19.2248 H   0  0  0  0  0  0  0  0  0  0  0  0
   17.8395   20.0054   20.7028 H   0  0  0  0  0  0  0  0  0  0  0  0
  1  2  1  0  0  0  0
  1  3  1  0  0  0  0
  1  4  1  0  0  0  0
  1  5  1  0  0  0  0
  5  6  1  0  0  0  0
  5  7  1  0  0  0  0
  5  8  1  0  0  0  0
  8  9  1  0  0  0  0
  8 10  1  0  0  0  0
  8 11  1  0  0  0  0
 11 12  1  0  0  0  0
 11 13  1  0  0  0  0
 11 14  1  0  0  0  0
 14 15  1  0  0  0  0
 14 16  1  0  0  0  0
 14 17  1  0  0  0  0
 17 18  1  0  0  0  0
 17 19  1  0  0  0  0
 17 20  1  0  0  0  0
 20 21  1  0  0  0  0
 20 22  1  0  0  0  0
 20 23  1  0  0  0  0
M  END
> <VConfSearch Rank>
495

> <Conf_Id>
82

> <Delta U+W>
5.994

> <U+W>
-2.388

> <U>
52.836

> <W>
-55.224

> <W(PB)>
-57.261

> <W(SA)>
2.037

> <Valence>
5.785

> <Coulomb>
46.744

> <VdW>
0.307

> <VdW6>
-7.672

> <VdW12>
7.979

> <Bond>
0.217

> <Angle>
1.470

> <Pdih>
4.098

> <Idih>
0.000

> <Tether>
0.000

$$$$
VeraChem MOL file


 23 22  0  0  0  0  0  0  0  0999 V2000     
   20.1302   19.0666   20.5079 N   0  3  0  0  0  0  0  0  0  0  0  0
   19.3981   18.6561   19.9193 H   0  0  0  0  0  0  0  0  0  0  0  0
   20.6829   19.6881   19.9074 H   0  0  0  0  0  0  0  0  0  0  0  0
   19.6660   19.6512   21.2104 H   0  0  0  0  0  0  0  0  0  0  0  0
   20.9905   18.0005   21.1582 C   0  0  0  0  0  0  0  0  0  0  0  0
   21.7910   18.4902   21.7190 H   0  0  0  0  0  0  0  0  0  0  0  0
   21.4470   17.4220   20.3505 H   0  0  0  0  0  0  0  0  0  0  0  0
   20.2112   17.0442   22.0839 C   0  0  0  0  0  0  0  0  0  0  0  0
   19.2655   16.7547   21.6069 H   0  0  0  0  0  0  0  0  0  0  0  0
   20.7950   16.1186   22.1750 H   0  0  0  0  0  0  0  0  0  0  0  0
   19.9455   17.5795   23.5167 C   0  0  0  0  0  0  0  0  0  0  0  0
   20.8985   17.7431   24.0387 H   0  0  0  0  0  0  0  0  0  0  0  0
   19.4378   16.7817   24.0763 H   0  0  0  0  0  0  0  0  0  0  0  0
   19.0674   18.8546   23.5960 C   0  0  0  0  0  0  0  0  0  0  0  0
   18.3759   18.8925   22.7438 H   0  0  0  0  0  0  0  0  0  0  0  0
   18.4314   18.7852   24.4895 H   0  0  0  0  0  0  0  0  0  0  0  0
   19.8949   20.1589   23.7023 C   0  0  0  0  0  0  0  0  0  0  0  0
   20.6528   20.2118   22.9117 H   0  0  0  0  0  0  0  0  0  0  0  0
   20.4480   20.1603   24.6521 H   0  0  0  0  0  0  0  0  0  0  0  0
   18.9961   21.4118   23.6375 C   0  0  0  0  0  0  0  0  0  0  0  0
   18.4508   21.4624   22.6862 H   0  0  0  0  0  0  0  0  0  0  0  0
   19.5978   22.3254   23.7295 H   0  0  0  0  0  0  0  0  0  0  0  0
   18.2603   21.4110   24.4523 H   0  0  0  0  0  0  0  0  0  0  0  0
  1  2  1  0  0  0  0
  1  3  1  0  0  0  0
  1  4  1  0  0  0  0
  1  5  1  0  0  0  0
  5  6  1  0  0  0  0
  5  7  1  0  0  0  0
  5  8  1  0  0  0  0
  8  9  1  0  0  0  0
  8 10  1  0  0  0  0
  8 11  1  0  0  0  0
 11 12  1  0  0  0  0
 11 13  1  0  0  0  0
 11 14  1  0  0  0  0
 14 15  1  0  0  0  0
 14 16  1  0  0  0  0
 14 17  1  0  0  0  0
 17 18  1  0  0  0  0
 17 19  1  0  0  0  0
 17 20  1  0  0  0  0
 20 21  1  0  0  0  0
 20 22  1  0  0  0  0
 20 23  1  0  0  0  0
M  END
> <VConfSearch Rank>
496

> <Conf_Id>
5

> <Delta U+W>
6.087

> <U+W>
-2.295

> <U>
52.836

> <W>
-55.131

> <W(PB)>
-57.202

> <W(SA)>
2.071

> <Valence>
5.785

> <Coulomb>
46.744

> <VdW>
0.307

> <VdW6>
-7.672

> <VdW12>
7.980

> <Bond>
0.217

> <Angle>
1.470

> <Pdih>
4.098

> <Idih>
0.000

> <Tether>
0.000

$$$$
VeraChem MOL file


 23 22  0  0  0  0  0  0  0  0999 V2000     
   22.5763   18.9631   19.9778 N   0  3  0  0  0  0  0  0  0  0  0  0
   22.3398   19.8600   19.5413 H   0  0  0  0  0  0  0  0  0  0  0  0
   22.9465   18.3592   19.2359 H   0  0  0  0  0  0  0  0  0  0  0  0
   23.3469   19.1392   20.6305 H   0  0  0  0  0  0  0  0  0  0  0  0
   21.3815   18.3378   20.6686 C   0  0  0  0  0  0  0  0  0  0  0  0
   21.6965   17.3764   21.0834 H   0  0  0  0  0  0  0  0  0  0  0  0
   20.6140   18.1510   19.9126 H   0  0  0  0  0  0  0  0  0  0  0  0
   20.8016   19.2200   21.7885 C   0  0  0  0  0  0  0  0  0  0  0  0
   21.5803   19.4183   22.5371 H   0  0  0  0  0  0  0  0  0  0  0  0
   20.5018   20.1903   21.3704 H   0  0  0  0  0  0  0  0  0  0  0  0
   19.5872   18.5479   22.4663 C   0  0  0  0  0  0  0  0  0  0  0  0
   19.8900   17.5751   22.8786 H   0  0  0  0  0  0  0  0  0  0  0  0
   18.8126   18.3464   21.7132 H   0  0  0  0  0  0  0  0  0  0  0  0
   18.9966   19.4256   23.5932 C   0  0  0  0  0  0  0  0  0  0  0  0
   19.7710   19.6271   24.3464 H   0  0  0  0  0  0  0  0  0  0  0  0
   18.6938   20.3983   23.1811 H   0  0  0  0  0  0  0  0  0  0  0  0
   17.7820   18.7531   24.2708 C   0  0  0  0  0  0  0  0  0  0  0  0
   18.0804   17.7806   24.6869 H   0  0  0  0  0  0  0  0  0  0  0  0
   17.0034   18.5518   23.5217 H   0  0  0  0  0  0  0  0  0  0  0  0
   17.1950   19.6325   25.3954 C   0  0  0  0  0  0  0  0  0  0  0  0
   16.3341   19.1386   25.8644 H   0  0  0  0  0  0  0  0  0  0  0  0
   16.8558   20.6003   25.0035 H   0  0  0  0  0  0  0  0  0  0  0  0
   17.9412   19.8231   26.1777 H   0  0  0  0  0  0  0  0  0  0  0  0
  1  2  1  0  0  0  0
  1  3  1  0  0  0  0
  1  4  1  0  0  0  0
  1  5  1  0  0  0  0
  5  6  1  0  0  0  0
  5  7  1  0  0  0  0
  5  8  1  0  0  0  0
  8  9  1  0  0  0  0
  8 10  1  0  0  0  0
  8 11  1  0  0  0  0
 11 12  1  0  0  0  0
 11 13  1  0  0  0  0
 11 14  1  0  0  0  0
 14 15  1  0  0  0  0
 14 16  1  0  0  0  0
 14 17  1  0  0  0  0
 17 18  1  0  0  0  0
 17 19  1  0  0  0  0
 17 20  1  0  0  0  0
 20 21  1  0  0  0  0
 20 22  1  0  0  0  0
 20 23  1  0  0  0  0
M  END
> <VConfSearch Rank>
497

> <Conf_Id>
40

> <Delta U+W>
0.000

> <U+W>
-8.382

> <U>
46.604

> <W>
-54.986

> <W(PB)>
-57.162

> <W(SA)>
2.176

> <Valence>
1.727

> <Coulomb>
44.434

> <VdW>
0.443

> <VdW6>
-4.623

> <VdW12>
5.066

> <Bond>
0.112

> <Angle>
0.386

> <Pdih>
1.228

> <Idih>
0.000

> <Tether>
0.000

$$$$
VeraChem MOL file


 23 22  0  0  0  0  0  0  0  0999 V2000     
   17.4953   17.0434   24.5400 N   0  3  0  0  0  0  0  0  0  0  0  0
   17.3684   16.1227   24.1075 H   0  0  0  0  0  0  0  0  0  0  0  0
   16.6516   17.5898   24.3389 H   0  0  0  0  0  0  0  0  0  0  0  0
   17.5196   16.8950   25.5546 H   0  0  0  0  0  0  0  0  0  0  0  0
   18.7484   17.7342   24.0417 C   0  0  0  0  0  0  0  0  0  0  0  0
   19.6066   17.1138   24.3137 H   0  0  0  0  0  0  0  0  0  0  0  0
   18.8346   18.6896   24.5654 H   0  0  0  0  0  0  0  0  0  0  0  0
   18.7421   17.9711   22.5196 C   0  0  0  0  0  0  0  0  0  0  0  0
   18.6072   17.0085   22.0087 H   0  0  0  0  0  0  0  0  0  0  0  0
   17.8810   18.5953   22.2460 H   0  0  0  0  0  0  0  0  0  0  0  0
   20.0453   18.6304   22.0091 C   0  0  0  0  0  0  0  0  0  0  0  0
   20.0086   18.6592   20.9124 H   0  0  0  0  0  0  0  0  0  0  0  0
   20.9041   17.9990   22.2758 H   0  0  0  0  0  0  0  0  0  0  0  0
   20.2580   20.0636   22.5599 C   0  0  0  0  0  0  0  0  0  0  0  0
   19.4088   20.6999   22.2751 H   0  0  0  0  0  0  0  0  0  0  0  0
   20.2699   20.0374   23.6575 H   0  0  0  0  0  0  0  0  0  0  0  0
   21.5764   20.7182   22.0805 C   0  0  0  0  0  0  0  0  0  0  0  0
   22.4305   20.0911   22.3720 H   0  0  0  0  0  0  0  0  0  0  0  0
   21.7052   21.6752   22.6055 H   0  0  0  0  0  0  0  0  0  0  0  0
   21.6178   20.9786   20.5574 C   0  0  0  0  0  0  0  0  0  0  0  0
   21.6194   20.0415   19.9872 H   0  0  0  0  0  0  0  0  0  0  0  0
   22.5277   21.5297   20.2869 H   0  0  0  0  0  0  0  0  0  0  0  0
   20.7554   21.5766   20.2353 H   0  0  0  0  0  0  0  0  0  0  0  0
  1  2  1  0  0  0  0
  1  3  1  0  0  0  0
  1  4  1  0  0  0  0
  1  5  1  0  0  0  0
  5  6  1  0  0  0  0
  5  7  1  0  0  0  0
  5  8  1  0  0  0  0
  8  9  1  0  0  0  0
  8 10  1  0  0  0  0
  8 11  1  0  0  0  0
 11 12  1  0  0  0  0
 11 13  1  0  0  0  0
 11 14  1  0  0  0  0
 14 15  1  0  0  0  0
 14 16  1  0  0  0  0
 14 17  1  0  0  0  0
 17 18  1  0  0  0  0
 17 19  1  0  0  0  0
 17 20  1  0  0  0  0
 20 21  1  0  0  0  0
 20 22  1  0  0  0  0
 20 23  1  0  0  0  0
M  END
> <VConfSearch Rank>
498

> <Conf_Id>
65

> <Delta U+W>
1.004

> <U+W>
-7.378

> <U>
48.047

> <W>
-55.425

> <W(PB)>
-57.542

> <W(SA)>
2.116

> <Valence>
2.583

> <Coulomb>
44.791

> <VdW>
0.673

> <VdW6>
-5.788

> <VdW12>
6.462

> <Bond>
0.177

> <Angle>
0.787

> <Pdih>
1.619

> <Idih>
0.000

> <Tether>
0.000

$$$$
VeraChem MOL file


 23 22  0  0  0  0  0  0  0  0999 V2000     
   23.3020   18.6223   22.9603 N   0  3  0  0  0  0  0  0  0  0  0  0
   23.5420   18.4081   23.9337 H   0  0  0  0  0  0  0  0  0  0  0  0
   24.0291   19.2531   22.6062 H   0  0  0  0  0  0  0  0  0  0  0  0
   23.3820   17.7482   22.4308 H   0  0  0  0  0  0  0  0  0  0  0  0
   21.9202   19.2321   22.8398 C   0  0  0  0  0  0  0  0  0  0  0  0
   21.7464   19.4614   21.7854 H   0  0  0  0  0  0  0  0  0  0  0  0
   21.9149   20.1700   23.4016 H   0  0  0  0  0  0  0  0  0  0  0  0
   20.8050   18.3077   23.3643 C   0  0  0  0  0  0  0  0  0  0  0  0
   20.8090   17.3659   22.7995 H   0  0  0  0  0  0  0  0  0  0  0  0
   21.0185   18.0479   24.4097 H   0  0  0  0  0  0  0  0  0  0  0  0
   19.4020   18.9552   23.2859 C   0  0  0  0  0  0  0  0  0  0  0  0
   19.3984   19.8921   23.8600 H   0  0  0  0  0  0  0  0  0  0  0  0
   18.6866   18.2848   23.7795 H   0  0  0  0  0  0  0  0  0  0  0  0
   18.9394   19.2299   21.8323 C   0  0  0  0  0  0  0  0  0  0  0  0
   19.6683   19.8806   21.3315 H   0  0  0  0  0  0  0  0  0  0  0  0
   18.9233   18.2894   21.2645 H   0  0  0  0  0  0  0  0  0  0  0  0
   17.5505   19.9082   21.7458 C   0  0  0  0  0  0  0  0  0  0  0  0
   17.3527   20.1722   20.6975 H   0  0  0  0  0  0  0  0  0  0  0  0
   17.5637   20.8551   22.3034 H   0  0  0  0  0  0  0  0  0  0  0  0
   16.3960   19.0178   22.2594 C   0  0  0  0  0  0  0  0  0  0  0  0
   16.4799   18.8288   23.3367 H   0  0  0  0  0  0  0  0  0  0  0  0
   16.3817   18.0509   21.7400 H   0  0  0  0  0  0  0  0  0  0  0  0
   15.4283   19.5061   22.0856 H   0  0  0  0  0  0  0  0  0  0  0  0
  1  2  1  0  0  0  0
  1  3  1  0  0  0  0
  1  4  1  0  0  0  0
  1  5  1  0  0  0  0
  5  6  1  0  0  0  0
  5  7  1  0  0  0  0
  5  8  1  0  0  0  0
  8  9  1  0  0  0  0
  8 10  1  0  0  0  0
  8 11  1  0  0  0  0
 11 12  1  0  0  0  0
 11 13  1  0  0  0  0
 11 14  1  0  0  0  0
 14 15  1  0  0  0  0
 14 16  1  0  0  0  0
 14 17  1  0  0  0  0
 17 18  1  0  0  0  0
 17 19  1  0  0  0  0
 17 20  1  0  0  0  0
 20 21  1  0  0  0  0
 20 22  1  0  0  0  0
 20 23  1  0  0  0  0
M  END
> <VConfSearch Rank>
499

> <Conf_Id>
92

> <Delta U+W>
0.973

> <U+W>
-7.409

> <U>
48.047

> <W>
-55.456

> <W(PB)>
-57.595

> <W(SA)>
2.138

> <Valence>
2.583

> <Coulomb>
44.791

> <VdW>
0.674

> <VdW6>
-5.789

> <VdW12>
6.462

> <Bond>
0.177

> <Angle>
0.787

> <Pdih>
1.619

> <Idih>
0.000

> <Tether>
0.000

$$$$
VeraChem MOL file


 23 22  0  0  0  0  0  0  0  0999 V2000     
   18.1620   16.2109   24.1392 N   0  3  0  0  0  0  0  0  0  0  0  0
   17.2656   16.3160   24.6264 H   0  0  0  0  0  0  0  0  0  0  0  0
   18.7540   15.6178   24.7297 H   0  0  0  0  0  0  0  0  0  0  0  0
   17.9736   15.6868   23.2785 H   0  0  0  0  0  0  0  0  0  0  0  0
   18.8091   17.5511   23.8550 C   0  0  0  0  0  0  0  0  0  0  0  0
   18.9542   18.0650   24.8092 H   0  0  0  0  0  0  0  0  0  0  0  0
   18.1129   18.1379   23.2504 H   0  0  0  0  0  0  0  0  0  0  0  0
   20.1588   17.4265   23.1232 C   0  0  0  0  0  0  0  0  0  0  0  0
   20.8336   16.7983   23.7198 H   0  0  0  0  0  0  0  0  0  0  0  0
   20.0131   16.9097   22.1653 H   0  0  0  0  0  0  0  0  0  0  0  0
   20.8346   18.7962   22.8775 C   0  0  0  0  0  0  0  0  0  0  0  0
   21.8277   18.6253   22.4393 H   0  0  0  0  0  0  0  0  0  0  0  0
   21.0024   19.2998   23.8397 H   0  0  0  0  0  0  0  0  0  0  0  0
   20.0173   19.7182   21.9409 C   0  0  0  0  0  0  0  0  0  0  0  0
   19.8230   19.1989   20.9922 H   0  0  0  0  0  0  0  0  0  0  0  0
   19.0393   19.9377   22.3896 H   0  0  0  0  0  0  0  0  0  0  0  0
   20.7537   21.0466   21.6579 C   0  0  0  0  0  0  0  0  0  0  0  0
   21.7313   20.8393   21.2004 H   0  0  0  0  0  0  0  0  0  0  0  0
   20.9512   21.5701   22.6039 H   0  0  0  0  0  0  0  0  0  0  0  0
   19.9371   21.9659   20.7248 C   0  0  0  0  0  0  0  0  0  0  0  0
   19.7522   21.4821   19.7569 H   0  0  0  0  0  0  0  0  0  0  0  0
   20.4761   22.9032   20.5354 H   0  0  0  0  0  0  0  0  0  0  0  0
   18.9666   22.2198   21.1710 H   0  0  0  0  0  0  0  0  0  0  0  0
  1  2  1  0  0  0  0
  1  3  1  0  0  0  0
  1  4  1  0  0  0  0
  1  5  1  0  0  0  0
  5  6  1  0  0  0  0
  5  7  1  0  0  0  0
  5  8  1  0  0  0  0
  8  9  1  0  0  0  0
  8 10  1  0  0  0  0
  8 11  1  0  0  0  0
 11 12  1  0  0  0  0
 11 13  1  0  0  0  0
 11 14  1  0  0  0  0
 14 15  1  0  0  0  0
 14 16  1  0  0  0  0
 14 17  1  0  0  0  0
 17 18  1  0  0  0  0
 17 19  1  0  0  0  0
 17 20  1  0  0  0  0
 20 21  1  0  0  0  0
 20 22  1  0  0  0  0
 20 23  1  0  0  0  0
M  END
> <VConfSearch Rank>
500

> <Conf_Id>
42

> <Delta U+W>
0.365

> <U+W>
-8.017

> <U>
47.375

> <W>
-55.392

> <W(PB)>
-57.543

> <W(SA)>
2.152

> <Valence>
2.032

> <Coulomb>
44.843

> <VdW>
0.499

> <VdW6>
-5.218

> <VdW12>
5.717

> <Bond>
0.135

> <Angle>
0.514

> <Pdih>
1.383

> <Idih>
0.000

> <Tether>
0.000

$$$$
VeraChem MOL file


 23 22  0  0  0  0  0  0  0  0999 V2000     
   19.5255   22.0383   23.4707 N   0  3  0  0  0  0  0  0  0  0  0  0
   20.5137   22.2285   23.2755 H   0  0  0  0  0  0  0  0  0  0  0  0
   19.1819   22.8102   24.0521 H   0  0  0  0  0  0  0  0  0  0  0  0
   19.0251   22.0905   22.5783 H   0  0  0  0  0  0  0  0  0  0  0  0
   19.3329   20.6952   24.1477 C   0  0  0  0  0  0  0  0  0  0  0  0
   18.2660   20.5653   24.3486 H   0  0  0  0  0  0  0  0  0  0  0  0
   19.8578   20.7306   25.1062 H   0  0  0  0  0  0  0  0  0  0  0  0
   19.8553   19.5013   23.3248 C   0  0  0  0  0  0  0  0  0  0  0  0
   20.9202   19.6474   23.1008 H   0  0  0  0  0  0  0  0  0  0  0  0
   19.7799   18.6041   23.9512 H   0  0  0  0  0  0  0  0  0  0  0  0
   19.0591   19.2829   22.0152 C   0  0  0  0  0  0  0  0  0  0  0  0
   19.0468   20.2151   21.4353 H   0  0  0  0  0  0  0  0  0  0  0  0
   18.0109   19.0613   22.2593 H   0  0  0  0  0  0  0  0  0  0  0  0
   19.6230   18.1624   21.1034 C   0  0  0  0  0  0  0  0  0  0  0  0
   19.0057   18.1344   20.1948 H   0  0  0  0  0  0  0  0  0  0  0  0
   20.6347   18.4247   20.7644 H   0  0  0  0  0  0  0  0  0  0  0  0
   19.6188   16.7450   21.7323 C   0  0  0  0  0  0  0  0  0  0  0  0
   19.3954   16.0128   20.9436 H   0  0  0  0  0  0  0  0  0  0  0  0
   18.8060   16.6547   22.4664 H   0  0  0  0  0  0  0  0  0  0  0  0
   20.9705   16.3546   22.3748 C   0  0  0  0  0  0  0  0  0  0  0  0
   21.7765   16.3688   21.6297 H   0  0  0  0  0  0  0  0  0  0  0  0
   20.9193   15.3397   22.7898 H   0  0  0  0  0  0  0  0  0  0  0  0
   21.2522   17.0320   23.1883 H   0  0  0  0  0  0  0  0  0  0  0  0
  1  2  1  0  0  0  0
  1  3  1  0  0  0  0
  1  4  1  0  0  0  0
  1  5  1  0  0  0  0
  5  6  1  0  0  0  0
  5  7  1  0  0  0  0
  5  8  1  0  0  0  0
  8  9  1  0  0  0  0
  8 10  1  0  0  0  0
  8 11  1  0  0  0  0
 11 12  1  0  0  0  0
 11 13  1  0  0  0  0
 11 14  1  0  0  0  0
 14 15  1  0  0  0  0
 14 16  1  0  0  0  0
 14 17  1  0  0  0  0
 17 18  1  0  0  0  0
 17 19  1  0  0  0  0
 17 20  1  0  0  0  0
 20 21  1  0  0  0  0
 20 22  1  0  0  0  0
 20 23  1  0  0  0  0
M  END
> <VConfSearch Rank>
501

> <Conf_Id>
3

> <Delta U+W>
3.283

> <U+W>
-5.099

> <U>
50.701

> <W>
-55.800

> <W(PB)>
-57.867

> <W(SA)>
2.067

> <Valence>
4.880

> <Coulomb>
45.095

> <VdW>
0.726

> <VdW6>
-6.620

> <VdW12>
7.346

> <Bond>
0.222

> <Angle>
1.260

> <Pdih>
3.398

> <Idih>
0.000

> <Tether>
0.000

$$$$
VeraChem MOL file


 23 22  0  0  0  0  0  0  0  0999 V2000     
   21.2992   20.4876   24.6245 N   0  3  0  0  0  0  0  0  0  0  0  0
   20.8651   20.4507   25.5522 H   0  0  0  0  0  0  0  0  0  0  0  0
   22.1810   21.0012   24.7269 H   0  0  0  0  0  0  0  0  0  0  0  0
   21.5395   19.5265   24.3634 H   0  0  0  0  0  0  0  0  0  0  0  0
   20.3864   21.1338   23.6009 C   0  0  0  0  0  0  0  0  0  0  0  0
   20.9183   21.1696   22.6468 H   0  0  0  0  0  0  0  0  0  0  0  0
   20.2006   22.1619   23.9232 H   0  0  0  0  0  0  0  0  0  0  0  0
   19.0398   20.4031   23.4221 C   0  0  0  0  0  0  0  0  0  0  0  0
   18.4944   20.4200   24.3749 H   0  0  0  0  0  0  0  0  0  0  0  0
   18.4250   20.9672   22.7082 H   0  0  0  0  0  0  0  0  0  0  0  0
   19.1721   18.9378   22.9351 C   0  0  0  0  0  0  0  0  0  0  0  0
   18.1648   18.5050   22.8827 H   0  0  0  0  0  0  0  0  0  0  0  0
   19.7212   18.3447   23.6785 H   0  0  0  0  0  0  0  0  0  0  0  0
   19.8615   18.8143   21.5524 C   0  0  0  0  0  0  0  0  0  0  0  0
   19.2953   19.3858   20.8041 H   0  0  0  0  0  0  0  0  0  0  0  0
   20.8600   19.2687   21.5972 H   0  0  0  0  0  0  0  0  0  0  0  0
   20.0210   17.3514   21.0720 C   0  0  0  0  0  0  0  0  0  0  0  0
   20.5962   16.7773   21.8118 H   0  0  0  0  0  0  0  0  0  0  0  0
   20.6178   17.3475   20.1492 H   0  0  0  0  0  0  0  0  0  0  0  0
   18.6754   16.6427   20.7954 C   0  0  0  0  0  0  0  0  0  0  0  0
   18.0668   17.2147   20.0831 H   0  0  0  0  0  0  0  0  0  0  0  0
   18.0933   16.5076   21.7152 H   0  0  0  0  0  0  0  0  0  0  0  0
   18.8472   15.6472   20.3658 H   0  0  0  0  0  0  0  0  0  0  0  0
  1  2  1  0  0  0  0
  1  3  1  0  0  0  0
  1  4  1  0  0  0  0
  1  5  1  0  0  0  0
  5  6  1  0  0  0  0
  5  7  1  0  0  0  0
  5  8  1  0  0  0  0
  8  9  1  0  0  0  0
  8 10  1  0  0  0  0
  8 11  1  0  0  0  0
 11 12  1  0  0  0  0
 11 13  1  0  0  0  0
 11 14  1  0  0  0  0
 14 15  1  0  0  0  0
 14 16  1  0  0  0  0
 14 17  1  0  0  0  0
 17 18  1  0  0  0  0
 17 19  1  0  0  0  0
 17 20  1  0  0  0  0
 20 21  1  0  0  0  0
 20 22  1  0  0  0  0
 20 23  1  0  0  0  0
M  END
> <VConfSearch Rank>
502

> <Conf_Id>
83

> <Delta U+W>
1.229

> <U+W>
-7.154

> <U>
48.727

> <W>
-55.880

> <W(PB)>
-57.960

> <W(SA)>
2.080

> <Valence>
2.671

> <Coulomb>
45.371

> <VdW>
0.684

> <VdW6>
-6.511

> <VdW12>
7.195

> <Bond>
0.203

> <Angle>
0.915

> <Pdih>
1.554

> <Idih>
0.000

> <Tether>
0.000

$$$$
VeraChem MOL file


 23 22  0  0  0  0  0  0  0  0999 V2000     
   19.7183   19.3663   19.6903 N   0  3  0  0  0  0  0  0  0  0  0  0
   18.7794   19.3853   19.2794 H   0  0  0  0  0  0  0  0  0  0  0  0
   19.8443   18.4431   20.1164 H   0  0  0  0  0  0  0  0  0  0  0  0
   20.3858   19.4336   18.9147 H   0  0  0  0  0  0  0  0  0  0  0  0
   19.9135   20.4799   20.7002 C   0  0  0  0  0  0  0  0  0  0  0  0
   19.7997   21.4309   20.1728 H   0  0  0  0  0  0  0  0  0  0  0  0
   20.9385   20.4220   21.0750 H   0  0  0  0  0  0  0  0  0  0  0  0
   18.9213   20.4282   21.8801 C   0  0  0  0  0  0  0  0  0  0  0  0
   19.0988   21.2969   22.5280 H   0  0  0  0  0  0  0  0  0  0  0  0
   17.8996   20.5394   21.4934 H   0  0  0  0  0  0  0  0  0  0  0  0
   19.0089   19.1334   22.7272 C   0  0  0  0  0  0  0  0  0  0  0  0
   18.7586   18.2628   22.1066 H   0  0  0  0  0  0  0  0  0  0  0  0
   18.2377   19.1846   23.5067 H   0  0  0  0  0  0  0  0  0  0  0  0
   20.3972   18.9273   23.3847 C   0  0  0  0  0  0  0  0  0  0  0  0
   21.1721   18.9003   22.6074 H   0  0  0  0  0  0  0  0  0  0  0  0
   20.6338   19.7866   24.0272 H   0  0  0  0  0  0  0  0  0  0  0  0
   20.5000   17.6220   24.2106 C   0  0  0  0  0  0  0  0  0  0  0  0
   21.5406   17.4960   24.5411 H   0  0  0  0  0  0  0  0  0  0  0  0
   20.2748   16.7577   23.5703 H   0  0  0  0  0  0  0  0  0  0  0  0
   19.5796   17.6034   25.4523 C   0  0  0  0  0  0  0  0  0  0  0  0
   19.7624   18.4761   26.0926 H   0  0  0  0  0  0  0  0  0  0  0  0
   19.7631   16.7029   26.0526 H   0  0  0  0  0  0  0  0  0  0  0  0
   18.5197   17.5996   25.1697 H   0  0  0  0  0  0  0  0  0  0  0  0
  1  2  1  0  0  0  0
  1  3  1  0  0  0  0
  1  4  1  0  0  0  0
  1  5  1  0  0  0  0
  5  6  1  0  0  0  0
  5  7  1  0  0  0  0
  5  8  1  0  0  0  0
  8  9  1  0  0  0  0
  8 10  1  0  0  0  0
  8 11  1  0  0  0  0
 11 12  1  0  0  0  0
 11 13  1  0  0  0  0
 11 14  1  0  0  0  0
 14 15  1  0  0  0  0
 14 16  1  0  0  0  0
 14 17  1  0  0  0  0
 17 18  1  0  0  0  0
 17 19  1  0  0  0  0
 17 20  1  0  0  0  0
 20 21  1  0  0  0  0
 20 22  1  0  0  0  0
 20 23  1  0  0  0  0
M  END
> <VConfSearch Rank>
503

> <Conf_Id>
50

> <Delta U+W>
1.252

> <U+W>
-7.130

> <U>
48.727

> <W>
-55.857

> <W(PB)>
-57.937

> <W(SA)>
2.080

> <Valence>
2.671

> <Coulomb>
45.371

> <VdW>
0.684

> <VdW6>
-6.511

> <VdW12>
7.196

> <Bond>
0.203

> <Angle>
0.915

> <Pdih>
1.554

> <Idih>
0.000

> <Tether>
0.000

$$$$
VeraChem MOL file


 23 22  0  0  0  0  0  0  0  0999 V2000     
   17.9156   20.4175   20.4591 N   0  3  0  0  0  0  0  0  0  0  0  0
   17.9904   19.4556   20.1145 H   0  0  0  0  0  0  0  0  0  0  0  0
   17.8591   21.0269   19.6361 H   0  0  0  0  0  0  0  0  0  0  0  0
   17.0191   20.4948   20.9501 H   0  0  0  0  0  0  0  0  0  0  0  0
   19.0824   20.7871   21.3541 C   0  0  0  0  0  0  0  0  0  0  0  0
   18.9563   21.8328   21.6479 H   0  0  0  0  0  0  0  0  0  0  0  0
   20.0003   20.7072   20.7655 H   0  0  0  0  0  0  0  0  0  0  0  0
   19.1993   19.9125   22.6176 C   0  0  0  0  0  0  0  0  0  0  0  0
   19.9961   20.3244   23.2469 H   0  0  0  0  0  0  0  0  0  0  0  0
   18.2734   19.9920   23.2025 H   0  0  0  0  0  0  0  0  0  0  0  0
   19.4888   18.4255   22.2897 C   0  0  0  0  0  0  0  0  0  0  0  0
   20.3600   18.3428   21.6252 H   0  0  0  0  0  0  0  0  0  0  0  0
   18.6371   18.0202   21.7272 H   0  0  0  0  0  0  0  0  0  0  0  0
   19.6972   17.5467   23.5509 C   0  0  0  0  0  0  0  0  0  0  0  0
   19.1248   17.9513   24.3969 H   0  0  0  0  0  0  0  0  0  0  0  0
   19.2684   16.5548   23.3516 H   0  0  0  0  0  0  0  0  0  0  0  0
   21.1783   17.3399   23.9593 C   0  0  0  0  0  0  0  0  0  0  0  0
   21.7192   16.8413   23.1429 H   0  0  0  0  0  0  0  0  0  0  0  0
   21.2111   16.6480   24.8125 H   0  0  0  0  0  0  0  0  0  0  0  0
   21.9195   18.6383   24.3465 C   0  0  0  0  0  0  0  0  0  0  0  0
   21.3724   19.1910   25.1211 H   0  0  0  0  0  0  0  0  0  0  0  0
   22.0552   19.2941   23.4777 H   0  0  0  0  0  0  0  0  0  0  0  0
   22.9174   18.4069   24.7409 H   0  0  0  0  0  0  0  0  0  0  0  0
  1  2  1  0  0  0  0
  1  3  1  0  0  0  0
  1  4  1  0  0  0  0
  1  5  1  0  0  0  0
  5  6  1  0  0  0  0
  5  7  1  0  0  0  0
  5  8  1  0  0  0  0
  8  9  1  0  0  0  0
  8 10  1  0  0  0  0
  8 11  1  0  0  0  0
 11 12  1  0  0  0  0
 11 13  1  0  0  0  0
 11 14  1  0  0  0  0
 14 15  1  0  0  0  0
 14 16  1  0  0  0  0
 14 17  1  0  0  0  0
 17 18  1  0  0  0  0
 17 19  1  0  0  0  0
 17 20  1  0  0  0  0
 20 21  1  0  0  0  0
 20 22  1  0  0  0  0
 20 23  1  0  0  0  0
M  END
> <VConfSearch Rank>
504

> <Conf_Id>
55

> <Delta U+W>
3.232

> <U+W>
-5.150

> <U>
50.625

> <W>
-55.776

> <W(PB)>
-57.839

> <W(SA)>
2.064

> <Valence>
4.837

> <Coulomb>
45.097

> <VdW>
0.692

> <VdW6>
-6.655

> <VdW12>
7.347

> <Bond>
0.223

> <Angle>
1.167

> <Pdih>
3.447

> <Idih>
0.000

> <Tether>
0.000

$$$$
VeraChem MOL file


 23 22  0  0  0  0  0  0  0  0999 V2000     
   18.2903   17.5168   24.8706 N   0  3  0  0  0  0  0  0  0  0  0  0
   18.0693   16.5176   24.8103 H   0  0  0  0  0  0  0  0  0  0  0  0
   17.5055   17.9665   25.3542 H   0  0  0  0  0  0  0  0  0  0  0  0
   19.1085   17.6081   25.4813 H   0  0  0  0  0  0  0  0  0  0  0  0
   18.5332   18.1251   23.5044 C   0  0  0  0  0  0  0  0  0  0  0  0
   18.7251   19.1906   23.6433 H   0  0  0  0  0  0  0  0  0  0  0  0
   17.6150   18.0177   22.9207 H   0  0  0  0  0  0  0  0  0  0  0  0
   19.7037   17.4641   22.7501 C   0  0  0  0  0  0  0  0  0  0  0  0
   20.6243   17.5233   23.3457 H   0  0  0  0  0  0  0  0  0  0  0  0
   19.4757   16.3958   22.6372 H   0  0  0  0  0  0  0  0  0  0  0  0
   19.9395   18.0689   21.3430 C   0  0  0  0  0  0  0  0  0  0  0  0
   18.9771   18.3162   20.8735 H   0  0  0  0  0  0  0  0  0  0  0  0
   20.3884   17.2923   20.7084 H   0  0  0  0  0  0  0  0  0  0  0  0
   20.8811   19.3009   21.3096 C   0  0  0  0  0  0  0  0  0  0  0  0
   21.8730   19.0137   21.6850 H   0  0  0  0  0  0  0  0  0  0  0  0
   21.0257   19.5918   20.2599 H   0  0  0  0  0  0  0  0  0  0  0  0
   20.3680   20.5254   22.1020 C   0  0  0  0  0  0  0  0  0  0  0  0
   20.3664   20.3015   23.1766 H   0  0  0  0  0  0  0  0  0  0  0  0
   19.3316   20.7500   21.8137 H   0  0  0  0  0  0  0  0  0  0  0  0
   21.2480   21.7701   21.8590 C   0  0  0  0  0  0  0  0  0  0  0  0
   21.2469   22.0543   20.7986 H   0  0  0  0  0  0  0  0  0  0  0  0
   22.2867   21.5842   22.1621 H   0  0  0  0  0  0  0  0  0  0  0  0
   20.8765   22.6262   22.4369 H   0  0  0  0  0  0  0  0  0  0  0  0
  1  2  1  0  0  0  0
  1  3  1  0  0  0  0
  1  4  1  0  0  0  0
  1  5  1  0  0  0  0
  5  6  1  0  0  0  0
  5  7  1  0  0  0  0
  5  8  1  0  0  0  0
  8  9  1  0  0  0  0
  8 10  1  0  0  0  0
  8 11  1  0  0  0  0
 11 12  1  0  0  0  0
 11 13  1  0  0  0  0
 11 14  1  0  0  0  0
 14 15  1  0  0  0  0
 14 16  1  0  0  0  0
 14 17  1  0  0  0  0
 17 18  1  0  0  0  0
 17 19  1  0  0  0  0
 17 20  1  0  0  0  0
 20 21  1  0  0  0  0
 20 22  1  0  0  0  0
 20 23  1  0  0  0  0
M  END
> <VConfSearch Rank>
505

> <Conf_Id>
93

> <Delta U+W>
2.589

> <U+W>
-5.793

> <U>
50.122

> <W>
-55.915

> <W(PB)>
-58.031

> <W(SA)>
2.115

> <Valence>
4.132

> <Coulomb>
45.536

> <VdW>
0.454

> <VdW6>
-6.262

> <VdW12>
6.715

> <Bond>
0.182

> <Angle>
1.157

> <Pdih>
2.794

> <Idih>
0.000

> <Tether>
0.000

$$$$
VeraChem MOL file


 23 22  0  0  0  0  0  0  0  0999 V2000     
   22.4181   19.3772   24.1201 N   0  3  0  0  0  0  0  0  0  0  0  0
   21.9209   19.9048   24.8448 H   0  0  0  0  0  0  0  0  0  0  0  0
   23.1417   19.9982   23.7425 H   0  0  0  0  0  0  0  0  0  0  0  0
   22.9034   18.6054   24.5888 H   0  0  0  0  0  0  0  0  0  0  0  0
   21.4808   18.8812   23.0379 C   0  0  0  0  0  0  0  0  0  0  0  0
   22.0800   18.3559   22.2893 H   0  0  0  0  0  0  0  0  0  0  0  0
   21.0301   19.7537   22.5616 H   0  0  0  0  0  0  0  0  0  0  0  0
   20.3856   17.9389   23.5750 C   0  0  0  0  0  0  0  0  0  0  0  0
   20.8785   17.0805   24.0507 H   0  0  0  0  0  0  0  0  0  0  0  0
   19.8043   18.4377   24.3619 H   0  0  0  0  0  0  0  0  0  0  0  0
   19.4396   17.4116   22.4666 C   0  0  0  0  0  0  0  0  0  0  0  0
   19.0512   16.4344   22.7855 H   0  0  0  0  0  0  0  0  0  0  0  0
   20.0086   17.2188   21.5464 H   0  0  0  0  0  0  0  0  0  0  0  0
   18.2211   18.3206   22.1592 C   0  0  0  0  0  0  0  0  0  0  0  0
   17.5935   17.8104   21.4155 H   0  0  0  0  0  0  0  0  0  0  0  0
   17.6024   18.4208   23.0617 H   0  0  0  0  0  0  0  0  0  0  0  0
   18.5840   19.7265   21.6278 C   0  0  0  0  0  0  0  0  0  0  0  0
   19.2951   19.6392   20.7945 H   0  0  0  0  0  0  0  0  0  0  0  0
   19.0764   20.3089   22.4172 H   0  0  0  0  0  0  0  0  0  0  0  0
   17.3327   20.4965   21.1544 C   0  0  0  0  0  0  0  0  0  0  0  0
   17.6068   21.4954   20.7910 H   0  0  0  0  0  0  0  0  0  0  0  0
   16.6131   20.6219   21.9740 H   0  0  0  0  0  0  0  0  0  0  0  0
   16.8290   19.9671   20.3351 H   0  0  0  0  0  0  0  0  0  0  0  0
  1  2  1  0  0  0  0
  1  3  1  0  0  0  0
  1  4  1  0  0  0  0
  1  5  1  0  0  0  0
  5  6  1  0  0  0  0
  5  7  1  0  0  0  0
  5  8  1  0  0  0  0
  8  9  1  0  0  0  0
  8 10  1  0  0  0  0
  8 11  1  0  0  0  0
 11 12  1  0  0  0  0
 11 13  1  0  0  0  0
 11 14  1  0  0  0  0
 14 15  1  0  0  0  0
 14 16  1  0  0  0  0
 14 17  1  0  0  0  0
 17 18  1  0  0  0  0
 17 19  1  0  0  0  0
 17 20  1  0  0  0  0
 20 21  1  0  0  0  0
 20 22  1  0  0  0  0
 20 23  1  0  0  0  0
M  END
> <VConfSearch Rank>
506

> <Conf_Id>
70

> <Delta U+W>
2.599

> <U+W>
-5.783

> <U>
50.122

> <W>
-55.906

> <W(PB)>
-58.010

> <W(SA)>
2.105

> <Valence>
4.132

> <Coulomb>
45.536

> <VdW>
0.454

> <VdW6>
-6.262

> <VdW12>
6.715

> <Bond>
0.182

> <Angle>
1.157

> <Pdih>
2.794

> <Idih>
0.000

> <Tether>
0.000

$$$$
VeraChem MOL file


 23 22  0  0  0  0  0  0  0  0999 V2000     
   18.9216   21.1555   24.1924 N   0  3  0  0  0  0  0  0  0  0  0  0
   18.8201   21.1209   25.2118 H   0  0  0  0  0  0  0  0  0  0  0  0
   18.4565   22.0124   23.8742 H   0  0  0  0  0  0  0  0  0  0  0  0
   19.9203   21.2620   23.9910 H   0  0  0  0  0  0  0  0  0  0  0  0
   18.3454   19.9210   23.5274 C   0  0  0  0  0  0  0  0  0  0  0  0
   18.4544   20.0356   22.4458 H   0  0  0  0  0  0  0  0  0  0  0  0
   17.2774   19.8856   23.7592 H   0  0  0  0  0  0  0  0  0  0  0  0
   19.0120   18.6066   23.9811 C   0  0  0  0  0  0  0  0  0  0  0  0
   18.8663   18.4850   25.0627 H   0  0  0  0  0  0  0  0  0  0  0  0
   18.4881   17.7637   23.5126 H   0  0  0  0  0  0  0  0  0  0  0  0
   20.5273   18.5243   23.6585 C   0  0  0  0  0  0  0  0  0  0  0  0
   20.9047   17.5436   23.9795 H   0  0  0  0  0  0  0  0  0  0  0  0
   21.0674   19.2628   24.2660 H   0  0  0  0  0  0  0  0  0  0  0  0
   20.8901   18.7422   22.1666 C   0  0  0  0  0  0  0  0  0  0  0  0
   20.6044   19.7551   21.8532 H   0  0  0  0  0  0  0  0  0  0  0  0
   21.9830   18.6914   22.0652 H   0  0  0  0  0  0  0  0  0  0  0  0
   20.2492   17.7031   21.2167 C   0  0  0  0  0  0  0  0  0  0  0  0
   19.1545   17.7847   21.2490 H   0  0  0  0  0  0  0  0  0  0  0  0
   20.5032   16.6878   21.5518 H   0  0  0  0  0  0  0  0  0  0  0  0
   20.7228   17.8951   19.7602 C   0  0  0  0  0  0  0  0  0  0  0  0
   20.2569   17.1520   19.1000 H   0  0  0  0  0  0  0  0  0  0  0  0
   21.8117   17.7804   19.6804 H   0  0  0  0  0  0  0  0  0  0  0  0
   20.4556   18.8922   19.3867 H   0  0  0  0  0  0  0  0  0  0  0  0
  1  2  1  0  0  0  0
  1  3  1  0  0  0  0
  1  4  1  0  0  0  0
  1  5  1  0  0  0  0
  5  6  1  0  0  0  0
  5  7  1  0  0  0  0
  5  8  1  0  0  0  0
  8  9  1  0  0  0  0
  8 10  1  0  0  0  0
  8 11  1  0  0  0  0
 11 12  1  0  0  0  0
 11 13  1  0  0  0  0
 11 14  1  0  0  0  0
 14 15  1  0  0  0  0
 14 16  1  0  0  0  0
 14 17  1  0  0  0  0
 17 18  1  0  0  0  0
 17 19  1  0  0  0  0
 17 20  1  0  0  0  0
 20 21  1  0  0  0  0
 20 22  1  0  0  0  0
 20 23  1  0  0  0  0
M  END
> <VConfSearch Rank>
507

> <Conf_Id>
72

> <Delta U+W>
1.051

> <U+W>
-7.331

> <U>
48.590

> <W>
-55.922

> <W(PB)>
-58.012

> <W(SA)>
2.090

> <Valence>
2.601

> <Coulomb>
45.520

> <VdW>
0.469

> <VdW6>
-6.867

> <VdW12>
7.336

> <Bond>
0.205

> <Angle>
0.962

> <Pdih>
1.434

> <Idih>
0.000

> <Tether>
0.000

$$$$
VeraChem MOL file


 23 22  0  0  0  0  0  0  0  0999 V2000     
   21.5625   17.2082   20.7557 N   0  3  0  0  0  0  0  0  0  0  0  0
   21.3882   16.8535   19.8092 H   0  0  0  0  0  0  0  0  0  0  0  0
   22.1235   16.5001   21.2401 H   0  0  0  0  0  0  0  0  0  0  0  0
   22.1494   18.0428   20.6578 H   0  0  0  0  0  0  0  0  0  0  0  0
   20.2721   17.5069   21.4913 C   0  0  0  0  0  0  0  0  0  0  0  0
   19.6860   16.5849   21.5338 H   0  0  0  0  0  0  0  0  0  0  0  0
   19.7144   18.2427   20.9061 H   0  0  0  0  0  0  0  0  0  0  0  0
   20.4997   18.0421   22.9174 C   0  0  0  0  0  0  0  0  0  0  0  0
   21.0924   17.3122   23.4846 H   0  0  0  0  0  0  0  0  0  0  0  0
   21.0990   18.9605   22.8768 H   0  0  0  0  0  0  0  0  0  0  0  0
   19.1748   18.3070   23.6748 C   0  0  0  0  0  0  0  0  0  0  0  0
   19.4054   18.6637   24.6875 H   0  0  0  0  0  0  0  0  0  0  0  0
   18.6470   17.3529   23.8104 H   0  0  0  0  0  0  0  0  0  0  0  0
   18.2149   19.3087   22.9778 C   0  0  0  0  0  0  0  0  0  0  0  0
   17.8546   18.8736   22.0359 H   0  0  0  0  0  0  0  0  0  0  0  0
   17.3218   19.4329   23.6056 H   0  0  0  0  0  0  0  0  0  0  0  0
   18.8186   20.7061   22.6859 C   0  0  0  0  0  0  0  0  0  0  0  0
   18.0567   21.3187   22.1839 H   0  0  0  0  0  0  0  0  0  0  0  0
   19.6507   20.6193   21.9744 H   0  0  0  0  0  0  0  0  0  0  0  0
   19.2935   21.4462   23.9567 C   0  0  0  0  0  0  0  0  0  0  0  0
   18.4805   21.5339   24.6890 H   0  0  0  0  0  0  0  0  0  0  0  0
   19.6319   22.4602   23.7075 H   0  0  0  0  0  0  0  0  0  0  0  0
   20.1325   20.9261   24.4354 H   0  0  0  0  0  0  0  0  0  0  0  0
  1  2  1  0  0  0  0
  1  3  1  0  0  0  0
  1  4  1  0  0  0  0
  1  5  1  0  0  0  0
  5  6  1  0  0  0  0
  5  7  1  0  0  0  0
  5  8  1  0  0  0  0
  8  9  1  0  0  0  0
  8 10  1  0  0  0  0
  8 11  1  0  0  0  0
 11 12  1  0  0  0  0
 11 13  1  0  0  0  0
 11 14  1  0  0  0  0
 14 15  1  0  0  0  0
 14 16  1  0  0  0  0
 14 17  1  0  0  0  0
 17 18  1  0  0  0  0
 17 19  1  0  0  0  0
 17 20  1  0  0  0  0
 20 21  1  0  0  0  0
 20 22  1  0  0  0  0
 20 23  1  0  0  0  0
M  END
> <VConfSearch Rank>
508

> <Conf_Id>
26

> <Delta U+W>
1.076

> <U+W>
-7.306

> <U>
48.641

> <W>
-55.947

> <W(PB)>
-58.031

> <W(SA)>
2.084

> <Valence>
2.922

> <Coulomb>
45.269

> <VdW>
0.449

> <VdW6>
-7.045

> <VdW12>
7.494

> <Bond>
0.220

> <Angle>
1.205

> <Pdih>
1.497

> <Idih>
0.000

> <Tether>
0.000

$$$$
VeraChem MOL file


 23 22  0  0  0  0  0  0  0  0999 V2000     
   20.9303   21.9158   22.4509 N   0  3  0  0  0  0  0  0  0  0  0  0
   21.9436   21.9870   22.3135 H   0  0  0  0  0  0  0  0  0  0  0  0
   20.6374   22.7620   22.9510 H   0  0  0  0  0  0  0  0  0  0  0  0
   20.4967   21.9528   21.5228 H   0  0  0  0  0  0  0  0  0  0  0  0
   20.5493   20.6571   23.2034 C   0  0  0  0  0  0  0  0  0  0  0  0
   19.4647   20.6624   23.3395 H   0  0  0  0  0  0  0  0  0  0  0  0
   21.0202   20.6971   24.1893 H   0  0  0  0  0  0  0  0  0  0  0  0
   20.9753   19.3672   22.4779 C   0  0  0  0  0  0  0  0  0  0  0  0
   20.5136   19.3323   21.4829 H   0  0  0  0  0  0  0  0  0  0  0  0
   22.0607   19.3894   22.3132 H   0  0  0  0  0  0  0  0  0  0  0  0
   20.6166   18.0876   23.2736 C   0  0  0  0  0  0  0  0  0  0  0  0
   21.1837   18.0845   24.2147 H   0  0  0  0  0  0  0  0  0  0  0  0
   20.9651   17.2083   22.7156 H   0  0  0  0  0  0  0  0  0  0  0  0
   19.1080   17.9277   23.6045 C   0  0  0  0  0  0  0  0  0  0  0  0
   18.9673   16.9855   24.1518 H   0  0  0  0  0  0  0  0  0  0  0  0
   18.8009   18.7207   24.2996 H   0  0  0  0  0  0  0  0  0  0  0  0
   18.1592   17.9402   22.3790 C   0  0  0  0  0  0  0  0  0  0  0  0
   18.2035   18.9145   21.8741 H   0  0  0  0  0  0  0  0  0  0  0  0
   17.1253   17.8333   22.7357 H   0  0  0  0  0  0  0  0  0  0  0  0
   18.4541   16.8126   21.3641 C   0  0  0  0  0  0  0  0  0  0  0  0
   19.4386   16.9392   20.8968 H   0  0  0  0  0  0  0  0  0  0  0  0
   17.7050   16.8116   20.5617 H   0  0  0  0  0  0  0  0  0  0  0  0
   18.4278   15.8284   21.8494 H   0  0  0  0  0  0  0  0  0  0  0  0
  1  2  1  0  0  0  0
  1  3  1  0  0  0  0
  1  4  1  0  0  0  0
  1  5  1  0  0  0  0
  5  6  1  0  0  0  0
  5  7  1  0  0  0  0
  5  8  1  0  0  0  0
  8  9  1  0  0  0  0
  8 10  1  0  0  0  0
  8 11  1  0  0  0  0
 11 12  1  0  0  0  0
 11 13  1  0  0  0  0
 11 14  1  0  0  0  0
 14 15  1  0  0  0  0
 14 16  1  0  0  0  0
 14 17  1  0  0  0  0
 17 18  1  0  0  0  0
 17 19  1  0  0  0  0
 17 20  1  0  0  0  0
 20 21  1  0  0  0  0
 20 22  1  0  0  0  0
 20 23  1  0  0  0  0
M  END
> <VConfSearch Rank>
509

> <Conf_Id>
90

> <Delta U+W>
1.131

> <U+W>
-7.251

> <U>
48.641

> <W>
-55.892

> <W(PB)>
-57.962

> <W(SA)>
2.070

> <Valence>
2.922

> <Coulomb>
45.269

> <VdW>
0.450

> <VdW6>
-7.045

> <VdW12>
7.495

> <Bond>
0.220

> <Angle>
1.205

> <Pdih>
1.497

> <Idih>
0.000

> <Tether>
0.000

$$$$
VeraChem MOL file


 23 22  0  0  0  0  0  0  0  0999 V2000     
   17.7831   17.8081   23.8592 N   0  3  0  0  0  0  0  0  0  0  0  0
   17.4875   16.8516   24.0816 H   0  0  0  0  0  0  0  0  0  0  0  0
   17.9193   17.8532   22.8447 H   0  0  0  0  0  0  0  0  0  0  0  0
   16.9972   18.4250   24.0879 H   0  0  0  0  0  0  0  0  0  0  0  0
   19.0414   18.1978   24.6098 C   0  0  0  0  0  0  0  0  0  0  0  0
   19.8276   17.4857   24.3460 H   0  0  0  0  0  0  0  0  0  0  0  0
   18.8365   18.0955   25.6789 H   0  0  0  0  0  0  0  0  0  0  0  0
   19.5187   19.6346   24.3155 C   0  0  0  0  0  0  0  0  0  0  0  0
   18.7404   20.3433   24.6280 H   0  0  0  0  0  0  0  0  0  0  0  0
   20.3960   19.8490   24.9402 H   0  0  0  0  0  0  0  0  0  0  0  0
   19.8755   19.8876   22.8291 C   0  0  0  0  0  0  0  0  0  0  0  0
   20.1875   20.9351   22.7175 H   0  0  0  0  0  0  0  0  0  0  0  0
   18.9762   19.7689   22.2115 H   0  0  0  0  0  0  0  0  0  0  0  0
   21.0058   18.9630   22.3106 C   0  0  0  0  0  0  0  0  0  0  0  0
   21.8659   19.0325   22.9909 H   0  0  0  0  0  0  0  0  0  0  0  0
   20.6782   17.9151   22.3320 H   0  0  0  0  0  0  0  0  0  0  0  0
   21.4804   19.3168   20.8805 C   0  0  0  0  0  0  0  0  0  0  0  0
   22.3479   18.6897   20.6315 H   0  0  0  0  0  0  0  0  0  0  0  0
   21.8351   20.3566   20.8527 H   0  0  0  0  0  0  0  0  0  0  0  0
   20.3907   19.1099   19.8040 C   0  0  0  0  0  0  0  0  0  0  0  0
   20.0005   18.0842   19.8288 H   0  0  0  0  0  0  0  0  0  0  0  0
   20.8024   19.2877   18.8021 H   0  0  0  0  0  0  0  0  0  0  0  0
   19.5506   19.8017   19.9421 H   0  0  0  0  0  0  0  0  0  0  0  0
  1  2  1  0  0  0  0
  1  3  1  0  0  0  0
  1  4  1  0  0  0  0
  1  5  1  0  0  0  0
  5  6  1  0  0  0  0
  5  7  1  0  0  0  0
  5  8  1  0  0  0  0
  8  9  1  0  0  0  0
  8 10  1  0  0  0  0
  8 11  1  0  0  0  0
 11 12  1  0  0  0  0
 11 13  1  0  0  0  0
 11 14  1  0  0  0  0
 14 15  1  0  0  0  0
 14 16  1  0  0  0  0
 14 17  1  0  0  0  0
 17 18  1  0  0  0  0
 17 19  1  0  0  0  0
 17 20  1  0  0  0  0
 20 21  1  0  0  0  0
 20 22  1  0  0  0  0
 20 23  1  0  0  0  0
M  END
> <VConfSearch Rank>
510

> <Conf_Id>
85

> <Delta U+W>
1.193

> <U+W>
-7.189

> <U>
48.775

> <W>
-55.965

> <W(PB)>
-58.038

> <W(SA)>
2.073

> <Valence>
2.602

> <Coulomb>
45.581

> <VdW>
0.592

> <VdW6>
-6.616

> <VdW12>
7.208

> <Bond>
0.196

> <Angle>
0.832

> <Pdih>
1.574

> <Idih>
0.000

> <Tether>
0.000

$$$$
VeraChem MOL file


 23 22  0  0  0  0  0  0  0  0999 V2000     
   20.8058   17.7833   21.2079 N   0  3  0  0  0  0  0  0  0  0  0  0
   20.1690   17.5925   21.9881 H   0  0  0  0  0  0  0  0  0  0  0  0
   21.6215   17.1715   21.3201 H   0  0  0  0  0  0  0  0  0  0  0  0
   20.3309   17.4929   20.3471 H   0  0  0  0  0  0  0  0  0  0  0  0
   21.2015   19.2466   21.1638 C   0  0  0  0  0  0  0  0  0  0  0  0
   21.8745   19.3698   20.3109 H   0  0  0  0  0  0  0  0  0  0  0  0
   21.7589   19.4864   22.0731 H   0  0  0  0  0  0  0  0  0  0  0  0
   20.0103   20.2140   21.0088 C   0  0  0  0  0  0  0  0  0  0  0  0
   20.3965   21.1552   20.5954 H   0  0  0  0  0  0  0  0  0  0  0  0
   19.3104   19.8235   20.2582 H   0  0  0  0  0  0  0  0  0  0  0  0
   19.2537   20.5488   22.3224 C   0  0  0  0  0  0  0  0  0  0  0  0
   18.4750   21.2835   22.0745 H   0  0  0  0  0  0  0  0  0  0  0  0
   19.9275   21.0609   23.0232 H   0  0  0  0  0  0  0  0  0  0  0  0
   18.5720   19.3442   23.0205 C   0  0  0  0  0  0  0  0  0  0  0  0
   17.6266   19.6871   23.4636 H   0  0  0  0  0  0  0  0  0  0  0  0
   18.2920   18.5847   22.2786 H   0  0  0  0  0  0  0  0  0  0  0  0
   19.4314   18.7294   24.1522 C   0  0  0  0  0  0  0  0  0  0  0  0
   19.5513   19.4677   24.9576 H   0  0  0  0  0  0  0  0  0  0  0  0
   20.4441   18.5004   23.7997 H   0  0  0  0  0  0  0  0  0  0  0  0
   18.7864   17.4512   24.7284 C   0  0  0  0  0  0  0  0  0  0  0  0
   17.7900   17.6634   25.1379 H   0  0  0  0  0  0  0  0  0  0  0  0
   19.4014   17.0383   25.5386 H   0  0  0  0  0  0  0  0  0  0  0  0
   18.6801   16.6764   23.9582 H   0  0  0  0  0  0  0  0  0  0  0  0
  1  2  1  0  0  0  0
  1  3  1  0  0  0  0
  1  4  1  0  0  0  0
  1  5  1  0  0  0  0
  5  6  1  0  0  0  0
  5  7  1  0  0  0  0
  5  8  1  0  0  0  0
  8  9  1  0  0  0  0
  8 10  1  0  0  0  0
  8 11  1  0  0  0  0
 11 12  1  0  0  0  0
 11 13  1  0  0  0  0
 11 14  1  0  0  0  0
 14 15  1  0  0  0  0
 14 16  1  0  0  0  0
 14 17  1  0  0  0  0
 17 18  1  0  0  0  0
 17 19  1  0  0  0  0
 17 20  1  0  0  0  0
 20 21  1  0  0  0  0
 20 22  1  0  0  0  0
 20 23  1  0  0  0  0
M  END
> <VConfSearch Rank>
511

> <Conf_Id>
82

> <Delta U+W>
5.994

> <U+W>
-2.388

> <U>
52.836

> <W>
-55.224

> <W(PB)>
-57.261

> <W(SA)>
2.037

> <Valence>
5.785

> <Coulomb>
46.744

> <VdW>
0.307

> <VdW6>
-7.672

> <VdW12>
7.979

> <Bond>
0.217

> <Angle>
1.470

> <Pdih>
4.098

> <Idih>
0.000

> <Tether>
0.000

$$$$
VeraChem MOL file


 23 22  0  0  0  0  0  0  0  0999 V2000     
   18.1466   19.8120   23.3728 N   0  3  0  0  0  0  0  0  0  0  0  0
   17.2792   19.2713   23.2952 H   0  0  0  0  0  0  0  0  0  0  0  0
   17.9984   20.5105   24.1093 H   0  0  0  0  0  0  0  0  0  0  0  0
   18.8780   19.1721   23.6989 H   0  0  0  0  0  0  0  0  0  0  0  0
   18.5256   20.4567   22.0535 C   0  0  0  0  0  0  0  0  0  0  0  0
   19.4167   21.0711   22.2070 H   0  0  0  0  0  0  0  0  0  0  0  0
   17.7015   21.1185   21.7732 H   0  0  0  0  0  0  0  0  0  0  0  0
   18.7733   19.4499   20.9117 C   0  0  0  0  0  0  0  0  0  0  0  0
   17.9973   18.6731   20.9272 H   0  0  0  0  0  0  0  0  0  0  0  0
   18.6416   19.9842   19.9614 H   0  0  0  0  0  0  0  0  0  0  0  0
   20.1822   18.7981   20.8974 C   0  0  0  0  0  0  0  0  0  0  0  0
   20.9507   19.5692   20.7484 H   0  0  0  0  0  0  0  0  0  0  0  0
   20.2369   18.1539   20.0088 H   0  0  0  0  0  0  0  0  0  0  0  0
   20.5258   17.9343   22.1380 C   0  0  0  0  0  0  0  0  0  0  0  0
   19.6103   17.5063   22.5675 H   0  0  0  0  0  0  0  0  0  0  0  0
   21.1274   17.0754   21.8093 H   0  0  0  0  0  0  0  0  0  0  0  0
   21.3393   18.7018   23.2087 C   0  0  0  0  0  0  0  0  0  0  0  0
   20.8534   19.6493   23.4705 H   0  0  0  0  0  0  0  0  0  0  0  0
   22.3212   18.9699   22.7940 H   0  0  0  0  0  0  0  0  0  0  0  0
   21.5415   17.8580   24.4851 C   0  0  0  0  0  0  0  0  0  0  0  0
   20.5805   17.5979   24.9473 H   0  0  0  0  0  0  0  0  0  0  0  0
   22.1325   18.4120   25.2261 H   0  0  0  0  0  0  0  0  0  0  0  0
   22.0747   16.9251   24.2599 H   0  0  0  0  0  0  0  0  0  0  0  0
  1  2  1  0  0  0  0
  1  3  1  0  0  0  0
  1  4  1  0  0  0  0
  1  5  1  0  0  0  0
  5  6  1  0  0  0  0
  5  7  1  0  0  0  0
  5  8  1  0  0  0  0
  8  9  1  0  0  0  0
  8 10  1  0  0  0  0
  8 11  1  0  0  0  0
 11 12  1  0  0  0  0
 11 13  1  0  0  0  0
 11 14  1  0  0  0  0
 14 15  1  0  0  0  0
 14 16  1  0  0  0  0
 14 17  1  0  0  0  0
 17 18  1  0  0  0  0
 17 19  1  0  0  0  0
 17 20  1  0  0  0  0
 20 21  1  0  0  0  0
 20 22  1  0  0  0  0
 20 23  1  0  0  0  0
M  END
> <VConfSearch Rank>
512

> <Conf_Id>
5

> <Delta U+W>
6.087

> <U+W>
-2.295

> <U>
52.836

> <W>
-55.131

> <W(PB)>
-57.202

> <W(SA)>
2.071

> <Valence>
5.785

> <Coulomb>
46.744

> <VdW>
0.307

> <VdW6>
-7.672

> <VdW12>
7.980

> <Bond>
0.217

> <Angle>
1.470

> <Pdih>
4.098

> <Idih>
0.000

> <Tether>
0.000

$$$$
VeraChem MOL file


 23 22  0  0  0  0  0  0  0  0999 V2000     
   19.3765   20.6295   26.0631 N   0  3  0  0  0  0  0  0  0  0  0  0
   20.2746   20.3116   26.4415 H   0  0  0  0  0  0  0  0  0  0  0  0
   18.7151   20.6544   26.8467 H   0  0  0  0  0  0  0  0  0  0  0  0
   19.5060   21.5976   25.7520 H   0  0  0  0  0  0  0  0  0  0  0  0
   18.8869   19.7357   24.9417 C   0  0  0  0  0  0  0  0  0  0  0  0
   17.9167   20.1137   24.6080 H   0  0  0  0  0  0  0  0  0  0  0  0
   18.7428   18.7313   25.3491 H   0  0  0  0  0  0  0  0  0  0  0  0
   19.8579   19.6766   23.7491 C   0  0  0  0  0  0  0  0  0  0  0  0
   20.0123   20.6894   23.3536 H   0  0  0  0  0  0  0  0  0  0  0  0
   20.8355   19.3121   24.0921 H   0  0  0  0  0  0  0  0  0  0  0  0
   19.3231   18.7566   22.6295 C   0  0  0  0  0  0  0  0  0  0  0  0
   18.3427   19.1215   22.2928 H   0  0  0  0  0  0  0  0  0  0  0  0
   19.1651   17.7456   23.0305 H   0  0  0  0  0  0  0  0  0  0  0  0
   20.2909   18.6898   21.4262 C   0  0  0  0  0  0  0  0  0  0  0  0
   20.4489   19.7005   21.0249 H   0  0  0  0  0  0  0  0  0  0  0  0
   21.2712   18.3249   21.7627 H   0  0  0  0  0  0  0  0  0  0  0  0
   19.7557   17.7695   20.3066 C   0  0  0  0  0  0  0  0  0  0  0  0
   18.7760   18.1319   19.9648 H   0  0  0  0  0  0  0  0  0  0  0  0
   19.5983   16.7564   20.7025 H   0  0  0  0  0  0  0  0  0  0  0  0
   20.7247   17.7054   19.1068 C   0  0  0  0  0  0  0  0  0  0  0  0
   20.3278   17.0476   18.3227 H   0  0  0  0  0  0  0  0  0  0  0  0
   21.7042   17.3139   19.4109 H   0  0  0  0  0  0  0  0  0  0  0  0
   20.8755   18.7001   18.6675 H   0  0  0  0  0  0  0  0  0  0  0  0
  1  2  1  0  0  0  0
  1  3  1  0  0  0  0
  1  4  1  0  0  0  0
  1  5  1  0  0  0  0
  5  6  1  0  0  0  0
  5  7  1  0  0  0  0
  5  8  1  0  0  0  0
  8  9  1  0  0  0  0
  8 10  1  0  0  0  0
  8 11  1  0  0  0  0
 11 12  1  0  0  0  0
 11 13  1  0  0  0  0
 11 14  1  0  0  0  0
 14 15  1  0  0  0  0
 14 16  1  0  0  0  0
 14 17  1  0  0  0  0
 17 18  1  0  0  0  0
 17 19  1  0  0  0  0
 17 20  1  0  0  0  0
 20 21  1  0  0  0  0
 20 22  1  0  0  0  0
 20 23  1  0  0  0  0
M  END
> <VConfSearch Rank>
513

> <Conf_Id>
40

> <Delta U+W>
0.000

> <U+W>
-8.382

> <U>
46.604

> <W>
-54.986

> <W(PB)>
-57.162

> <W(SA)>
2.176

> <Valence>
1.727

> <Coulomb>
44.434

> <VdW>
0.443

> <VdW6>
-4.623

> <VdW12>
5.066

> <Bond>
0.112

> <Angle>
0.386

> <Pdih>
1.228

> <Idih>
0.000

> <Tether>
0.000

$$$$
VeraChem MOL file


 23 22  0  0  0  0  0  0  0  0999 V2000     
   21.4687   21.2658   24.8088 N   0  3  0  0  0  0  0  0  0  0  0  0
   21.0667   22.2062   24.7392 H   0  0  0  0  0  0  0  0  0  0  0  0
   22.3610   21.2812   24.3044 H   0  0  0  0  0  0  0  0  0  0  0  0
   21.6883   21.1083   25.7983 H   0  0  0  0  0  0  0  0  0  0  0  0
   20.5299   20.2079   24.2651 C   0  0  0  0  0  0  0  0  0  0  0  0
   19.6156   20.2280   24.8643 H   0  0  0  0  0  0  0  0  0  0  0  0
   21.0085   19.2346   24.3998 H   0  0  0  0  0  0  0  0  0  0  0  0
   20.1805   20.4175   22.7795 C   0  0  0  0  0  0  0  0  0  0  0  0
   19.7447   21.4174   22.6525 H   0  0  0  0  0  0  0  0  0  0  0  0
   21.0984   20.3962   22.1771 H   0  0  0  0  0  0  0  0  0  0  0  0
   19.1820   19.3644   22.2432 C   0  0  0  0  0  0  0  0  0  0  0  0
   18.8989   19.6488   21.2215 H   0  0  0  0  0  0  0  0  0  0  0  0
   18.2610   19.3947   22.8418 H   0  0  0  0  0  0  0  0  0  0  0  0
   19.7582   17.9254   22.2415 C   0  0  0  0  0  0  0  0  0  0  0  0
   20.6676   17.8912   21.6258 H   0  0  0  0  0  0  0  0  0  0  0  0
   20.0639   17.6508   23.2596 H   0  0  0  0  0  0  0  0  0  0  0  0
   18.7539   16.8605   21.7375 C   0  0  0  0  0  0  0  0  0  0  0  0
   17.8461   16.8830   22.3565 H   0  0  0  0  0  0  0  0  0  0  0  0
   19.1969   15.8647   21.8787 H   0  0  0  0  0  0  0  0  0  0  0  0
   18.3730   17.0274   20.2487 C   0  0  0  0  0  0  0  0  0  0  0  0
   17.8127   17.9546   20.0765 H   0  0  0  0  0  0  0  0  0  0  0  0
   17.7390   16.1941   19.9191 H   0  0  0  0  0  0  0  0  0  0  0  0
   19.2666   17.0412   19.6114 H   0  0  0  0  0  0  0  0  0  0  0  0
  1  2  1  0  0  0  0
  1  3  1  0  0  0  0
  1  4  1  0  0  0  0
  1  5  1  0  0  0  0
  5  6  1  0  0  0  0
  5  7  1  0  0  0  0
  5  8  1  0  0  0  0
  8  9  1  0  0  0  0
  8 10  1  0  0  0  0
  8 11  1  0  0  0  0
 11 12  1  0  0  0  0
 11 13  1  0  0  0  0
 11 14  1  0  0  0  0
 14 15  1  0  0  0  0
 14 16  1  0  0  0  0
 14 17  1  0  0  0  0
 17 18  1  0  0  0  0
 17 19  1  0  0  0  0
 17 20  1  0  0  0  0
 20 21  1  0  0  0  0
 20 22  1  0  0  0  0
 20 23  1  0  0  0  0
M  END
> <VConfSearch Rank>
514

> <Conf_Id>
65

> <Delta U+W>
1.004

> <U+W>
-7.378

> <U>
48.047

> <W>
-55.425

> <W(PB)>
-57.542

> <W(SA)>
2.116

> <Valence>
2.583

> <Coulomb>
44.791

> <VdW>
0.673

> <VdW6>
-5.788

> <VdW12>
6.462

> <Bond>
0.177

> <Angle>
0.787

> <Pdih>
1.619

> <Idih>
0.000

> <Tether>
0.000

$$$$
VeraChem MOL file


 23 22  0  0  0  0  0  0  0  0999 V2000     
   18.9337   21.2459   19.9401 N   0  3  0  0  0  0  0  0  0  0  0  0
   19.0680   22.2193   20.2320 H   0  0  0  0  0  0  0  0  0  0  0  0
   18.0860   21.2223   19.3630 H   0  0  0  0  0  0  0  0  0  0  0  0
   19.7185   21.0041   19.3266 H   0  0  0  0  0  0  0  0  0  0  0  0
   18.8335   20.3086   21.1263 C   0  0  0  0  0  0  0  0  0  0  0  0
   18.6608   19.3000   20.7422 H   0  0  0  0  0  0  0  0  0  0  0  0
   17.9635   20.6052   21.7184 H   0  0  0  0  0  0  0  0  0  0  0  0
   20.0927   20.3216   22.0135 C   0  0  0  0  0  0  0  0  0  0  0  0
   20.9667   20.0225   21.4197 H   0  0  0  0  0  0  0  0  0  0  0  0
   20.2802   21.3491   22.3527 H   0  0  0  0  0  0  0  0  0  0  0  0
   19.9651   19.4014   23.2507 C   0  0  0  0  0  0  0  0  0  0  0  0
   19.0957   19.7092   23.8481 H   0  0  0  0  0  0  0  0  0  0  0  0
   20.8482   19.5540   23.8846 H   0  0  0  0  0  0  0  0  0  0  0  0
   19.8426   17.9007   22.8825 C   0  0  0  0  0  0  0  0  0  0  0  0
   18.9732   17.7527   22.2284 H   0  0  0  0  0  0  0  0  0  0  0  0
   20.7222   17.5884   22.3029 H   0  0  0  0  0  0  0  0  0  0  0  0
   19.6810   16.9758   24.1133 C   0  0  0  0  0  0  0  0  0  0  0  0
   19.4841   15.9534   23.7615 H   0  0  0  0  0  0  0  0  0  0  0  0
   18.7961   17.2770   24.6913 H   0  0  0  0  0  0  0  0  0  0  0  0
   20.9217   16.9529   25.0350 C   0  0  0  0  0  0  0  0  0  0  0  0
   21.0876   17.9259   25.5135 H   0  0  0  0  0  0  0  0  0  0  0  0
   21.8263   16.6863   24.4732 H   0  0  0  0  0  0  0  0  0  0  0  0
   20.7925   16.2113   25.8339 H   0  0  0  0  0  0  0  0  0  0  0  0
  1  2  1  0  0  0  0
  1  3  1  0  0  0  0
  1  4  1  0  0  0  0
  1  5  1  0  0  0  0
  5  6  1  0  0  0  0
  5  7  1  0  0  0  0
  5  8  1  0  0  0  0
  8  9  1  0  0  0  0
  8 10  1  0  0  0  0
  8 11  1  0  0  0  0
 11 12  1  0  0  0  0
 11 13  1  0  0  0  0
 11 14  1  0  0  0  0
 14 15  1  0  0  0  0
 14 16  1  0  0  0  0
 14 17  1  0  0  0  0
 17 18  1  0  0  0  0
 17 19  1  0  0  0  0
 17 20  1  0  0  0  0
 20 21  1  0  0  0  0
 20 22  1  0  0  0  0
 20 23  1  0  0  0  0
M  END
> <VConfSearch Rank>
515

> <Conf_Id>
92

> <Delta U+W>
0.973

> <U+W>
-7.409

> <U>
48.047

> <W>
-55.456

> <W(PB)>
-57.595

> <W(SA)>
2.138

> <Valence>
2.583

> <Coulomb>
44.791

> <VdW>
0.674

> <VdW6>
-5.789

> <VdW12>
6.462

> <Bond>
0.177

> <Angle>
0.787

> <Pdih>
1.619

> <Idih>
0.000

> <Tether>
0.000

$$$$
VeraChem MOL file


 23 22  0  0  0  0  0  0  0  0999 V2000     
   21.5491   21.1657   24.7031 N   0  3  0  0  0  0  0  0  0  0  0  0
   21.4518   22.1831   24.6178 H   0  0  0  0  0  0  0  0  0  0  0  0
   22.5495   20.9705   24.8133 H   0  0  0  0  0  0  0  0  0  0  0  0
   21.0909   20.8950   25.5792 H   0  0  0  0  0  0  0  0  0  0  0  0
   20.9600   20.4417   23.5095 C   0  0  0  0  0  0  0  0  0  0  0  0
   21.4729   20.7976   22.6119 H   0  0  0  0  0  0  0  0  0  0  0  0
   19.9054   20.7192   23.4363 H   0  0  0  0  0  0  0  0  0  0  0  0
   21.0910   18.9100   23.6079 C   0  0  0  0  0  0  0  0  0  0  0  0
   22.1508   18.6475   23.7258 H   0  0  0  0  0  0  0  0  0  0  0  0
   20.5766   18.5526   24.5100 H   0  0  0  0  0  0  0  0  0  0  0  0
   20.5285   18.1806   22.3651 C   0  0  0  0  0  0  0  0  0  0  0  0
   20.7386   17.1064   22.4622 H   0  0  0  0  0  0  0  0  0  0  0  0
   21.0627   18.5214   21.4673 H   0  0  0  0  0  0  0  0  0  0  0  0
   19.0061   18.3860   22.1767 C   0  0  0  0  0  0  0  0  0  0  0  0
   18.4778   18.0751   23.0887 H   0  0  0  0  0  0  0  0  0  0  0  0
   18.7863   19.4519   22.0293 H   0  0  0  0  0  0  0  0  0  0  0  0
   18.4641   17.5862   20.9712 C   0  0  0  0  0  0  0  0  0  0  0  0
   18.6712   16.5160   21.1119 H   0  0  0  0  0  0  0  0  0  0  0  0
   18.9898   17.8929   20.0559 H   0  0  0  0  0  0  0  0  0  0  0  0
   16.9460   17.7929   20.7833 C   0  0  0  0  0  0  0  0  0  0  0  0
   16.3900   17.4634   21.6707 H   0  0  0  0  0  0  0  0  0  0  0  0
   16.5799   17.2171   19.9234 H   0  0  0  0  0  0  0  0  0  0  0  0
   16.7105   18.8503   20.6054 H   0  0  0  0  0  0  0  0  0  0  0  0
  1  2  1  0  0  0  0
  1  3  1  0  0  0  0
  1  4  1  0  0  0  0
  1  5  1  0  0  0  0
  5  6  1  0  0  0  0
  5  7  1  0  0  0  0
  5  8  1  0  0  0  0
  8  9  1  0  0  0  0
  8 10  1  0  0  0  0
  8 11  1  0  0  0  0
 11 12  1  0  0  0  0
 11 13  1  0  0  0  0
 11 14  1  0  0  0  0
 14 15  1  0  0  0  0
 14 16  1  0  0  0  0
 14 17  1  0  0  0  0
 17 18  1  0  0  0  0
 17 19  1  0  0  0  0
 17 20  1  0  0  0  0
 20 21  1  0  0  0  0
 20 22  1  0  0  0  0
 20 23  1  0  0  0  0
M  END
> <VConfSearch Rank>
516

> <Conf_Id>
42

> <Delta U+W>
0.365

> <U+W>
-8.017

> <U>
47.375

> <W>
-55.392

> <W(PB)>
-57.543

> <W(SA)>
2.152

> <Valence>
2.032

> <Coulomb>
44.843

> <VdW>
0.499

> <VdW6>
-5.218

> <VdW12>
5.717

> <Bond>
0.135

> <Angle>
0.514

> <Pdih>
1.383

> <Idih>
0.000

> <Tether>
0.000

$$$$
VeraChem MOL file


 23 22  0  0  0  0  0  0  0  0999 V2000     
   21.0461   21.8510   23.0881 N   0  3  0  0  0  0  0  0  0  0  0  0
   20.1397   22.3289   23.0626 H   0  0  0  0  0  0  0  0  0  0  0  0
   21.7666   22.5699   22.9610 H   0  0  0  0  0  0  0  0  0  0  0  0
   21.1633   21.4742   24.0334 H   0  0  0  0  0  0  0  0  0  0  0  0
   21.1414   20.7663   22.0327 C   0  0  0  0  0  0  0  0  0  0  0  0
   22.1352   20.3149   22.0975 H   0  0  0  0  0  0  0  0  0  0  0  0
   21.0496   21.2479   21.0554 H   0  0  0  0  0  0  0  0  0  0  0  0
   20.0645   19.6717   22.1643 C   0  0  0  0  0  0  0  0  0  0  0  0
   19.0677   20.1306   22.1267 H   0  0  0  0  0  0  0  0  0  0  0  0
   20.1474   19.0135   21.2908 H   0  0  0  0  0  0  0  0  0  0  0  0
   20.2179   18.8333   23.4568 C   0  0  0  0  0  0  0  0  0  0  0  0
   20.2397   19.5032   24.3263 H   0  0  0  0  0  0  0  0  0  0  0  0
   21.1887   18.3187   23.4434 H   0  0  0  0  0  0  0  0  0  0  0  0
   19.0883   17.7952   23.6834 C   0  0  0  0  0  0  0  0  0  0  0  0
   19.2834   17.2999   24.6447 H   0  0  0  0  0  0  0  0  0  0  0  0
   18.1240   18.3073   23.8060 H   0  0  0  0  0  0  0  0  0  0  0  0
   18.9791   16.7002   22.5909 C   0  0  0  0  0  0  0  0  0  0  0  0
   18.6940   15.7537   23.0713 H   0  0  0  0  0  0  0  0  0  0  0  0
   19.9604   16.5206   22.1299 H   0  0  0  0  0  0  0  0  0  0  0  0
   17.9246   17.0194   21.5053 C   0  0  0  0  0  0  0  0  0  0  0  0
   16.9261   17.1258   21.9489 H   0  0  0  0  0  0  0  0  0  0  0  0
   17.8757   16.2082   20.7674 H   0  0  0  0  0  0  0  0  0  0  0  0
   18.1537   17.9451   20.9662 H   0  0  0  0  0  0  0  0  0  0  0  0
  1  2  1  0  0  0  0
  1  3  1  0  0  0  0
  1  4  1  0  0  0  0
  1  5  1  0  0  0  0
  5  6  1  0  0  0  0
  5  7  1  0  0  0  0
  5  8  1  0  0  0  0
  8  9  1  0  0  0  0
  8 10  1  0  0  0  0
  8 11  1  0  0  0  0
 11 12  1  0  0  0  0
 11 13  1  0  0  0  0
 11 14  1  0  0  0  0
 14 15  1  0  0  0  0
 14 16  1  0  0  0  0
 14 17  1  0  0  0  0
 17 18  1  0  0  0  0
 17 19  1  0  0  0  0
 17 20  1  0  0  0  0
 20 21  1  0  0  0  0
 20 22  1  0  0  0  0
 20 23  1  0  0  0  0
M  END
> <VConfSearch Rank>
517

> <Conf_Id>
3

> <Delta U+W>
3.283

> <U+W>
-5.099

> <U>
50.701

> <W>
-55.800

> <W(PB)>
-57.867

> <W(SA)>
2.067

> <Valence>
4.880

> <Coulomb>
45.095

> <VdW>
0.726

> <VdW6>
-6.620

> <VdW12>
7.346

> <Bond>
0.222

> <Angle>
1.260

> <Pdih>
3.398

> <Idih>
0.000

> <Tether>
0.000

$$$$
VeraChem MOL file


 23 22  0  0  0  0  0  0  0  0999 V2000     
   22.3025   17.6381   22.1993 N   0  3  0  0  0  0  0  0  0  0  0  0
   22.1807   16.6849   21.8428 H   0  0  0  0  0  0  0  0  0  0  0  0
   23.3121   17.8041   22.2708 H   0  0  0  0  0  0  0  0  0  0  0  0
   21.9422   18.2776   21.4846 H   0  0  0  0  0  0  0  0  0  0  0  0
   21.6035   17.8352   23.5301 C   0  0  0  0  0  0  0  0  0  0  0  0
   21.7976   18.8565   23.8672 H   0  0  0  0  0  0  0  0  0  0  0  0
   22.0589   17.1494   24.2497 H   0  0  0  0  0  0  0  0  0  0  0  0
   20.0829   17.5824   23.4752 C   0  0  0  0  0  0  0  0  0  0  0  0
   19.9040   16.5385   23.1853 H   0  0  0  0  0  0  0  0  0  0  0  0
   19.6706   17.6933   24.4869 H   0  0  0  0  0  0  0  0  0  0  0  0
   19.3178   18.5198   22.5068 C   0  0  0  0  0  0  0  0  0  0  0  0
   18.2599   18.2271   22.5156 H   0  0  0  0  0  0  0  0  0  0  0  0
   19.6697   18.3630   21.4785 H   0  0  0  0  0  0  0  0  0  0  0  0
   19.4438   20.0184   22.8816 C   0  0  0  0  0  0  0  0  0  0  0  0
   19.0656   20.1782   23.9008 H   0  0  0  0  0  0  0  0  0  0  0  0
   20.5032   20.3061   22.8968 H   0  0  0  0  0  0  0  0  0  0  0  0
   18.7039   20.9625   21.9030 C   0  0  0  0  0  0  0  0  0  0  0  0
   19.0859   20.8149   20.8831 H   0  0  0  0  0  0  0  0  0  0  0  0
   18.9396   22.0019   22.1713 H   0  0  0  0  0  0  0  0  0  0  0  0
   17.1687   20.7832   21.9146 C   0  0  0  0  0  0  0  0  0  0  0  0
   16.7658   20.8932   22.9298 H   0  0  0  0  0  0  0  0  0  0  0  0
   16.8739   19.7984   21.5319 H   0  0  0  0  0  0  0  0  0  0  0  0
   16.6891   21.5396   21.2800 H   0  0  0  0  0  0  0  0  0  0  0  0
  1  2  1  0  0  0  0
  1  3  1  0  0  0  0
  1  4  1  0  0  0  0
  1  5  1  0  0  0  0
  5  6  1  0  0  0  0
  5  7  1  0  0  0  0
  5  8  1  0  0  0  0
  8  9  1  0  0  0  0
  8 10  1  0  0  0  0
  8 11  1  0  0  0  0
 11 12  1  0  0  0  0
 11 13  1  0  0  0  0
 11 14  1  0  0  0  0
 14 15  1  0  0  0  0
 14 16  1  0  0  0  0
 14 17  1  0  0  0  0
 17 18  1  0  0  0  0
 17 19  1  0  0  0  0
 17 20  1  0  0  0  0
 20 21  1  0  0  0  0
 20 22  1  0  0  0  0
 20 23  1  0  0  0  0
M  END
> <VConfSearch Rank>
518

> <Conf_Id>
83

> <Delta U+W>
1.229

> <U+W>
-7.154

> <U>
48.727

> <W>
-55.880

> <W(PB)>
-57.960

> <W(SA)>
2.080

> <Valence>
2.671

> <Coulomb>
45.371

> <VdW>
0.684

> <VdW6>
-6.511

> <VdW12>
7.195

> <Bond>
0.203

> <Angle>
0.915

> <Pdih>
1.554

> <Idih>
0.000

> <Tether>
0.000

$$$$
VeraChem MOL file


 23 22  0  0  0  0  0  0  0  0999 V2000     
   20.6725   17.3152   24.7225 N   0  3  0  0  0  0  0  0  0  0  0  0
   20.9025   17.8243   25.5818 H   0  0  0  0  0  0  0  0  0  0  0  0
   21.3055   17.6528   23.9912 H   0  0  0  0  0  0  0  0  0  0  0  0
   20.9021   16.3294   24.8881 H   0  0  0  0  0  0  0  0  0  0  0  0
   19.2189   17.4973   24.3322 C   0  0  0  0  0  0  0  0  0  0  0  0
   18.6043   17.0865   25.1378 H   0  0  0  0  0  0  0  0  0  0  0  0
   19.0333   16.9074   23.4311 H   0  0  0  0  0  0  0  0  0  0  0  0
   18.8225   18.9675   24.0859 C   0  0  0  0  0  0  0  0  0  0  0  0
   17.7479   19.0102   23.8639 H   0  0  0  0  0  0  0  0  0  0  0  0
   18.9653   19.5367   25.0140 H   0  0  0  0  0  0  0  0  0  0  0  0
   19.6080   19.6537   22.9398 C   0  0  0  0  0  0  0  0  0  0  0  0
   20.6777   19.6849   23.1858 H   0  0  0  0  0  0  0  0  0  0  0  0
   19.2779   20.6988   22.8798 H   0  0  0  0  0  0  0  0  0  0  0  0
   19.4057   18.9669   21.5651 C   0  0  0  0  0  0  0  0  0  0  0  0
   19.7129   17.9149   21.6306 H   0  0  0  0  0  0  0  0  0  0  0  0
   18.3376   18.9613   21.3076 H   0  0  0  0  0  0  0  0  0  0  0  0
   20.2088   19.6311   20.4204 C   0  0  0  0  0  0  0  0  0  0  0  0
   20.1024   19.0181   19.5145 H   0  0  0  0  0  0  0  0  0  0  0  0
   21.2796   19.6298   20.6677 H   0  0  0  0  0  0  0  0  0  0  0  0
   19.7504   21.0723   20.1007 C   0  0  0  0  0  0  0  0  0  0  0  0
   18.6752   21.1055   19.8823 H   0  0  0  0  0  0  0  0  0  0  0  0
   20.2831   21.4583   19.2219 H   0  0  0  0  0  0  0  0  0  0  0  0
   19.9538   21.7554   20.9345 H   0  0  0  0  0  0  0  0  0  0  0  0
  1  2  1  0  0  0  0
  1  3  1  0  0  0  0
  1  4  1  0  0  0  0
  1  5  1  0  0  0  0
  5  6  1  0  0  0  0
  5  7  1  0  0  0  0
  5  8  1  0  0  0  0
  8  9  1  0  0  0  0
  8 10  1  0  0  0  0
  8 11  1  0  0  0  0
 11 12  1  0  0  0  0
 11 13  1  0  0  0  0
 11 14  1  0  0  0  0
 14 15  1  0  0  0  0
 14 16  1  0  0  0  0
 14 17  1  0  0  0  0
 17 18  1  0  0  0  0
 17 19  1  0  0  0  0
 17 20  1  0  0  0  0
 20 21  1  0  0  0  0
 20 22  1  0  0  0  0
 20 23  1  0  0  0  0
M  END
> <VConfSearch Rank>
519

> <Conf_Id>
50

> <Delta U+W>
1.252

> <U+W>
-7.130

> <U>
48.727

> <W>
-55.857

> <W(PB)>
-57.937

> <W(SA)>
2.080

> <Valence>
2.671

> <Coulomb>
45.371

> <VdW>
0.684

> <VdW6>
-6.511

> <VdW12>
7.196

> <Bond>
0.203

> <Angle>
0.915

> <Pdih>
1.554

> <Idih>
0.000

> <Tether>
0.000

$$$$
VeraChem MOL file


 23 22  0  0  0  0  0  0  0  0999 V2000     
   20.4270   18.8416   19.5222 N   0  3  0  0  0  0  0  0  0  0  0  0
   19.5298   19.3360   19.5335 H   0  0  0  0  0  0  0  0  0  0  0  0
   20.4314   18.2480   18.6858 H   0  0  0  0  0  0  0  0  0  0  0  0
   21.1600   19.5462   19.3922 H   0  0  0  0  0  0  0  0  0  0  0  0
   20.6401   18.0330   20.7871 C   0  0  0  0  0  0  0  0  0  0  0  0
   21.5918   17.5043   20.6859 H   0  0  0  0  0  0  0  0  0  0  0  0
   19.8422   17.2884   20.8524 H   0  0  0  0  0  0  0  0  0  0  0  0
   20.6624   18.8827   22.0726 C   0  0  0  0  0  0  0  0  0  0  0  0
   20.9297   18.2292   22.9106 H   0  0  0  0  0  0  0  0  0  0  0  0
   21.4617   19.6321   22.0001 H   0  0  0  0  0  0  0  0  0  0  0  0
   19.3075   19.5830   22.3491 C   0  0  0  0  0  0  0  0  0  0  0  0
   18.4877   18.8517   22.3290 H   0  0  0  0  0  0  0  0  0  0  0  0
   19.1065   20.2885   21.5318 H   0  0  0  0  0  0  0  0  0  0  0  0
   19.2837   20.3714   23.6847 C   0  0  0  0  0  0  0  0  0  0  0  0
   20.2916   20.7311   23.9337 H   0  0  0  0  0  0  0  0  0  0  0  0
   18.6755   21.2748   23.5382 H   0  0  0  0  0  0  0  0  0  0  0  0
   18.6828   19.5955   24.8848 C   0  0  0  0  0  0  0  0  0  0  0  0
   17.6396   19.3284   24.6654 H   0  0  0  0  0  0  0  0  0  0  0  0
   18.6479   20.2687   25.7527 H   0  0  0  0  0  0  0  0  0  0  0  0
   19.4654   18.3231   25.2768 C   0  0  0  0  0  0  0  0  0  0  0  0
   20.5266   18.5469   25.4460 H   0  0  0  0  0  0  0  0  0  0  0  0
   19.3893   17.5529   24.4994 H   0  0  0  0  0  0  0  0  0  0  0  0
   19.0610   17.8945   26.2029 H   0  0  0  0  0  0  0  0  0  0  0  0
  1  2  1  0  0  0  0
  1  3  1  0  0  0  0
  1  4  1  0  0  0  0
  1  5  1  0  0  0  0
  5  6  1  0  0  0  0
  5  7  1  0  0  0  0
  5  8  1  0  0  0  0
  8  9  1  0  0  0  0
  8 10  1  0  0  0  0
  8 11  1  0  0  0  0
 11 12  1  0  0  0  0
 11 13  1  0  0  0  0
 11 14  1  0  0  0  0
 14 15  1  0  0  0  0
 14 16  1  0  0  0  0
 14 17  1  0  0  0  0
 17 18  1  0  0  0  0
 17 19  1  0  0  0  0
 17 20  1  0  0  0  0
 20 21  1  0  0  0  0
 20 22  1  0  0  0  0
 20 23  1  0  0  0  0
M  END
> <VConfSearch Rank>
520

> <Conf_Id>
55

> <Delta U+W>
3.232

> <U+W>
-5.150

> <U>
50.625

> <W>
-55.776

> <W(PB)>
-57.839

> <W(SA)>
2.064

> <Valence>
4.837

> <Coulomb>
45.097

> <VdW>
0.692

> <VdW6>
-6.655

> <VdW12>
7.347

> <Bond>
0.223

> <Angle>
1.167

> <Pdih>
3.447

> <Idih>
0.000

> <Tether>
0.000

$$$$
VeraChem MOL file


 23 22  0  0  0  0  0  0  0  0999 V2000     
   17.6677   17.7411   20.7454 N   0  3  0  0  0  0  0  0  0  0  0  0
   16.6927   17.6322   21.0426 H   0  0  0  0  0  0  0  0  0  0  0  0
   17.8919   16.9310   20.1577 H   0  0  0  0  0  0  0  0  0  0  0  0
   17.7078   18.5681   20.1410 H   0  0  0  0  0  0  0  0  0  0  0  0
   18.6089   17.8577   21.9270 C   0  0  0  0  0  0  0  0  0  0  0  0
   19.6256   17.9334   21.5371 H   0  0  0  0  0  0  0  0  0  0  0  0
   18.5349   16.9343   22.5078 H   0  0  0  0  0  0  0  0  0  0  0  0
   18.2917   19.0634   22.8332 C   0  0  0  0  0  0  0  0  0  0  0  0
   18.3167   19.9951   22.2525 H   0  0  0  0  0  0  0  0  0  0  0  0
   17.2618   18.9532   23.1981 H   0  0  0  0  0  0  0  0  0  0  0  0
   19.2384   19.1716   24.0553 C   0  0  0  0  0  0  0  0  0  0  0  0
   19.4737   18.1691   24.4390 H   0  0  0  0  0  0  0  0  0  0  0  0
   18.6950   19.6790   24.8644 H   0  0  0  0  0  0  0  0  0  0  0  0
   20.5462   19.9658   23.8016 C   0  0  0  0  0  0  0  0  0  0  0  0
   20.2984   20.9983   23.5192 H   0  0  0  0  0  0  0  0  0  0  0  0
   21.0943   20.0336   24.7516 H   0  0  0  0  0  0  0  0  0  0  0  0
   21.4760   19.3506   22.7304 C   0  0  0  0  0  0  0  0  0  0  0  0
   21.0036   19.4182   21.7419 H   0  0  0  0  0  0  0  0  0  0  0  0
   21.6373   18.2845   22.9429 H   0  0  0  0  0  0  0  0  0  0  0  0
   22.8387   20.0736   22.6764 C   0  0  0  0  0  0  0  0  0  0  0  0
   23.3655   19.9970   23.6365 H   0  0  0  0  0  0  0  0  0  0  0  0
   22.7114   21.1382   22.4402 H   0  0  0  0  0  0  0  0  0  0  0  0
   23.4816   19.6317   21.9040 H   0  0  0  0  0  0  0  0  0  0  0  0
  1  2  1  0  0  0  0
  1  3  1  0  0  0  0
  1  4  1  0  0  0  0
  1  5  1  0  0  0  0
  5  6  1  0  0  0  0
  5  7  1  0  0  0  0
  5  8  1  0  0  0  0
  8  9  1  0  0  0  0
  8 10  1  0  0  0  0
  8 11  1  0  0  0  0
 11 12  1  0  0  0  0
 11 13  1  0  0  0  0
 11 14  1  0  0  0  0
 14 15  1  0  0  0  0
 14 16  1  0  0  0  0
 14 17  1  0  0  0  0
 17 18  1  0  0  0  0
 17 19  1  0  0  0  0
 17 20  1  0  0  0  0
 20 21  1  0  0  0  0
 20 22  1  0  0  0  0
 20 23  1  0  0  0  0
M  END
> <VConfSearch Rank>
521

> <Conf_Id>
93

> <Delta U+W>
2.589

> <U+W>
-5.793

> <U>
50.122

> <W>
-55.915

> <W(PB)>
-58.031

> <W(SA)>
2.115

> <Valence>
4.132

> <Coulomb>
45.536

> <VdW>
0.454

> <VdW6>
-6.262

> <VdW12>
6.715

> <Bond>
0.182

> <Angle>
1.157

> <Pdih>
2.794

> <Idih>
0.000

> <Tether>
0.000

$$$$
VeraChem MOL file


 23 22  0  0  0  0  0  0  0  0999 V2000     
   17.3510   20.1050   24.3215 N   0  3  0  0  0  0  0  0  0  0  0  0
   18.0257   20.3965   25.0360 H   0  0  0  0  0  0  0  0  0  0  0  0
   16.6852   19.4735   24.7798 H   0  0  0  0  0  0  0  0  0  0  0  0
   16.8259   20.9405   24.0442 H   0  0  0  0  0  0  0  0  0  0  0  0
   18.0297   19.4455   23.1382 C   0  0  0  0  0  0  0  0  0  0  0  0
   17.2522   19.1366   22.4343 H   0  0  0  0  0  0  0  0  0  0  0  0
   18.5355   18.5490   23.5011 H   0  0  0  0  0  0  0  0  0  0  0  0
   19.0318   20.3739   22.4242 C   0  0  0  0  0  0  0  0  0  0  0  0
   18.4868   21.2636   22.0816 H   0  0  0  0  0  0  0  0  0  0  0  0
   19.7932   20.7300   23.1308 H   0  0  0  0  0  0  0  0  0  0  0  0
   19.7101   19.7097   21.1995 C   0  0  0  0  0  0  0  0  0  0  0  0
   19.9843   20.5023   20.4895 H   0  0  0  0  0  0  0  0  0  0  0  0
   18.9887   19.0727   20.6690 H   0  0  0  0  0  0  0  0  0  0  0  0
   20.9966   18.9050   21.5204 C   0  0  0  0  0  0  0  0  0  0  0  0
   21.4205   18.5463   20.5722 H   0  0  0  0  0  0  0  0  0  0  0  0
   21.7495   19.5768   21.9552 H   0  0  0  0  0  0  0  0  0  0  0  0
   20.7828   17.6971   22.4616 C   0  0  0  0  0  0  0  0  0  0  0  0
   19.9518   17.0791   22.0941 H   0  0  0  0  0  0  0  0  0  0  0  0
   20.5089   18.0487   23.4648 H   0  0  0  0  0  0  0  0  0  0  0  0
   22.0551   16.8302   22.5732 C   0  0  0  0  0  0  0  0  0  0  0  0
   21.8894   15.9844   23.2529 H   0  0  0  0  0  0  0  0  0  0  0  0
   22.8983   17.4154   22.9628 H   0  0  0  0  0  0  0  0  0  0  0  0
   22.3438   16.4239   21.5950 H   0  0  0  0  0  0  0  0  0  0  0  0
  1  2  1  0  0  0  0
  1  3  1  0  0  0  0
  1  4  1  0  0  0  0
  1  5  1  0  0  0  0
  5  6  1  0  0  0  0
  5  7  1  0  0  0  0
  5  8  1  0  0  0  0
  8  9  1  0  0  0  0
  8 10  1  0  0  0  0
  8 11  1  0  0  0  0
 11 12  1  0  0  0  0
 11 13  1  0  0  0  0
 11 14  1  0  0  0  0
 14 15  1  0  0  0  0
 14 16  1  0  0  0  0
 14 17  1  0  0  0  0
 17 18  1  0  0  0  0
 17 19  1  0  0  0  0
 17 20  1  0  0  0  0
 20 21  1  0  0  0  0
 20 22  1  0  0  0  0
 20 23  1  0  0  0  0
M  END
> <VConfSearch Rank>
522

> <Conf_Id>
70

> <Delta U+W>
2.599

> <U+W>
-5.783

> <U>
50.122

> <W>
-55.906

> <W(PB)>
-58.010

> <W(SA)>
2.105

> <Valence>
4.132

> <Coulomb>
45.536

> <VdW>
0.454

> <VdW6>
-6.262

> <VdW12>
6.715

> <Bond>
0.182

> <Angle>
1.157

> <Pdih>
2.794

> <Idih>
0.000

> <Tether>
0.000

$$$$
VeraChem MOL file


 23 22  0  0  0  0  0  0  0  0999 V2000     
   21.2977   20.4805   24.4949 N   0  3  0  0  0  0  0  0  0  0  0  0
   21.1483   21.4738   24.6988 H   0  0  0  0  0  0  0  0  0  0  0  0
   22.1825   20.2135   24.9394 H   0  0  0  0  0  0  0  0  0  0  0  0
   20.5534   19.9590   24.9678 H   0  0  0  0  0  0  0  0  0  0  0  0
   21.3111   20.2080   23.0037 C   0  0  0  0  0  0  0  0  0  0  0  0
   21.5072   19.1429   22.8548 H   0  0  0  0  0  0  0  0  0  0  0  0
   22.1423   20.7702   22.5698 H   0  0  0  0  0  0  0  0  0  0  0  0
   20.0005   20.6001   22.2921 C   0  0  0  0  0  0  0  0  0  0  0  0
   19.8317   21.6776   22.4190 H   0  0  0  0  0  0  0  0  0  0  0  0
   20.1224   20.4419   21.2130 H   0  0  0  0  0  0  0  0  0  0  0  0
   18.7538   19.8261   22.7959 C   0  0  0  0  0  0  0  0  0  0  0  0
   17.8806   20.1404   22.2077 H   0  0  0  0  0  0  0  0  0  0  0  0
   18.5367   20.1236   23.8306 H   0  0  0  0  0  0  0  0  0  0  0  0
   18.8753   18.2814   22.7346 C   0  0  0  0  0  0  0  0  0  0  0  0
   19.6858   17.9405   23.3925 H   0  0  0  0  0  0  0  0  0  0  0  0
   17.9524   17.8452   23.1410 H   0  0  0  0  0  0  0  0  0  0  0  0
   19.1010   17.7355   21.3049 C   0  0  0  0  0  0  0  0  0  0  0  0
   20.0555   18.1032   20.9053 H   0  0  0  0  0  0  0  0  0  0  0  0
   18.3114   18.1071   20.6370 H   0  0  0  0  0  0  0  0  0  0  0  0
   19.1089   16.1923   21.2795 C   0  0  0  0  0  0  0  0  0  0  0  0
   19.2726   15.8222   20.2590 H   0  0  0  0  0  0  0  0  0  0  0  0
   18.1531   15.7863   21.6354 H   0  0  0  0  0  0  0  0  0  0  0  0
   19.9088   15.7913   21.9156 H   0  0  0  0  0  0  0  0  0  0  0  0
  1  2  1  0  0  0  0
  1  3  1  0  0  0  0
  1  4  1  0  0  0  0
  1  5  1  0  0  0  0
  5  6  1  0  0  0  0
  5  7  1  0  0  0  0
  5  8  1  0  0  0  0
  8  9  1  0  0  0  0
  8 10  1  0  0  0  0
  8 11  1  0  0  0  0
 11 12  1  0  0  0  0
 11 13  1  0  0  0  0
 11 14  1  0  0  0  0
 14 15  1  0  0  0  0
 14 16  1  0  0  0  0
 14 17  1  0  0  0  0
 17 18  1  0  0  0  0
 17 19  1  0  0  0  0
 17 20  1  0  0  0  0
 20 21  1  0  0  0  0
 20 22  1  0  0  0  0
 20 23  1  0  0  0  0
M  END
> <VConfSearch Rank>
523

> <Conf_Id>
72

> <Delta U+W>
1.051

> <U+W>
-7.331

> <U>
48.590

> <W>
-55.922

> <W(PB)>
-58.012

> <W(SA)>
2.090

> <Valence>
2.601

> <Coulomb>
45.520

> <VdW>
0.469

> <VdW6>
-6.867

> <VdW12>
7.336

> <Bond>
0.205

> <Angle>
0.962

> <Pdih>
1.434

> <Idih>
0.000

> <Tether>
0.000

$$$$
VeraChem MOL file


 23 22  0  0  0  0  0  0  0  0999 V2000     
   20.3641   18.5958   19.5622 N   0  3  0  0  0  0  0  0  0  0  0  0
   19.7315   18.3803   18.7842 H   0  0  0  0  0  0  0  0  0  0  0  0
   21.2601   18.1449   19.3509 H   0  0  0  0  0  0  0  0  0  0  0  0
   20.5243   19.6081   19.5446 H   0  0  0  0  0  0  0  0  0  0  0  0
   19.7995   18.1355   20.8908 C   0  0  0  0  0  0  0  0  0  0  0  0
   19.6272   17.0576   20.8296 H   0  0  0  0  0  0  0  0  0  0  0  0
   18.8358   18.6305   21.0359 H   0  0  0  0  0  0  0  0  0  0  0  0
   20.7266   18.4450   22.0809 C   0  0  0  0  0  0  0  0  0  0  0  0
   21.7034   17.9744   21.9073 H   0  0  0  0  0  0  0  0  0  0  0  0
   20.9108   19.5255   22.1356 H   0  0  0  0  0  0  0  0  0  0  0  0
   20.1589   17.9356   23.4290 C   0  0  0  0  0  0  0  0  0  0  0  0
   20.8740   18.1664   24.2299 H   0  0  0  0  0  0  0  0  0  0  0  0
   20.0960   16.8391   23.3957 H   0  0  0  0  0  0  0  0  0  0  0  0
   18.7615   18.5001   23.8024 C   0  0  0  0  0  0  0  0  0  0  0  0
   18.0151   18.1291   23.0873 H   0  0  0  0  0  0  0  0  0  0  0  0
   18.4661   18.0879   24.7771 H   0  0  0  0  0  0  0  0  0  0  0  0
   18.6703   20.0461   23.8655 C   0  0  0  0  0  0  0  0  0  0  0  0
   17.6394   20.3256   24.1241 H   0  0  0  0  0  0  0  0  0  0  0  0
   18.8589   20.4785   22.8738 H   0  0  0  0  0  0  0  0  0  0  0  0
   19.6305   20.6750   24.9003 C   0  0  0  0  0  0  0  0  0  0  0  0
   19.4688   20.2483   25.8987 H   0  0  0  0  0  0  0  0  0  0  0  0
   19.4674   21.7584   24.9677 H   0  0  0  0  0  0  0  0  0  0  0  0
   20.6802   20.5153   24.6242 H   0  0  0  0  0  0  0  0  0  0  0  0
  1  2  1  0  0  0  0
  1  3  1  0  0  0  0
  1  4  1  0  0  0  0
  1  5  1  0  0  0  0
  5  6  1  0  0  0  0
  5  7  1  0  0  0  0
  5  8  1  0  0  0  0
  8  9  1  0  0  0  0
  8 10  1  0  0  0  0
  8 11  1  0  0  0  0
 11 12  1  0  0  0  0
 11 13  1  0  0  0  0
 11 14  1  0  0  0  0
 14 15  1  0  0  0  0
 14 16  1  0  0  0  0
 14 17  1  0  0  0  0
 17 18  1  0  0  0  0
 17 19  1  0  0  0  0
 17 20  1  0  0  0  0
 20 21  1  0  0  0  0
 20 22  1  0  0  0  0
 20 23  1  0  0  0  0
M  END
> <VConfSearch Rank>
524

> <Conf_Id>
26

> <Delta U+W>
1.076

> <U+W>
-7.306

> <U>
48.641

> <W>
-55.947

> <W(PB)>
-58.031

> <W(SA)>
2.084

> <Valence>
2.922

> <Coulomb>
45.269

> <VdW>
0.449

> <VdW6>
-7.045

> <VdW12>
7.494

> <Bond>
0.220

> <Angle>
1.205

> <Pdih>
1.497

> <Idih>
0.000

> <Tether>
0.000

$$$$
VeraChem MOL file


 23 22  0  0  0  0  0  0  0  0999 V2000     
   22.5205   17.7396   21.6511 N   0  3  0  0  0  0  0  0  0  0  0  0
   22.4644   16.7598   21.3550 H   0  0  0  0  0  0  0  0  0  0  0  0
   23.4762   17.8939   21.9901 H   0  0  0  0  0  0  0  0  0  0  0  0
   22.4056   18.3156   20.8110 H   0  0  0  0  0  0  0  0  0  0  0  0
   21.4877   18.0700   22.7093 C   0  0  0  0  0  0  0  0  0  0  0  0
   21.6249   19.1154   22.9978 H   0  0  0  0  0  0  0  0  0  0  0  0
   21.6861   17.4429   23.5827 H   0  0  0  0  0  0  0  0  0  0  0  0
   20.0406   17.8489   22.2309 C   0  0  0  0  0  0  0  0  0  0  0  0
   19.8444   18.4681   21.3463 H   0  0  0  0  0  0  0  0  0  0  0  0
   19.9242   16.8056   21.9087 H   0  0  0  0  0  0  0  0  0  0  0  0
   18.9943   18.1516   23.3321 C   0  0  0  0  0  0  0  0  0  0  0  0
   19.1323   17.4399   24.1577 H   0  0  0  0  0  0  0  0  0  0  0  0
   17.9892   17.9540   22.9364 H   0  0  0  0  0  0  0  0  0  0  0  0
   19.0517   19.5929   23.9067 C   0  0  0  0  0  0  0  0  0  0  0  0
   18.2613   19.7007   24.6623 H   0  0  0  0  0  0  0  0  0  0  0  0
   19.9972   19.7328   24.4476 H   0  0  0  0  0  0  0  0  0  0  0  0
   18.9004   20.7264   22.8604 C   0  0  0  0  0  0  0  0  0  0  0  0
   19.7399   20.7047   22.1528 H   0  0  0  0  0  0  0  0  0  0  0  0
   18.9693   21.6929   23.3789 H   0  0  0  0  0  0  0  0  0  0  0  0
   17.5638   20.6716   22.0864 C   0  0  0  0  0  0  0  0  0  0  0  0
   17.4959   19.7706   21.4641 H   0  0  0  0  0  0  0  0  0  0  0  0
   17.4681   21.5401   21.4221 H   0  0  0  0  0  0  0  0  0  0  0  0
   16.7088   20.6793   22.7748 H   0  0  0  0  0  0  0  0  0  0  0  0
  1  2  1  0  0  0  0
  1  3  1  0  0  0  0
  1  4  1  0  0  0  0
  1  5  1  0  0  0  0
  5  6  1  0  0  0  0
  5  7  1  0  0  0  0
  5  8  1  0  0  0  0
  8  9  1  0  0  0  0
  8 10  1  0  0  0  0
  8 11  1  0  0  0  0
 11 12  1  0  0  0  0
 11 13  1  0  0  0  0
 11 14  1  0  0  0  0
 14 15  1  0  0  0  0
 14 16  1  0  0  0  0
 14 17  1  0  0  0  0
 17 18  1  0  0  0  0
 17 19  1  0  0  0  0
 17 20  1  0  0  0  0
 20 21  1  0  0  0  0
 20 22  1  0  0  0  0
 20 23  1  0  0  0  0
M  END
> <VConfSearch Rank>
525

> <Conf_Id>
90

> <Delta U+W>
1.131

> <U+W>
-7.251

> <U>
48.641

> <W>
-55.892

> <W(PB)>
-57.962

> <W(SA)>
2.070

> <Valence>
2.922

> <Coulomb>
45.269

> <VdW>
0.450

> <VdW6>
-7.045

> <VdW12>
7.495

> <Bond>
0.220

> <Angle>
1.205

> <Pdih>
1.497

> <Idih>
0.000

> <Tether>
0.000

$$$$
VeraChem MOL file


 23 22  0  0  0  0  0  0  0  0999 V2000     
   19.1466   16.9908   24.2464 N   0  3  0  0  0  0  0  0  0  0  0  0
   18.3485   16.3587   24.3707 H   0  0  0  0  0  0  0  0  0  0  0  0
   18.7774   17.9465   24.2502 H   0  0  0  0  0  0  0  0  0  0  0  0
   19.7394   16.8908   25.0766 H   0  0  0  0  0  0  0  0  0  0  0  0
   19.9091   16.6912   22.9708 C   0  0  0  0  0  0  0  0  0  0  0  0
   19.2155   16.7851   22.1313 H   0  0  0  0  0  0  0  0  0  0  0  0
   20.2437   15.6514   23.0192 H   0  0  0  0  0  0  0  0  0  0  0  0
   21.1270   17.6107   22.7464 C   0  0  0  0  0  0  0  0  0  0  0  0
   21.8385   17.4730   23.5714 H   0  0  0  0  0  0  0  0  0  0  0  0
   21.6487   17.2878   21.8357 H   0  0  0  0  0  0  0  0  0  0  0  0
   20.7679   19.1130   22.6244 C   0  0  0  0  0  0  0  0  0  0  0  0
   21.6957   19.6841   22.4828 H   0  0  0  0  0  0  0  0  0  0  0  0
   20.3342   19.4635   23.5695 H   0  0  0  0  0  0  0  0  0  0  0  0
   19.8027   19.4126   21.4497 C   0  0  0  0  0  0  0  0  0  0  0  0
   20.2148   18.9792   20.5279 H   0  0  0  0  0  0  0  0  0  0  0  0
   18.8359   18.9197   21.6182 H   0  0  0  0  0  0  0  0  0  0  0  0
   19.5675   20.9249   21.2193 C   0  0  0  0  0  0  0  0  0  0  0  0
   18.9634   21.0535   20.3103 H   0  0  0  0  0  0  0  0  0  0  0  0
   20.5264   21.4251   21.0240 H   0  0  0  0  0  0  0  0  0  0  0  0
   18.8487   21.6203   22.3978 C   0  0  0  0  0  0  0  0  0  0  0  0
   17.8986   21.1222   22.6304 H   0  0  0  0  0  0  0  0  0  0  0  0
   18.6266   22.6660   22.1486 H   0  0  0  0  0  0  0  0  0  0  0  0
   19.4677   21.6222   23.3034 H   0  0  0  0  0  0  0  0  0  0  0  0
  1  2  1  0  0  0  0
  1  3  1  0  0  0  0
  1  4  1  0  0  0  0
  1  5  1  0  0  0  0
  5  6  1  0  0  0  0
  5  7  1  0  0  0  0
  5  8  1  0  0  0  0
  8  9  1  0  0  0  0
  8 10  1  0  0  0  0
  8 11  1  0  0  0  0
 11 12  1  0  0  0  0
 11 13  1  0  0  0  0
 11 14  1  0  0  0  0
 14 15  1  0  0  0  0
 14 16  1  0  0  0  0
 14 17  1  0  0  0  0
 17 18  1  0  0  0  0
 17 19  1  0  0  0  0
 17 20  1  0  0  0  0
 20 21  1  0  0  0  0
 20 22  1  0  0  0  0
 20 23  1  0  0  0  0
M  END
> <VConfSearch Rank>
526

> <Conf_Id>
85

> <Delta U+W>
1.193

> <U+W>
-7.189

> <U>
48.775

> <W>
-55.965

> <W(PB)>
-58.038

> <W(SA)>
2.073

> <Valence>
2.602

> <Coulomb>
45.581

> <VdW>
0.592

> <VdW6>
-6.616

> <VdW12>
7.208

> <Bond>
0.196

> <Angle>
0.832

> <Pdih>
1.574

> <Idih>
0.000

> <Tether>
0.000

$$$$
VeraChem MOL file


 23 22  0  0  0  0  0  0  0  0999 V2000     
   18.5041   18.6056   24.1933 N   0  3  0  0  0  0  0  0  0  0  0  0
   19.0760   19.3826   23.8471 H   0  0  0  0  0  0  0  0  0  0  0  0
   18.7043   18.4984   25.1937 H   0  0  0  0  0  0  0  0  0  0  0  0
   17.5222   18.8893   24.1140 H   0  0  0  0  0  0  0  0  0  0  0  0
   18.7830   17.3292   23.4234 C   0  0  0  0  0  0  0  0  0  0  0  0
   18.1390   16.5537   23.8469 H   0  0  0  0  0  0  0  0  0  0  0  0
   19.8226   17.0372   23.5940 H   0  0  0  0  0  0  0  0  0  0  0  0
   18.5108   17.4379   21.9092 C   0  0  0  0  0  0  0  0  0  0  0  0
   18.3509   16.4216   21.5252 H   0  0  0  0  0  0  0  0  0  0  0  0
   17.5670   17.9729   21.7393 H   0  0  0  0  0  0  0  0  0  0  0  0
   19.6497   18.0852   21.0763 C   0  0  0  0  0  0  0  0  0  0  0  0
   19.3472   18.0465   20.0206 H   0  0  0  0  0  0  0  0  0  0  0  0
   20.5588   17.4716   21.1435 H   0  0  0  0  0  0  0  0  0  0  0  0
   19.9734   19.5598   21.4288 C   0  0  0  0  0  0  0  0  0  0  0  0
   20.2342   20.0907   20.5026 H   0  0  0  0  0  0  0  0  0  0  0  0
   19.0770   20.0628   21.8150 H   0  0  0  0  0  0  0  0  0  0  0  0
   21.1621   19.7050   22.4102 C   0  0  0  0  0  0  0  0  0  0  0  0
   22.0790   19.3426   21.9244 H   0  0  0  0  0  0  0  0  0  0  0  0
   21.0217   19.0758   23.2972 H   0  0  0  0  0  0  0  0  0  0  0  0
   21.3655   21.1712   22.8470 C   0  0  0  0  0  0  0  0  0  0  0  0
   21.5618   21.8164   21.9807 H   0  0  0  0  0  0  0  0  0  0  0  0
   22.2208   21.2568   23.5300 H   0  0  0  0  0  0  0  0  0  0  0  0
   20.4798   21.5588   23.3666 H   0  0  0  0  0  0  0  0  0  0  0  0
  1  2  1  0  0  0  0
  1  3  1  0  0  0  0
  1  4  1  0  0  0  0
  1  5  1  0  0  0  0
  5  6  1  0  0  0  0
  5  7  1  0  0  0  0
  5  8  1  0  0  0  0
  8  9  1  0  0  0  0
  8 10  1  0  0  0  0
  8 11  1  0  0  0  0
 11 12  1  0  0  0  0
 11 13  1  0  0  0  0
 11 14  1  0  0  0  0
 14 15  1  0  0  0  0
 14 16  1  0  0  0  0
 14 17  1  0  0  0  0
 17 18  1  0  0  0  0
 17 19  1  0  0  0  0
 17 20  1  0  0  0  0
 20 21  1  0  0  0  0
 20 22  1  0  0  0  0
 20 23  1  0  0  0  0
M  END
> <VConfSearch Rank>
527

> <Conf_Id>
82

> <Delta U+W>
5.994

> <U+W>
-2.388

> <U>
52.836

> <W>
-55.224

> <W(PB)>
-57.261

> <W(SA)>
2.037

> <Valence>
5.785

> <Coulomb>
46.744

> <VdW>
0.307

> <VdW6>
-7.672

> <VdW12>
7.979

> <Bond>
0.217

> <Angle>
1.470

> <Pdih>
4.098

> <Idih>
0.000

> <Tether>
0.000

$$$$
VeraChem MOL file


 23 22  0  0  0  0  0  0  0  0999 V2000     
   21.4384   17.7638   23.1172 N   0  3  0  0  0  0  0  0  0  0  0  0
   22.0312   17.3869   22.3705 H   0  0  0  0  0  0  0  0  0  0  0  0
   21.9662   17.6732   23.9922 H   0  0  0  0  0  0  0  0  0  0  0  0
   21.3158   18.7650   22.9347 H   0  0  0  0  0  0  0  0  0  0  0  0
   20.1033   17.0482   23.1885 C   0  0  0  0  0  0  0  0  0  0  0  0
   19.5395   17.4424   24.0381 H   0  0  0  0  0  0  0  0  0  0  0  0
   20.3163   15.9935   23.3827 H   0  0  0  0  0  0  0  0  0  0  0  0
   19.2608   17.1629   21.9017 C   0  0  0  0  0  0  0  0  0  0  0  0
   19.9032   17.0161   21.0233 H   0  0  0  0  0  0  0  0  0  0  0  0
   18.5487   16.3270   21.8935 H   0  0  0  0  0  0  0  0  0  0  0  0
   18.4489   18.4781   21.7566 C   0  0  0  0  0  0  0  0  0  0  0  0
   17.7128   18.5560   22.5686 H   0  0  0  0  0  0  0  0  0  0  0  0
   17.8592   18.3996   20.8327 H   0  0  0  0  0  0  0  0  0  0  0  0
   19.2953   19.7745   21.6768 C   0  0  0  0  0  0  0  0  0  0  0  0
   20.2780   19.5593   21.2366 H   0  0  0  0  0  0  0  0  0  0  0  0
   18.8052   20.4688   20.9799 H   0  0  0  0  0  0  0  0  0  0  0  0
   19.4393   20.4933   23.0405 C   0  0  0  0  0  0  0  0  0  0  0  0
   19.7899   19.8025   23.8165 H   0  0  0  0  0  0  0  0  0  0  0  0
   18.4513   20.8435   23.3713 H   0  0  0  0  0  0  0  0  0  0  0  0
   20.4003   21.6977   22.9521 C   0  0  0  0  0  0  0  0  0  0  0  0
   21.4088   21.3820   22.6553 H   0  0  0  0  0  0  0  0  0  0  0  0
   20.4781   22.2034   23.9234 H   0  0  0  0  0  0  0  0  0  0  0  0
   20.0438   22.4327   22.2186 H   0  0  0  0  0  0  0  0  0  0  0  0
  1  2  1  0  0  0  0
  1  3  1  0  0  0  0
  1  4  1  0  0  0  0
  1  5  1  0  0  0  0
  5  6  1  0  0  0  0
  5  7  1  0  0  0  0
  5  8  1  0  0  0  0
  8  9  1  0  0  0  0
  8 10  1  0  0  0  0
  8 11  1  0  0  0  0
 11 12  1  0  0  0  0
 11 13  1  0  0  0  0
 11 14  1  0  0  0  0
 14 15  1  0  0  0  0
 14 16  1  0  0  0  0
 14 17  1  0  0  0  0
 17 18  1  0  0  0  0
 17 19  1  0  0  0  0
 17 20  1  0  0  0  0
 20 21  1  0  0  0  0
 20 22  1  0  0  0  0
 20 23  1  0  0  0  0
M  END
> <VConfSearch Rank>
528

> <Conf_Id>
5

> <Delta U+W>
6.087

> <U+W>
-2.295

> <U>
52.836

> <W>
-55.131

> <W(PB)>
-57.202

> <W(SA)>
2.071

> <Valence>
5.785

> <Coulomb>
46.744

> <VdW>
0.307

> <VdW6>
-7.672

> <VdW12>
7.980

> <Bond>
0.217

> <Angle>
1.470

> <Pdih>
4.098

> <Idih>
0.000

> <Tether>
0.000

$$$$
VeraChem MOL file


 23 22  0  0  0  0  0  0  0  0999 V2000     
   23.5215   19.2552   23.3963 N   0  3  0  0  0  0  0  0  0  0  0  0
   23.4215   19.8134   24.2503 H   0  0  0  0  0  0  0  0  0  0  0  0
   24.4000   19.5443   22.9527 H   0  0  0  0  0  0  0  0  0  0  0  0
   23.6416   18.2793   23.6863 H   0  0  0  0  0  0  0  0  0  0  0  0
   22.3379   19.4274   22.4662 C   0  0  0  0  0  0  0  0  0  0  0  0
   22.5243   18.8312   21.5688 H   0  0  0  0  0  0  0  0  0  0  0  0
   22.2878   20.4801   22.1750 H   0  0  0  0  0  0  0  0  0  0  0  0
   21.0029   19.0019   23.1027 C   0  0  0  0  0  0  0  0  0  0  0  0
   21.0634   17.9487   23.4082 H   0  0  0  0  0  0  0  0  0  0  0  0
   20.8278   19.5918   24.0124 H   0  0  0  0  0  0  0  0  0  0  0  0
   19.8233   19.1927   22.1237 C   0  0  0  0  0  0  0  0  0  0  0  0
   20.0048   18.6052   21.2128 H   0  0  0  0  0  0  0  0  0  0  0  0
   19.7694   20.2465   21.8164 H   0  0  0  0  0  0  0  0  0  0  0  0
   18.4769   18.7683   22.7530 C   0  0  0  0  0  0  0  0  0  0  0  0
   18.5306   17.7146   23.0602 H   0  0  0  0  0  0  0  0  0  0  0  0
   18.2953   19.3557   23.6637 H   0  0  0  0  0  0  0  0  0  0  0  0
   17.2974   18.9593   21.7736 C   0  0  0  0  0  0  0  0  0  0  0  0
   17.4732   18.3716   20.8617 H   0  0  0  0  0  0  0  0  0  0  0  0
   17.2379   20.0126   21.4652 H   0  0  0  0  0  0  0  0  0  0  0  0
   15.9548   18.5344   22.4054 C   0  0  0  0  0  0  0  0  0  0  0  0
   15.1298   18.6773   21.6954 H   0  0  0  0  0  0  0  0  0  0  0  0
   15.7345   19.1290   23.3017 H   0  0  0  0  0  0  0  0  0  0  0  0
   15.9716   17.4752   22.6935 H   0  0  0  0  0  0  0  0  0  0  0  0
  1  2  1  0  0  0  0
  1  3  1  0  0  0  0
  1  4  1  0  0  0  0
  1  5  1  0  0  0  0
  5  6  1  0  0  0  0
  5  7  1  0  0  0  0
  5  8  1  0  0  0  0
  8  9  1  0  0  0  0
  8 10  1  0  0  0  0
  8 11  1  0  0  0  0
 11 12  1  0  0  0  0
 11 13  1  0  0  0  0
 11 14  1  0  0  0  0
 14 15  1  0  0  0  0
 14 16  1  0  0  0  0
 14 17  1  0  0  0  0
 17 18  1  0  0  0  0
 17 19  1  0  0  0  0
 17 20  1  0  0  0  0
 20 21  1  0  0  0  0
 20 22  1  0  0  0  0
 20 23  1  0  0  0  0
M  END
> <VConfSearch Rank>
529

> <Conf_Id>
40

> <Delta U+W>
0.000

> <U+W>
-8.382

> <U>
46.604

> <W>
-54.986

> <W(PB)>
-57.162

> <W(SA)>
2.176

> <Valence>
1.727

> <Coulomb>
44.434

> <VdW>
0.443

> <VdW6>
-4.623

> <VdW12>
5.066

> <Bond>
0.112

> <Angle>
0.386

> <Pdih>
1.228

> <Idih>
0.000

> <Tether>
0.000

$$$$
VeraChem MOL file


 23 22  0  0  0  0  0  0  0  0999 V2000     
   21.3416   20.7687   19.9214 N   0  3  0  0  0  0  0  0  0  0  0  0
   21.0135   21.7392   19.8864 H   0  0  0  0  0  0  0  0  0  0  0  0
   20.8787   20.2662   19.1572 H   0  0  0  0  0  0  0  0  0  0  0  0
   22.3437   20.7850   19.7035 H   0  0  0  0  0  0  0  0  0  0  0  0
   21.0684   20.1277   21.2669 C   0  0  0  0  0  0  0  0  0  0  0  0
   21.6126   20.6942   22.0274 H   0  0  0  0  0  0  0  0  0  0  0  0
   21.4703   19.1116   21.2413 H   0  0  0  0  0  0  0  0  0  0  0  0
   19.5703   20.0884   21.6234 C   0  0  0  0  0  0  0  0  0  0  0  0
   19.1702   21.1108   21.5985 H   0  0  0  0  0  0  0  0  0  0  0  0
   19.0233   19.5184   20.8606 H   0  0  0  0  0  0  0  0  0  0  0  0
   19.3012   19.4795   23.0200 C   0  0  0  0  0  0  0  0  0  0  0  0
   18.2324   19.5924   23.2436 H   0  0  0  0  0  0  0  0  0  0  0  0
   19.8419   20.0576   23.7821 H   0  0  0  0  0  0  0  0  0  0  0  0
   19.6976   17.9842   23.1181 C   0  0  0  0  0  0  0  0  0  0  0  0
   19.1410   17.4034   22.3696 H   0  0  0  0  0  0  0  0  0  0  0  0
   20.7610   17.8689   22.8703 H   0  0  0  0  0  0  0  0  0  0  0  0
   19.4626   17.3756   24.5220 C   0  0  0  0  0  0  0  0  0  0  0  0
   20.0255   17.9463   25.2738 H   0  0  0  0  0  0  0  0  0  0  0  0
   19.8755   16.3572   24.5375 H   0  0  0  0  0  0  0  0  0  0  0  0
   17.9717   17.3125   24.9254 C   0  0  0  0  0  0  0  0  0  0  0  0
   17.5433   18.3149   25.0476 H   0  0  0  0  0  0  0  0  0  0  0  0
   17.8549   16.7862   25.8817 H   0  0  0  0  0  0  0  0  0  0  0  0
   17.3811   16.7747   24.1725 H   0  0  0  0  0  0  0  0  0  0  0  0
  1  2  1  0  0  0  0
  1  3  1  0  0  0  0
  1  4  1  0  0  0  0
  1  5  1  0  0  0  0
  5  6  1  0  0  0  0
  5  7  1  0  0  0  0
  5  8  1  0  0  0  0
  8  9  1  0  0  0  0
  8 10  1  0  0  0  0
  8 11  1  0  0  0  0
 11 12  1  0  0  0  0
 11 13  1  0  0  0  0
 11 14  1  0  0  0  0
 14 15  1  0  0  0  0
 14 16  1  0  0  0  0
 14 17  1  0  0  0  0
 17 18  1  0  0  0  0
 17 19  1  0  0  0  0
 17 20  1  0  0  0  0
 20 21  1  0  0  0  0
 20 22  1  0  0  0  0
 20 23  1  0  0  0  0
M  END
> <VConfSearch Rank>
530

> <Conf_Id>
65

> <Delta U+W>
1.004

> <U+W>
-7.378

> <U>
48.047

> <W>
-55.425

> <W(PB)>
-57.542

> <W(SA)>
2.116

> <Valence>
2.583

> <Coulomb>
44.791

> <VdW>
0.673

> <VdW6>
-5.788

> <VdW12>
6.462

> <Bond>
0.177

> <Angle>
0.787

> <Pdih>
1.619

> <Idih>
0.000

> <Tether>
0.000

$$$$
VeraChem MOL file


 23 22  0  0  0  0  0  0  0  0999 V2000     
   17.2403   21.3285   23.6456 N   0  3  0  0  0  0  0  0  0  0  0  0
   16.5186   21.4144   22.9227 H   0  0  0  0  0  0  0  0  0  0  0  0
   17.3870   22.2668   24.0330 H   0  0  0  0  0  0  0  0  0  0  0  0
   16.8467   20.7538   24.3977 H   0  0  0  0  0  0  0  0  0  0  0  0
   18.5236   20.7393   23.0962 C   0  0  0  0  0  0  0  0  0  0  0  0
   19.2523   20.7068   23.9101 H   0  0  0  0  0  0  0  0  0  0  0  0
   18.9008   21.4140   22.3229 H   0  0  0  0  0  0  0  0  0  0  0  0
   18.3357   19.3287   22.5062 C   0  0  0  0  0  0  0  0  0  0  0  0
   17.9579   18.6503   23.2827 H   0  0  0  0  0  0  0  0  0  0  0  0
   17.5670   19.3685   21.7229 H   0  0  0  0  0  0  0  0  0  0  0  0
   19.6378   18.7527   21.9009 C   0  0  0  0  0  0  0  0  0  0  0  0
   20.0080   19.4286   21.1176 H   0  0  0  0  0  0  0  0  0  0  0  0
   19.3953   17.8041   21.4046 H   0  0  0  0  0  0  0  0  0  0  0  0
   20.7476   18.5178   22.9573 C   0  0  0  0  0  0  0  0  0  0  0  0
   20.9721   19.4622   23.4704 H   0  0  0  0  0  0  0  0  0  0  0  0
   20.3839   17.8256   23.7291 H   0  0  0  0  0  0  0  0  0  0  0  0
   22.0655   17.9727   22.3553 C   0  0  0  0  0  0  0  0  0  0  0  0
   22.8289   17.9470   23.1454 H   0  0  0  0  0  0  0  0  0  0  0  0
   22.4396   18.6666   21.5896 H   0  0  0  0  0  0  0  0  0  0  0  0
   21.9285   16.5563   21.7515 C   0  0  0  0  0  0  0  0  0  0  0  0
   21.2700   16.5529   20.8743 H   0  0  0  0  0  0  0  0  0  0  0  0
   21.5246   15.8501   22.4885 H   0  0  0  0  0  0  0  0  0  0  0  0
   22.9081   16.1803   21.4289 H   0  0  0  0  0  0  0  0  0  0  0  0
  1  2  1  0  0  0  0
  1  3  1  0  0  0  0
  1  4  1  0  0  0  0
  1  5  1  0  0  0  0
  5  6  1  0  0  0  0
  5  7  1  0  0  0  0
  5  8  1  0  0  0  0
  8  9  1  0  0  0  0
  8 10  1  0  0  0  0
  8 11  1  0  0  0  0
 11 12  1  0  0  0  0
 11 13  1  0  0  0  0
 11 14  1  0  0  0  0
 14 15  1  0  0  0  0
 14 16  1  0  0  0  0
 14 17  1  0  0  0  0
 17 18  1  0  0  0  0
 17 19  1  0  0  0  0
 17 20  1  0  0  0  0
 20 21  1  0  0  0  0
 20 22  1  0  0  0  0
 20 23  1  0  0  0  0
M  END
> <VConfSearch Rank>
531

> <Conf_Id>
92

> <Delta U+W>
0.973

> <U+W>
-7.409

> <U>
48.047

> <W>
-55.456

> <W(PB)>
-57.595

> <W(SA)>
2.138

> <Valence>
2.583

> <Coulomb>
44.791

> <VdW>
0.674

> <VdW6>
-5.789

> <VdW12>
6.462

> <Bond>
0.177

> <Angle>
0.787

> <Pdih>
1.619

> <Idih>
0.000

> <Tether>
0.000

$$$$
VeraChem MOL file


 23 22  0  0  0  0  0  0  0  0999 V2000     
   18.9273   16.7603   25.2345 N   0  3  0  0  0  0  0  0  0  0  0  0
   18.0408   16.2445   25.2395 H   0  0  0  0  0  0  0  0  0  0  0  0
   19.0717   17.1133   26.1860 H   0  0  0  0  0  0  0  0  0  0  0  0
   19.6688   16.0766   25.0509 H   0  0  0  0  0  0  0  0  0  0  0  0
   18.9227   17.8780   24.2115 C   0  0  0  0  0  0  0  0  0  0  0  0
   18.0942   18.5504   24.4499 H   0  0  0  0  0  0  0  0  0  0  0  0
   18.7343   17.4338   23.2307 H   0  0  0  0  0  0  0  0  0  0  0  0
   20.2420   18.6725   24.1798 C   0  0  0  0  0  0  0  0  0  0  0  0
   20.4419   19.0758   25.1814 H   0  0  0  0  0  0  0  0  0  0  0  0
   21.0742   17.9969   23.9411 H   0  0  0  0  0  0  0  0  0  0  0  0
   20.2128   19.8401   23.1654 C   0  0  0  0  0  0  0  0  0  0  0  0
   21.1441   20.4149   23.2633 H   0  0  0  0  0  0  0  0  0  0  0  0
   19.3951   20.5279   23.4219 H   0  0  0  0  0  0  0  0  0  0  0  0
   20.0580   19.3683   21.6995 C   0  0  0  0  0  0  0  0  0  0  0  0
   20.8581   18.6553   21.4567 H   0  0  0  0  0  0  0  0  0  0  0  0
   19.1068   18.8336   21.5754 H   0  0  0  0  0  0  0  0  0  0  0  0
   20.1063   20.5519   20.7077 C   0  0  0  0  0  0  0  0  0  0  0  0
   21.0585   21.0898   20.8172 H   0  0  0  0  0  0  0  0  0  0  0  0
   19.3081   21.2687   20.9465 H   0  0  0  0  0  0  0  0  0  0  0  0
   19.9504   20.0804   19.2462 C   0  0  0  0  0  0  0  0  0  0  0  0
   20.7547   19.3872   18.9672 H   0  0  0  0  0  0  0  0  0  0  0  0
   19.9877   20.9343   18.5574 H   0  0  0  0  0  0  0  0  0  0  0  0
   18.9908   19.5686   19.0966 H   0  0  0  0  0  0  0  0  0  0  0  0
  1  2  1  0  0  0  0
  1  3  1  0  0  0  0
  1  4  1  0  0  0  0
  1  5  1  0  0  0  0
  5  6  1  0  0  0  0
  5  7  1  0  0  0  0
  5  8  1  0  0  0  0
  8  9  1  0  0  0  0
  8 10  1  0  0  0  0
  8 11  1  0  0  0  0
 11 12  1  0  0  0  0
 11 13  1  0  0  0  0
 11 14  1  0  0  0  0
 14 15  1  0  0  0  0
 14 16  1  0  0  0  0
 14 17  1  0  0  0  0
 17 18  1  0  0  0  0
 17 19  1  0  0  0  0
 17 20  1  0  0  0  0
 20 21  1  0  0  0  0
 20 22  1  0  0  0  0
 20 23  1  0  0  0  0
M  END
> <VConfSearch Rank>
532

> <Conf_Id>
42

> <Delta U+W>
0.365

> <U+W>
-8.017

> <U>
47.375

> <W>
-55.392

> <W(PB)>
-57.543

> <W(SA)>
2.152

> <Valence>
2.032

> <Coulomb>
44.843

> <VdW>
0.499

> <VdW6>
-5.218

> <VdW12>
5.717

> <Bond>
0.135

> <Angle>
0.514

> <Pdih>
1.383

> <Idih>
0.000

> <Tether>
0.000

$$$$
VeraChem MOL file


 23 22  0  0  0  0  0  0  0  0999 V2000     
   22.6893   17.8466   23.0443 N   0  3  0  0  0  0  0  0  0  0  0  0
   22.9863   18.6540   23.6015 H   0  0  0  0  0  0  0  0  0  0  0  0
   23.5414   17.3592   22.7469 H   0  0  0  0  0  0  0  0  0  0  0  0
   22.1867   17.2131   23.6731 H   0  0  0  0  0  0  0  0  0  0  0  0
   21.8362   18.2611   21.8612 C   0  0  0  0  0  0  0  0  0  0  0  0
   21.5746   17.3610   21.2983 H   0  0  0  0  0  0  0  0  0  0  0  0
   22.4504   18.8977   21.2185 H   0  0  0  0  0  0  0  0  0  0  0  0
   20.5530   19.0197   22.2528 C   0  0  0  0  0  0  0  0  0  0  0  0
   20.8168   19.9083   22.8414 H   0  0  0  0  0  0  0  0  0  0  0  0
   20.0795   19.3758   21.3297 H   0  0  0  0  0  0  0  0  0  0  0  0
   19.5519   18.1372   23.0374 C   0  0  0  0  0  0  0  0  0  0  0  0
   20.0570   17.6962   23.9067 H   0  0  0  0  0  0  0  0  0  0  0  0
   19.2380   17.2941   22.4064 H   0  0  0  0  0  0  0  0  0  0  0  0
   18.2974   18.8926   23.5480 C   0  0  0  0  0  0  0  0  0  0  0  0
   17.6921   18.1770   24.1215 H   0  0  0  0  0  0  0  0  0  0  0  0
   18.5915   19.6713   24.2653 H   0  0  0  0  0  0  0  0  0  0  0  0
   17.4023   19.4982   22.4360 C   0  0  0  0  0  0  0  0  0  0  0  0
   16.3518   19.4141   22.7478 H   0  0  0  0  0  0  0  0  0  0  0  0
   17.4903   18.9104   21.5117 H   0  0  0  0  0  0  0  0  0  0  0  0
   17.6973   20.9903   22.1553 C   0  0  0  0  0  0  0  0  0  0  0  0
   17.5382   21.5969   23.0563 H   0  0  0  0  0  0  0  0  0  0  0  0
   17.0282   21.3735   21.3741 H   0  0  0  0  0  0  0  0  0  0  0  0
   18.7272   21.1516   21.8186 H   0  0  0  0  0  0  0  0  0  0  0  0
  1  2  1  0  0  0  0
  1  3  1  0  0  0  0
  1  4  1  0  0  0  0
  1  5  1  0  0  0  0
  5  6  1  0  0  0  0
  5  7  1  0  0  0  0
  5  8  1  0  0  0  0
  8  9  1  0  0  0  0
  8 10  1  0  0  0  0
  8 11  1  0  0  0  0
 11 12  1  0  0  0  0
 11 13  1  0  0  0  0
 11 14  1  0  0  0  0
 14 15  1  0  0  0  0
 14 16  1  0  0  0  0
 14 17  1  0  0  0  0
 17 18  1  0  0  0  0
 17 19  1  0  0  0  0
 17 20  1  0  0  0  0
 20 21  1  0  0  0  0
 20 22  1  0  0  0  0
 20 23  1  0  0  0  0
M  END
> <VConfSearch Rank>
533

> <Conf_Id>
3

> <Delta U+W>
3.283

> <U+W>
-5.099

> <U>
50.701

> <W>
-55.800

> <W(PB)>
-57.867

> <W(SA)>
2.067

> <Valence>
4.880

> <Coulomb>
45.095

> <VdW>
0.726

> <VdW6>
-6.620

> <VdW12>
7.346

> <Bond>
0.222

> <Angle>
1.260

> <Pdih>
3.398

> <Idih>
0.000

> <Tether>
0.000

$$$$
VeraChem MOL file


 23 22  0  0  0  0  0  0  0  0999 V2000     
   20.6807   16.4051   21.8036 N   0  3  0  0  0  0  0  0  0  0  0  0
   21.6915   16.2653   21.8991 H   0  0  0  0  0  0  0  0  0  0  0  0
   20.2834   15.5130   21.4903 H   0  0  0  0  0  0  0  0  0  0  0  0
   20.3097   16.5869   22.7411 H   0  0  0  0  0  0  0  0  0  0  0  0
   20.3565   17.5339   20.8450 C   0  0  0  0  0  0  0  0  0  0  0  0
   19.2691   17.6094   20.7652 H   0  0  0  0  0  0  0  0  0  0  0  0
   20.7493   17.2589   19.8623 H   0  0  0  0  0  0  0  0  0  0  0  0
   20.9458   18.8952   21.2680 C   0  0  0  0  0  0  0  0  0  0  0  0
   22.0409   18.8184   21.2938 H   0  0  0  0  0  0  0  0  0  0  0  0
   20.7099   19.6371   20.4936 H   0  0  0  0  0  0  0  0  0  0  0  0
   20.4372   19.4090   22.6388 C   0  0  0  0  0  0  0  0  0  0  0  0
   20.9478   20.3557   22.8574 H   0  0  0  0  0  0  0  0  0  0  0  0
   20.7336   18.7114   23.4332 H   0  0  0  0  0  0  0  0  0  0  0  0
   18.9031   19.6270   22.6775 C   0  0  0  0  0  0  0  0  0  0  0  0
   18.6116   20.3465   21.9000 H   0  0  0  0  0  0  0  0  0  0  0  0
   18.3916   18.6863   22.4351 H   0  0  0  0  0  0  0  0  0  0  0  0
   18.3847   20.1148   24.0522 C   0  0  0  0  0  0  0  0  0  0  0  0
   18.6640   19.3933   24.8327 H   0  0  0  0  0  0  0  0  0  0  0  0
   17.2861   20.1308   24.0282 H   0  0  0  0  0  0  0  0  0  0  0  0
   18.8929   21.5225   24.4391 C   0  0  0  0  0  0  0  0  0  0  0  0
   18.6551   22.2567   23.6585 H   0  0  0  0  0  0  0  0  0  0  0  0
   19.9779   21.5303   24.6002 H   0  0  0  0  0  0  0  0  0  0  0  0
   18.4197   21.8586   25.3708 H   0  0  0  0  0  0  0  0  0  0  0  0
  1  2  1  0  0  0  0
  1  3  1  0  0  0  0
  1  4  1  0  0  0  0
  1  5  1  0  0  0  0
  5  6  1  0  0  0  0
  5  7  1  0  0  0  0
  5  8  1  0  0  0  0
  8  9  1  0  0  0  0
  8 10  1  0  0  0  0
  8 11  1  0  0  0  0
 11 12  1  0  0  0  0
 11 13  1  0  0  0  0
 11 14  1  0  0  0  0
 14 15  1  0  0  0  0
 14 16  1  0  0  0  0
 14 17  1  0  0  0  0
 17 18  1  0  0  0  0
 17 19  1  0  0  0  0
 17 20  1  0  0  0  0
 20 21  1  0  0  0  0
 20 22  1  0  0  0  0
 20 23  1  0  0  0  0
M  END
> <VConfSearch Rank>
534

> <Conf_Id>
83

> <Delta U+W>
1.229

> <U+W>
-7.154

> <U>
48.727

> <W>
-55.880

> <W(PB)>
-57.960

> <W(SA)>
2.080

> <Valence>
2.671

> <Coulomb>
45.371

> <VdW>
0.684

> <VdW6>
-6.511

> <VdW12>
7.195

> <Bond>
0.203

> <Angle>
0.915

> <Pdih>
1.554

> <Idih>
0.000

> <Tether>
0.000

$$$$
VeraChem MOL file


 23 22  0  0  0  0  0  0  0  0999 V2000     
   20.5958   19.4328   19.8368 N   0  3  0  0  0  0  0  0  0  0  0  0
   21.5287   19.8510   19.7640 H   0  0  0  0  0  0  0  0  0  0  0  0
   19.9930   20.1156   20.3058 H   0  0  0  0  0  0  0  0  0  0  0  0
   20.2409   19.3242   18.8807 H   0  0  0  0  0  0  0  0  0  0  0  0
   20.6276   18.1115   20.5795 C   0  0  0  0  0  0  0  0  0  0  0  0
   21.2574   17.4240   20.0084 H   0  0  0  0  0  0  0  0  0  0  0  0
   19.6126   17.7064   20.5947 H   0  0  0  0  0  0  0  0  0  0  0  0
   21.1681   18.2226   22.0199 C   0  0  0  0  0  0  0  0  0  0  0  0
   21.2069   17.2173   22.4601 H   0  0  0  0  0  0  0  0  0  0  0  0
   22.2053   18.5814   21.9860 H   0  0  0  0  0  0  0  0  0  0  0  0
   20.3362   19.1511   22.9406 C   0  0  0  0  0  0  0  0  0  0  0  0
   20.3530   20.1774   22.5504 H   0  0  0  0  0  0  0  0  0  0  0  0
   20.8296   19.1887   23.9203 H   0  0  0  0  0  0  0  0  0  0  0  0
   18.8698   18.6808   23.1168 C   0  0  0  0  0  0  0  0  0  0  0  0
   18.3826   18.6195   22.1348 H   0  0  0  0  0  0  0  0  0  0  0  0
   18.8546   17.6641   23.5332 H   0  0  0  0  0  0  0  0  0  0  0  0
   18.0258   19.6185   24.0138 C   0  0  0  0  0  0  0  0  0  0  0  0
   16.9804   19.2801   23.9906 H   0  0  0  0  0  0  0  0  0  0  0  0
   18.0285   20.6349   23.5961 H   0  0  0  0  0  0  0  0  0  0  0  0
   18.5014   19.6589   25.4840 C   0  0  0  0  0  0  0  0  0  0  0  0
   18.5392   18.6499   25.9148 H   0  0  0  0  0  0  0  0  0  0  0  0
   17.8130   20.2582   26.0937 H   0  0  0  0  0  0  0  0  0  0  0  0
   19.4975   20.1094   25.5742 H   0  0  0  0  0  0  0  0  0  0  0  0
  1  2  1  0  0  0  0
  1  3  1  0  0  0  0
  1  4  1  0  0  0  0
  1  5  1  0  0  0  0
  5  6  1  0  0  0  0
  5  7  1  0  0  0  0
  5  8  1  0  0  0  0
  8  9  1  0  0  0  0
  8 10  1  0  0  0  0
  8 11  1  0  0  0  0
 11 12  1  0  0  0  0
 11 13  1  0  0  0  0
 11 14  1  0  0  0  0
 14 15  1  0  0  0  0
 14 16  1  0  0  0  0
 14 17  1  0  0  0  0
 17 18  1  0  0  0  0
 17 19  1  0  0  0  0
 17 20  1  0  0  0  0
 20 21  1  0  0  0  0
 20 22  1  0  0  0  0
 20 23  1  0  0  0  0
M  END
> <VConfSearch Rank>
535

> <Conf_Id>
50

> <Delta U+W>
1.252

> <U+W>
-7.130

> <U>
48.727

> <W>
-55.857

> <W(PB)>
-57.937

> <W(SA)>
2.080

> <Valence>
2.671

> <Coulomb>
45.371

> <VdW>
0.684

> <VdW6>
-6.511

> <VdW12>
7.196

> <Bond>
0.203

> <Angle>
0.915

> <Pdih>
1.554

> <Idih>
0.000

> <Tether>
0.000

$$$$
VeraChem MOL file


 23 22  0  0  0  0  0  0  0  0999 V2000     
   19.1036   16.0029   23.2287 N   0  3  0  0  0  0  0  0  0  0  0  0
   18.1780   16.4418   23.2154 H   0  0  0  0  0  0  0  0  0  0  0  0
   19.0692   15.2522   23.9267 H   0  0  0  0  0  0  0  0  0  0  0  0
   19.2406   15.5563   22.3163 H   0  0  0  0  0  0  0  0  0  0  0  0
   20.1981   17.0066   23.5352 C   0  0  0  0  0  0  0  0  0  0  0  0
   21.1456   16.4622   23.5734 H   0  0  0  0  0  0  0  0  0  0  0  0
   20.0062   17.4258   24.5266 H   0  0  0  0  0  0  0  0  0  0  0  0
   20.3050   18.1457   22.5028 C   0  0  0  0  0  0  0  0  0  0  0  0
   21.1857   18.7495   22.7488 H   0  0  0  0  0  0  0  0  0  0  0  0
   20.4925   17.7195   21.5083 H   0  0  0  0  0  0  0  0  0  0  0  0
   19.0373   19.0367   22.4633 C   0  0  0  0  0  0  0  0  0  0  0  0
   18.7871   19.3911   23.4728 H   0  0  0  0  0  0  0  0  0  0  0  0
   18.1883   18.4210   22.1374 H   0  0  0  0  0  0  0  0  0  0  0  0
   19.1615   20.2407   21.4932 C   0  0  0  0  0  0  0  0  0  0  0  0
   19.8383   19.9942   20.6634 H   0  0  0  0  0  0  0  0  0  0  0  0
   18.1789   20.4116   21.0320 H   0  0  0  0  0  0  0  0  0  0  0  0
   19.5992   21.5692   22.1616 C   0  0  0  0  0  0  0  0  0  0  0  0
   18.8603   21.8601   22.9213 H   0  0  0  0  0  0  0  0  0  0  0  0
   19.5826   22.3634   21.4021 H   0  0  0  0  0  0  0  0  0  0  0  0
   21.0035   21.5272   22.8028 C   0  0  0  0  0  0  0  0  0  0  0  0
   21.7576   21.1829   22.0833 H   0  0  0  0  0  0  0  0  0  0  0  0
   21.0234   20.8635   23.6759 H   0  0  0  0  0  0  0  0  0  0  0  0
   21.2986   22.5275   23.1453 H   0  0  0  0  0  0  0  0  0  0  0  0
  1  2  1  0  0  0  0
  1  3  1  0  0  0  0
  1  4  1  0  0  0  0
  1  5  1  0  0  0  0
  5  6  1  0  0  0  0
  5  7  1  0  0  0  0
  5  8  1  0  0  0  0
  8  9  1  0  0  0  0
  8 10  1  0  0  0  0
  8 11  1  0  0  0  0
 11 12  1  0  0  0  0
 11 13  1  0  0  0  0
 11 14  1  0  0  0  0
 14 15  1  0  0  0  0
 14 16  1  0  0  0  0
 14 17  1  0  0  0  0
 17 18  1  0  0  0  0
 17 19  1  0  0  0  0
 17 20  1  0  0  0  0
 20 21  1  0  0  0  0
 20 22  1  0  0  0  0
 20 23  1  0  0  0  0
M  END
> <VConfSearch Rank>
536

> <Conf_Id>
55

> <Delta U+W>
3.232

> <U+W>
-5.150

> <U>
50.625

> <W>
-55.776

> <W(PB)>
-57.839

> <W(SA)>
2.064

> <Valence>
4.837

> <Coulomb>
45.097

> <VdW>
0.692

> <VdW6>
-6.655

> <VdW12>
7.347

> <Bond>
0.223

> <Angle>
1.167

> <Pdih>
3.447

> <Idih>
0.000

> <Tether>
0.000

$$$$
VeraChem MOL file


 23 22  0  0  0  0  0  0  0  0999 V2000     
   17.2512   20.7731   22.7956 N   0  3  0  0  0  0  0  0  0  0  0  0
   16.6932   20.8288   23.6537 H   0  0  0  0  0  0  0  0  0  0  0  0
   16.5943   20.8235   22.0095 H   0  0  0  0  0  0  0  0  0  0  0  0
   17.8287   21.6191   22.7563 H   0  0  0  0  0  0  0  0  0  0  0  0
   18.0905   19.5125   22.7483 C   0  0  0  0  0  0  0  0  0  0  0  0
   18.6256   19.5039   21.7970 H   0  0  0  0  0  0  0  0  0  0  0  0
   17.4113   18.6559   22.7647 H   0  0  0  0  0  0  0  0  0  0  0  0
   19.0835   19.4055   23.9223 C   0  0  0  0  0  0  0  0  0  0  0  0
   19.7429   20.2832   23.9464 H   0  0  0  0  0  0  0  0  0  0  0  0
   18.5080   19.4244   24.8574 H   0  0  0  0  0  0  0  0  0  0  0  0
   19.9269   18.1059   23.8890 C   0  0  0  0  0  0  0  0  0  0  0  0
   19.3115   17.2667   23.5361 H   0  0  0  0  0  0  0  0  0  0  0  0
   20.2076   17.8545   24.9213 H   0  0  0  0  0  0  0  0  0  0  0  0
   21.2337   18.1949   23.0584 C   0  0  0  0  0  0  0  0  0  0  0  0
   21.8870   18.9681   23.4858 H   0  0  0  0  0  0  0  0  0  0  0  0
   21.7742   17.2447   23.1694 H   0  0  0  0  0  0  0  0  0  0  0  0
   21.0221   18.4773   21.5531 C   0  0  0  0  0  0  0  0  0  0  0  0
   20.6255   19.4915   21.4150 H   0  0  0  0  0  0  0  0  0  0  0  0
   20.2807   17.7780   21.1420 H   0  0  0  0  0  0  0  0  0  0  0  0
   22.3401   18.3509   20.7595 C   0  0  0  0  0  0  0  0  0  0  0  0
   22.7532   17.3368   20.8378 H   0  0  0  0  0  0  0  0  0  0  0  0
   23.0939   19.0569   21.1317 H   0  0  0  0  0  0  0  0  0  0  0  0
   22.1740   18.5651   19.6958 H   0  0  0  0  0  0  0  0  0  0  0  0
  1  2  1  0  0  0  0
  1  3  1  0  0  0  0
  1  4  1  0  0  0  0
  1  5  1  0  0  0  0
  5  6  1  0  0  0  0
  5  7  1  0  0  0  0
  5  8  1  0  0  0  0
  8  9  1  0  0  0  0
  8 10  1  0  0  0  0
  8 11  1  0  0  0  0
 11 12  1  0  0  0  0
 11 13  1  0  0  0  0
 11 14  1  0  0  0  0
 14 15  1  0  0  0  0
 14 16  1  0  0  0  0
 14 17  1  0  0  0  0
 17 18  1  0  0  0  0
 17 19  1  0  0  0  0
 17 20  1  0  0  0  0
 20 21  1  0  0  0  0
 20 22  1  0  0  0  0
 20 23  1  0  0  0  0
M  END
> <VConfSearch Rank>
537

> <Conf_Id>
93

> <Delta U+W>
2.589

> <U+W>
-5.793

> <U>
50.122

> <W>
-55.915

> <W(PB)>
-58.031

> <W(SA)>
2.115

> <Valence>
4.132

> <Coulomb>
45.536

> <VdW>
0.454

> <VdW6>
-6.262

> <VdW12>
6.715

> <Bond>
0.182

> <Angle>
1.157

> <Pdih>
2.794

> <Idih>
0.000

> <Tether>
0.000

$$$$
VeraChem MOL file


 23 22  0  0  0  0  0  0  0  0999 V2000     
   22.1377   20.7787   23.3995 N   0  3  0  0  0  0  0  0  0  0  0  0
   22.0138   20.4974   24.3773 H   0  0  0  0  0  0  0  0  0  0  0  0
   22.0595   21.8010   23.3709 H   0  0  0  0  0  0  0  0  0  0  0  0
   23.1016   20.5467   23.1390 H   0  0  0  0  0  0  0  0  0  0  0  0
   21.1295   20.1111   22.4866 C   0  0  0  0  0  0  0  0  0  0  0  0
   21.3016   20.4775   21.4709 H   0  0  0  0  0  0  0  0  0  0  0  0
   20.1338   20.4307   22.7992 H   0  0  0  0  0  0  0  0  0  0  0  0
   21.2279   18.5729   22.5030 C   0  0  0  0  0  0  0  0  0  0  0  0
   22.2429   18.2936   22.1901 H   0  0  0  0  0  0  0  0  0  0  0  0
   21.1033   18.1928   23.5257 H   0  0  0  0  0  0  0  0  0  0  0  0
   20.2134   17.8883   21.5525 C   0  0  0  0  0  0  0  0  0  0  0  0
   20.6381   16.9255   21.2360 H   0  0  0  0  0  0  0  0  0  0  0  0
   20.1008   18.4796   20.6331 H   0  0  0  0  0  0  0  0  0  0  0  0
   18.8224   17.6025   22.1762 C   0  0  0  0  0  0  0  0  0  0  0  0
   18.2218   17.0564   21.4356 H   0  0  0  0  0  0  0  0  0  0  0  0
   18.9380   16.9248   23.0334 H   0  0  0  0  0  0  0  0  0  0  0  0
   18.0444   18.8626   22.6203 C   0  0  0  0  0  0  0  0  0  0  0  0
   18.0227   19.5963   21.8024 H   0  0  0  0  0  0  0  0  0  0  0  0
   18.5532   19.3361   23.4699 H   0  0  0  0  0  0  0  0  0  0  0  0
   16.5987   18.5207   23.0395 C   0  0  0  0  0  0  0  0  0  0  0  0
   16.0647   19.4240   23.3619 H   0  0  0  0  0  0  0  0  0  0  0  0
   16.5882   17.8072   23.8739 H   0  0  0  0  0  0  0  0  0  0  0  0
   16.0388   18.0790   22.2048 H   0  0  0  0  0  0  0  0  0  0  0  0
  1  2  1  0  0  0  0
  1  3  1  0  0  0  0
  1  4  1  0  0  0  0
  1  5  1  0  0  0  0
  5  6  1  0  0  0  0
  5  7  1  0  0  0  0
  5  8  1  0  0  0  0
  8  9  1  0  0  0  0
  8 10  1  0  0  0  0
  8 11  1  0  0  0  0
 11 12  1  0  0  0  0
 11 13  1  0  0  0  0
 11 14  1  0  0  0  0
 14 15  1  0  0  0  0
 14 16  1  0  0  0  0
 14 17  1  0  0  0  0
 17 18  1  0  0  0  0
 17 19  1  0  0  0  0
 17 20  1  0  0  0  0
 20 21  1  0  0  0  0
 20 22  1  0  0  0  0
 20 23  1  0  0  0  0
M  END
> <VConfSearch Rank>
538

> <Conf_Id>
70

> <Delta U+W>
2.599

> <U+W>
-5.783

> <U>
50.122

> <W>
-55.906

> <W(PB)>
-58.010

> <W(SA)>
2.105

> <Valence>
4.132

> <Coulomb>
45.536

> <VdW>
0.454

> <VdW6>
-6.262

> <VdW12>
6.715

> <Bond>
0.182

> <Angle>
1.157

> <Pdih>
2.794

> <Idih>
0.000

> <Tether>
0.000

$$$$
VeraChem MOL file


 23 22  0  0  0  0  0  0  0  0999 V2000     
   22.5750   19.5582   22.9385 N   0  3  0  0  0  0  0  0  0  0  0  0
   23.1541   19.1843   23.6971 H   0  0  0  0  0  0  0  0  0  0  0  0
   23.1154   20.3055   22.4900 H   0  0  0  0  0  0  0  0  0  0  0  0
   22.4625   18.8109   22.2469 H   0  0  0  0  0  0  0  0  0  0  0  0
   21.2364   20.0570   23.4460 C   0  0  0  0  0  0  0  0  0  0  0  0
   20.6846   20.4711   22.5981 H   0  0  0  0  0  0  0  0  0  0  0  0
   21.4296   20.8675   24.1540 H   0  0  0  0  0  0  0  0  0  0  0  0
   20.3910   18.9662   24.1340 C   0  0  0  0  0  0  0  0  0  0  0  0
   20.9400   18.5821   25.0039 H   0  0  0  0  0  0  0  0  0  0  0  0
   19.4790   19.4258   24.5357 H   0  0  0  0  0  0  0  0  0  0  0  0
   20.0138   17.7818   23.2057 C   0  0  0  0  0  0  0  0  0  0  0  0
   19.3824   17.0794   23.7670 H   0  0  0  0  0  0  0  0  0  0  0  0
   20.9222   17.2215   22.9465 H   0  0  0  0  0  0  0  0  0  0  0  0
   19.2839   18.1840   21.8979 C   0  0  0  0  0  0  0  0  0  0  0  0
   19.9384   18.8116   21.2785 H   0  0  0  0  0  0  0  0  0  0  0  0
   19.0959   17.2734   21.3124 H   0  0  0  0  0  0  0  0  0  0  0  0
   17.9404   18.9119   22.1388 C   0  0  0  0  0  0  0  0  0  0  0  0
   18.1128   19.8621   22.6617 H   0  0  0  0  0  0  0  0  0  0  0  0
   17.2993   18.3015   22.7899 H   0  0  0  0  0  0  0  0  0  0  0  0
   17.2016   19.1965   20.8139 C   0  0  0  0  0  0  0  0  0  0  0  0
   16.2527   19.7151   21.0028 H   0  0  0  0  0  0  0  0  0  0  0  0
   16.9752   18.2645   20.2796 H   0  0  0  0  0  0  0  0  0  0  0  0
   17.8066   19.8310   20.1532 H   0  0  0  0  0  0  0  0  0  0  0  0
  1  2  1  0  0  0  0
  1  3  1  0  0  0  0
  1  4  1  0  0  0  0
  1  5  1  0  0  0  0
  5  6  1  0  0  0  0
  5  7  1  0  0  0  0
  5  8  1  0  0  0  0
  8  9  1  0  0  0  0
  8 10  1  0  0  0  0
  8 11  1  0  0  0  0
 11 12  1  0  0  0  0
 11 13  1  0  0  0  0
 11 14  1  0  0  0  0
 14 15  1  0  0  0  0
 14 16  1  0  0  0  0
 14 17  1  0  0  0  0
 17 18  1  0  0  0  0
 17 19  1  0  0  0  0
 17 20  1  0  0  0  0
 20 21  1  0  0  0  0
 20 22  1  0  0  0  0
 20 23  1  0  0  0  0
M  END
> <VConfSearch Rank>
539

> <Conf_Id>
72

> <Delta U+W>
1.051

> <U+W>
-7.331

> <U>
48.590

> <W>
-55.922

> <W(PB)>
-58.012

> <W(SA)>
2.090

> <Valence>
2.601

> <Coulomb>
45.520

> <VdW>
0.469

> <VdW6>
-6.867

> <VdW12>
7.336

> <Bond>
0.205

> <Angle>
0.962

> <Pdih>
1.434

> <Idih>
0.000

> <Tether>
0.000

$$$$
VeraChem MOL file


 23 22  0  0  0  0  0  0  0  0999 V2000     
   19.6256   21.6193   20.9515 N   0  3  0  0  0  0  0  0  0  0  0  0
   19.1626   21.8160   20.0577 H   0  0  0  0  0  0  0  0  0  0  0  0
   20.4781   22.1879   20.9765 H   0  0  0  0  0  0  0  0  0  0  0  0
   19.0077   21.9693   21.6907 H   0  0  0  0  0  0  0  0  0  0  0  0
   19.9259   20.1434   21.1168 C   0  0  0  0  0  0  0  0  0  0  0  0
   20.5620   19.8325   20.2837 H   0  0  0  0  0  0  0  0  0  0  0  0
   18.9806   19.5987   21.0501 H   0  0  0  0  0  0  0  0  0  0  0  0
   20.6219   19.8143   22.4507 C   0  0  0  0  0  0  0  0  0  0  0  0
   21.5511   20.3948   22.5238 H   0  0  0  0  0  0  0  0  0  0  0  0
   19.9901   20.1378   23.2876 H   0  0  0  0  0  0  0  0  0  0  0  0
   20.9601   18.3095   22.5930 C   0  0  0  0  0  0  0  0  0  0  0  0
   21.4723   18.1457   23.5505 H   0  0  0  0  0  0  0  0  0  0  0  0
   21.6883   18.0348   21.8174 H   0  0  0  0  0  0  0  0  0  0  0  0
   19.7404   17.3547   22.4868 C   0  0  0  0  0  0  0  0  0  0  0  0
   19.3293   17.3996   21.4693 H   0  0  0  0  0  0  0  0  0  0  0  0
   20.0914   16.3219   22.6174 H   0  0  0  0  0  0  0  0  0  0  0  0
   18.5999   17.6267   23.5005 C   0  0  0  0  0  0  0  0  0  0  0  0
   17.7928   16.9025   23.3221 H   0  0  0  0  0  0  0  0  0  0  0  0
   18.1601   18.6168   23.3209 H   0  0  0  0  0  0  0  0  0  0  0  0
   19.0508   17.5155   24.9746 C   0  0  0  0  0  0  0  0  0  0  0  0
   19.5059   16.5370   25.1751 H   0  0  0  0  0  0  0  0  0  0  0  0
   18.1926   17.6313   25.6491 H   0  0  0  0  0  0  0  0  0  0  0  0
   19.7806   18.2932   25.2318 H   0  0  0  0  0  0  0  0  0  0  0  0
  1  2  1  0  0  0  0
  1  3  1  0  0  0  0
  1  4  1  0  0  0  0
  1  5  1  0  0  0  0
  5  6  1  0  0  0  0
  5  7  1  0  0  0  0
  5  8  1  0  0  0  0
  8  9  1  0  0  0  0
  8 10  1  0  0  0  0
  8 11  1  0  0  0  0
 11 12  1  0  0  0  0
 11 13  1  0  0  0  0
 11 14  1  0  0  0  0
 14 15  1  0  0  0  0
 14 16  1  0  0  0  0
 14 17  1  0  0  0  0
 17 18  1  0  0  0  0
 17 19  1  0  0  0  0
 17 20  1  0  0  0  0
 20 21  1  0  0  0  0
 20 22  1  0  0  0  0
 20 23  1  0  0  0  0
M  END
> <VConfSearch Rank>
540

> <Conf_Id>
26

> <Delta U+W>
1.076

> <U+W>
-7.306

> <U>
48.641

> <W>
-55.947

> <W(PB)>
-58.031

> <W(SA)>
2.084

> <Valence>
2.922

> <Coulomb>
45.269

> <VdW>
0.449

> <VdW6>
-7.045

> <VdW12>
7.494

> <Bond>
0.220

> <Angle>
1.205

> <Pdih>
1.497

> <Idih>
0.000

> <Tether>
0.000

$$$$
VeraChem MOL file


 23 22  0  0  0  0  0  0  0  0999 V2000     
   22.3333   20.5436   23.6504 N   0  3  0  0  0  0  0  0  0  0  0  0
   23.1259   20.5675   23.0007 H   0  0  0  0  0  0  0  0  0  0  0  0
   22.7221   20.6124   24.5970 H   0  0  0  0  0  0  0  0  0  0  0  0
   21.7861   21.3954   23.4901 H   0  0  0  0  0  0  0  0  0  0  0  0
   21.4968   19.2925   23.4751 C   0  0  0  0  0  0  0  0  0  0  0  0
   20.6930   19.3194   24.2154 H   0  0  0  0  0  0  0  0  0  0  0  0
   22.1321   18.4285   23.6878 H   0  0  0  0  0  0  0  0  0  0  0  0
   20.8976   19.1595   22.0626 C   0  0  0  0  0  0  0  0  0  0  0  0
   20.2701   20.0326   21.8429 H   0  0  0  0  0  0  0  0  0  0  0  0
   21.7108   19.1711   21.3248 H   0  0  0  0  0  0  0  0  0  0  0  0
   20.0770   17.8583   21.8817 C   0  0  0  0  0  0  0  0  0  0  0  0
   20.7507   16.9967   21.9866 H   0  0  0  0  0  0  0  0  0  0  0  0
   19.6978   17.8133   20.8521 H   0  0  0  0  0  0  0  0  0  0  0  0
   18.8975   17.6882   22.8770 C   0  0  0  0  0  0  0  0  0  0  0  0
   18.3793   16.7467   22.6486 H   0  0  0  0  0  0  0  0  0  0  0  0
   19.2932   17.5673   23.8944 H   0  0  0  0  0  0  0  0  0  0  0  0
   17.8621   18.8415   22.8757 C   0  0  0  0  0  0  0  0  0  0  0  0
   18.3348   19.7768   23.2042 H   0  0  0  0  0  0  0  0  0  0  0  0
   17.0878   18.6176   23.6228 H   0  0  0  0  0  0  0  0  0  0  0  0
   17.1828   19.0538   21.5039 C   0  0  0  0  0  0  0  0  0  0  0  0
   17.9025   19.3870   20.7458 H   0  0  0  0  0  0  0  0  0  0  0  0
   16.4004   19.8202   21.5765 H   0  0  0  0  0  0  0  0  0  0  0  0
   16.7134   18.1272   21.1487 H   0  0  0  0  0  0  0  0  0  0  0  0
  1  2  1  0  0  0  0
  1  3  1  0  0  0  0
  1  4  1  0  0  0  0
  1  5  1  0  0  0  0
  5  6  1  0  0  0  0
  5  7  1  0  0  0  0
  5  8  1  0  0  0  0
  8  9  1  0  0  0  0
  8 10  1  0  0  0  0
  8 11  1  0  0  0  0
 11 12  1  0  0  0  0
 11 13  1  0  0  0  0
 11 14  1  0  0  0  0
 14 15  1  0  0  0  0
 14 16  1  0  0  0  0
 14 17  1  0  0  0  0
 17 18  1  0  0  0  0
 17 19  1  0  0  0  0
 17 20  1  0  0  0  0
 20 21  1  0  0  0  0
 20 22  1  0  0  0  0
 20 23  1  0  0  0  0
M  END
> <VConfSearch Rank>
541

> <Conf_Id>
90

> <Delta U+W>
1.131

> <U+W>
-7.251

> <U>
48.641

> <W>
-55.892

> <W(PB)>
-57.962

> <W(SA)>
2.070

> <Valence>
2.922

> <Coulomb>
45.269

> <VdW>
0.450

> <VdW6>
-7.045

> <VdW12>
7.495

> <Bond>
0.220

> <Angle>
1.205

> <Pdih>
1.497

> <Idih>
0.000

> <Tether>
0.000

$$$$
VeraChem MOL file


 23 22  0  0  0  0  0  0  0  0999 V2000     
   19.9621   21.5798   22.4426 N   0  3  0  0  0  0  0  0  0  0  0  0
   19.3407   22.3471   22.1650 H   0  0  0  0  0  0  0  0  0  0  0  0
   19.9969   20.9215   21.6583 H   0  0  0  0  0  0  0  0  0  0  0  0
   20.9008   21.9779   22.5470 H   0  0  0  0  0  0  0  0  0  0  0  0
   19.4913   20.9065   23.7168 C   0  0  0  0  0  0  0  0  0  0  0  0
   18.4779   20.5332   23.5483 H   0  0  0  0  0  0  0  0  0  0  0  0
   19.4458   21.6691   24.4990 H   0  0  0  0  0  0  0  0  0  0  0  0
   20.4023   19.7516   24.1805 C   0  0  0  0  0  0  0  0  0  0  0  0
   21.4047   20.1468   24.3919 H   0  0  0  0  0  0  0  0  0  0  0  0
   20.0199   19.3625   25.1335 H   0  0  0  0  0  0  0  0  0  0  0  0
   20.5138   18.5895   23.1618 C   0  0  0  0  0  0  0  0  0  0  0  0
   21.1910   17.8280   23.5724 H   0  0  0  0  0  0  0  0  0  0  0  0
   20.9861   18.9542   22.2409 H   0  0  0  0  0  0  0  0  0  0  0  0
   19.1478   17.9331   22.8383 C   0  0  0  0  0  0  0  0  0  0  0  0
   18.6537   17.6523   23.7786 H   0  0  0  0  0  0  0  0  0  0  0  0
   18.4863   18.6579   22.3454 H   0  0  0  0  0  0  0  0  0  0  0  0
   19.2685   16.6711   21.9505 C   0  0  0  0  0  0  0  0  0  0  0  0
   18.2758   16.2089   21.8576 H   0  0  0  0  0  0  0  0  0  0  0  0
   19.9084   15.9274   22.4457 H   0  0  0  0  0  0  0  0  0  0  0  0
   19.8146   16.9669   20.5350 C   0  0  0  0  0  0  0  0  0  0  0  0
   19.2070   17.7278   20.0282 H   0  0  0  0  0  0  0  0  0  0  0  0
   19.7963   16.0585   19.9190 H   0  0  0  0  0  0  0  0  0  0  0  0
   20.8524   17.3209   20.5688 H   0  0  0  0  0  0  0  0  0  0  0  0
  1  2  1  0  0  0  0
  1  3  1  0  0  0  0
  1  4  1  0  0  0  0
  1  5  1  0  0  0  0
  5  6  1  0  0  0  0
  5  7  1  0  0  0  0
  5  8  1  0  0  0  0
  8  9  1  0  0  0  0
  8 10  1  0  0  0  0
  8 11  1  0  0  0  0
 11 12  1  0  0  0  0
 11 13  1  0  0  0  0
 11 14  1  0  0  0  0
 14 15  1  0  0  0  0
 14 16  1  0  0  0  0
 14 17  1  0  0  0  0
 17 18  1  0  0  0  0
 17 19  1  0  0  0  0
 17 20  1  0  0  0  0
 20 21  1  0  0  0  0
 20 22  1  0  0  0  0
 20 23  1  0  0  0  0
M  END
> <VConfSearch Rank>
542

> <Conf_Id>
85

> <Delta U+W>
1.193

> <U+W>
-7.189

> <U>
48.775

> <W>
-55.965

> <W(PB)>
-58.038

> <W(SA)>
2.073

> <Valence>
2.602

> <Coulomb>
45.581

> <VdW>
0.592

> <VdW6>
-6.616

> <VdW12>
7.208

> <Bond>
0.196

> <Angle>
0.832

> <Pdih>
1.574

> <Idih>
0.000

> <Tether>
0.000

$$$$
VeraChem MOL file


 23 22  0  0  0  0  0  0  0  0999 V2000     
   20.8005   20.5198   23.3311 N   0  3  0  0  0  0  0  0  0  0  0  0
   20.9491   19.8272   22.5903 H   0  0  0  0  0  0  0  0  0  0  0  0
   21.6621   20.5662   23.8860 H   0  0  0  0  0  0  0  0  0  0  0  0
   20.6875   21.4327   22.8783 H   0  0  0  0  0  0  0  0  0  0  0  0
   19.5990   20.1650   24.1855 C   0  0  0  0  0  0  0  0  0  0  0  0
   19.5061   20.9454   24.9457 H   0  0  0  0  0  0  0  0  0  0  0  0
   19.7982   19.2181   24.6943 H   0  0  0  0  0  0  0  0  0  0  0  0
   18.2761   20.0690   23.3985 C   0  0  0  0  0  0  0  0  0  0  0  0
   17.4528   20.2101   24.1114 H   0  0  0  0  0  0  0  0  0  0  0  0
   18.2041   20.9051   22.6903 H   0  0  0  0  0  0  0  0  0  0  0  0
   18.0396   18.7229   22.6622 C   0  0  0  0  0  0  0  0  0  0  0  0
   17.0458   18.7738   22.1961 H   0  0  0  0  0  0  0  0  0  0  0  0
   17.9802   17.9023   23.3907 H   0  0  0  0  0  0  0  0  0  0  0  0
   19.0712   18.3817   21.5564 C   0  0  0  0  0  0  0  0  0  0  0  0
   18.5468   17.8742   20.7347 H   0  0  0  0  0  0  0  0  0  0  0  0
   19.4794   19.3035   21.1213 H   0  0  0  0  0  0  0  0  0  0  0  0
   20.2033   17.4463   22.0467 C   0  0  0  0  0  0  0  0  0  0  0  0
   19.7752   16.4710   22.3179 H   0  0  0  0  0  0  0  0  0  0  0  0
   20.6701   17.8352   22.9595 H   0  0  0  0  0  0  0  0  0  0  0  0
   21.2838   17.2419   20.9638 C   0  0  0  0  0  0  0  0  0  0  0  0
   20.8521   16.8024   20.0550 H   0  0  0  0  0  0  0  0  0  0  0  0
   22.0696   16.5649   21.3235 H   0  0  0  0  0  0  0  0  0  0  0  0
   21.7584   18.1929   20.6898 H   0  0  0  0  0  0  0  0  0  0  0  0
  1  2  1  0  0  0  0
  1  3  1  0  0  0  0
  1  4  1  0  0  0  0
  1  5  1  0  0  0  0
  5  6  1  0  0  0  0
  5  7  1  0  0  0  0
  5  8  1  0  0  0  0
  8  9  1  0  0  0  0
  8 10  1  0  0  0  0
  8 11  1  0  0  0  0
 11 12  1  0  0  0  0
 11 13  1  0  0  0  0
 11 14  1  0  0  0  0
 14 15  1  0  0  0  0
 14 16  1  0  0  0  0
 14 17  1  0  0  0  0
 17 18  1  0  0  0  0
 17 19  1  0  0  0  0
 17 20  1  0  0  0  0
 20 21  1  0  0  0  0
 20 22  1  0  0  0  0
 20 23  1  0  0  0  0
M  END
> <VConfSearch Rank>
543

> <Conf_Id>
82

> <Delta U+W>
5.994

> <U+W>
-2.388

> <U>
52.836

> <W>
-55.224

> <W(PB)>
-57.261

> <W(SA)>
2.037

> <Valence>
5.785

> <Coulomb>
46.744

> <VdW>
0.307

> <VdW6>
-7.672

> <VdW12>
7.979

> <Bond>
0.217

> <Angle>
1.470

> <Pdih>
4.098

> <Idih>
0.000

> <Tether>
0.000

$$$$
VeraChem MOL file


 23 22  0  0  0  0  0  0  0  0999 V2000     
   19.7923   18.2212   20.6365 N   0  3  0  0  0  0  0  0  0  0  0  0
   19.8001   18.8916   19.8609 H   0  0  0  0  0  0  0  0  0  0  0  0
   20.0530   17.3092   20.2457 H   0  0  0  0  0  0  0  0  0  0  0  0
   20.5327   18.4990   21.2886 H   0  0  0  0  0  0  0  0  0  0  0  0
   18.4412   18.1739   21.3234 C   0  0  0  0  0  0  0  0  0  0  0  0
   18.4677   17.4008   22.0959 H   0  0  0  0  0  0  0  0  0  0  0  0
   17.7095   17.8739   20.5683 H   0  0  0  0  0  0  0  0  0  0  0  0
   18.0044   19.5177   21.9415 C   0  0  0  0  0  0  0  0  0  0  0  0
   18.2241   20.3362   21.2431 H   0  0  0  0  0  0  0  0  0  0  0  0
   16.9112   19.4983   22.0439 H   0  0  0  0  0  0  0  0  0  0  0  0
   18.6055   19.8309   23.3382 C   0  0  0  0  0  0  0  0  0  0  0  0
   18.2732   19.0783   24.0667 H   0  0  0  0  0  0  0  0  0  0  0  0
   18.1693   20.7805   23.6779 H   0  0  0  0  0  0  0  0  0  0  0  0
   20.1489   19.9697   23.3799 C   0  0  0  0  0  0  0  0  0  0  0  0
   20.5241   20.3244   22.4108 H   0  0  0  0  0  0  0  0  0  0  0  0
   20.4091   20.7554   24.1029 H   0  0  0  0  0  0  0  0  0  0  0  0
   20.8664   18.6683   23.8143 C   0  0  0  0  0  0  0  0  0  0  0  0
   20.5315   17.8132   23.2152 H   0  0  0  0  0  0  0  0  0  0  0  0
   20.5946   18.4346   24.8534 H   0  0  0  0  0  0  0  0  0  0  0  0
   22.4005   18.8001   23.7093 C   0  0  0  0  0  0  0  0  0  0  0  0
   22.7135   19.0017   22.6767 H   0  0  0  0  0  0  0  0  0  0  0  0
   22.8921   17.8743   24.0353 H   0  0  0  0  0  0  0  0  0  0  0  0
   22.7697   19.6173   24.3428 H   0  0  0  0  0  0  0  0  0  0  0  0
  1  2  1  0  0  0  0
  1  3  1  0  0  0  0
  1  4  1  0  0  0  0
  1  5  1  0  0  0  0
  5  6  1  0  0  0  0
  5  7  1  0  0  0  0
  5  8  1  0  0  0  0
  8  9  1  0  0  0  0
  8 10  1  0  0  0  0
  8 11  1  0  0  0  0
 11 12  1  0  0  0  0
 11 13  1  0  0  0  0
 11 14  1  0  0  0  0
 14 15  1  0  0  0  0
 14 16  1  0  0  0  0
 14 17  1  0  0  0  0
 17 18  1  0  0  0  0
 17 19  1  0  0  0  0
 17 20  1  0  0  0  0
 20 21  1  0  0  0  0
 20 22  1  0  0  0  0
 20 23  1  0  0  0  0
M  END
> <VConfSearch Rank>
544

> <Conf_Id>
5

> <Delta U+W>
6.087

> <U+W>
-2.295

> <U>
52.836

> <W>
-55.131

> <W(PB)>
-57.202

> <W(SA)>
2.071

> <Valence>
5.785

> <Coulomb>
46.744

> <VdW>
0.307

> <VdW6>
-7.672

> <VdW12>
7.980

> <Bond>
0.217

> <Angle>
1.470

> <Pdih>
4.098

> <Idih>
0.000

> <Tether>
0.000

$$$$
VeraChem MOL file


 23 22  0  0  0  0  0  0  0  0999 V2000     
   23.5770   19.2482   22.1382 N   0  3  0  0  0  0  0  0  0  0  0  0
   23.7873   19.5803   23.0849 H   0  0  0  0  0  0  0  0  0  0  0  0
   24.2653   19.6791   21.5116 H   0  0  0  0  0  0  0  0  0  0  0  0
   23.7547   18.2386   22.1264 H   0  0  0  0  0  0  0  0  0  0  0  0
   22.1567   19.5774   21.7256 C   0  0  0  0  0  0  0  0  0  0  0  0
   22.0120   19.2231   20.7014 H   0  0  0  0  0  0  0  0  0  0  0  0
   22.0471   20.6652   21.7316 H   0  0  0  0  0  0  0  0  0  0  0  0
   21.0984   18.9449   22.6469 C   0  0  0  0  0  0  0  0  0  0  0  0
   21.2227   17.8538   22.6503 H   0  0  0  0  0  0  0  0  0  0  0  0
   21.2577   19.2908   23.6770 H   0  0  0  0  0  0  0  0  0  0  0  0
   19.6663   19.3041   22.1929 C   0  0  0  0  0  0  0  0  0  0  0  0
   19.5127   18.9612   21.1602 H   0  0  0  0  0  0  0  0  0  0  0  0
   19.5476   20.3967   22.1858 H   0  0  0  0  0  0  0  0  0  0  0  0
   18.5949   18.6739   23.1116 C   0  0  0  0  0  0  0  0  0  0  0  0
   18.7133   17.5814   23.1187 H   0  0  0  0  0  0  0  0  0  0  0  0
   18.7483   19.0166   24.1443 H   0  0  0  0  0  0  0  0  0  0  0  0
   17.1626   19.0333   22.6574 C   0  0  0  0  0  0  0  0  0  0  0  0
   17.0034   18.6903   21.6254 H   0  0  0  0  0  0  0  0  0  0  0  0
   17.0384   20.1254   22.6509 H   0  0  0  0  0  0  0  0  0  0  0  0
   16.0956   18.4023   23.5770 C   0  0  0  0  0  0  0  0  0  0  0  0
   15.0858   18.6686   23.2387 H   0  0  0  0  0  0  0  0  0  0  0  0
   16.2080   18.7534   24.6110 H   0  0  0  0  0  0  0  0  0  0  0  0
   16.1727   17.3071   23.5776 H   0  0  0  0  0  0  0  0  0  0  0  0
  1  2  1  0  0  0  0
  1  3  1  0  0  0  0
  1  4  1  0  0  0  0
  1  5  1  0  0  0  0
  5  6  1  0  0  0  0
  5  7  1  0  0  0  0
  5  8  1  0  0  0  0
  8  9  1  0  0  0  0
  8 10  1  0  0  0  0
  8 11  1  0  0  0  0
 11 12  1  0  0  0  0
 11 13  1  0  0  0  0
 11 14  1  0  0  0  0
 14 15  1  0  0  0  0
 14 16  1  0  0  0  0
 14 17  1  0  0  0  0
 17 18  1  0  0  0  0
 17 19  1  0  0  0  0
 17 20  1  0  0  0  0
 20 21  1  0  0  0  0
 20 22  1  0  0  0  0
 20 23  1  0  0  0  0
M  END
> <VConfSearch Rank>
545

> <Conf_Id>
40

> <Delta U+W>
0.000

> <U+W>
-8.382

> <U>
46.604

> <W>
-54.986

> <W(PB)>
-57.162

> <W(SA)>
2.176

> <Valence>
1.727

> <Coulomb>
44.434

> <VdW>
0.443

> <VdW6>
-4.623

> <VdW12>
5.066

> <Bond>
0.112

> <Angle>
0.386

> <Pdih>
1.228

> <Idih>
0.000

> <Tether>
0.000

$$$$
VeraChem MOL file


 23 22  0  0  0  0  0  0  0  0999 V2000     
   19.8719   22.5929   22.5708 N   0  3  0  0  0  0  0  0  0  0  0  0
   20.6698   22.9192   22.0160 H   0  0  0  0  0  0  0  0  0  0  0  0
   20.1181   22.7216   23.5575 H   0  0  0  0  0  0  0  0  0  0  0  0
   19.0917   23.2286   22.3728 H   0  0  0  0  0  0  0  0  0  0  0  0
   19.5178   21.1530   22.2594 C   0  0  0  0  0  0  0  0  0  0  0  0
   19.2397   21.0945   21.2037 H   0  0  0  0  0  0  0  0  0  0  0  0
   18.6453   20.8854   22.8607 H   0  0  0  0  0  0  0  0  0  0  0  0
   20.6709   20.1726   22.5463 C   0  0  0  0  0  0  0  0  0  0  0  0
   21.5543   20.4820   21.9720 H   0  0  0  0  0  0  0  0  0  0  0  0
   20.9500   20.2300   23.6069 H   0  0  0  0  0  0  0  0  0  0  0  0
   20.3217   18.7109   22.1788 C   0  0  0  0  0  0  0  0  0  0  0  0
   21.2254   18.1003   22.3038 H   0  0  0  0  0  0  0  0  0  0  0  0
   20.0524   18.6550   21.1150 H   0  0  0  0  0  0  0  0  0  0  0  0
   19.1748   18.1244   23.0409 C   0  0  0  0  0  0  0  0  0  0  0  0
   19.4534   18.1615   24.1031 H   0  0  0  0  0  0  0  0  0  0  0  0
   18.2786   18.7498   22.9347 H   0  0  0  0  0  0  0  0  0  0  0  0
   18.7964   16.6731   22.6575 C   0  0  0  0  0  0  0  0  0  0  0  0
   18.5065   16.6318   21.5982 H   0  0  0  0  0  0  0  0  0  0  0  0
   17.9062   16.3786   23.2308 H   0  0  0  0  0  0  0  0  0  0  0  0
   19.9224   15.6496   22.9292 C   0  0  0  0  0  0  0  0  0  0  0  0
   20.7927   15.8257   22.2850 H   0  0  0  0  0  0  0  0  0  0  0  0
   19.5690   14.6291   22.7327 H   0  0  0  0  0  0  0  0  0  0  0  0
   20.2530   15.6942   23.9750 H   0  0  0  0  0  0  0  0  0  0  0  0
  1  2  1  0  0  0  0
  1  3  1  0  0  0  0
  1  4  1  0  0  0  0
  1  5  1  0  0  0  0
  5  6  1  0  0  0  0
  5  7  1  0  0  0  0
  5  8  1  0  0  0  0
  8  9  1  0  0  0  0
  8 10  1  0  0  0  0
  8 11  1  0  0  0  0
 11 12  1  0  0  0  0
 11 13  1  0  0  0  0
 11 14  1  0  0  0  0
 14 15  1  0  0  0  0
 14 16  1  0  0  0  0
 14 17  1  0  0  0  0
 17 18  1  0  0  0  0
 17 19  1  0  0  0  0
 17 20  1  0  0  0  0
 20 21  1  0  0  0  0
 20 22  1  0  0  0  0
 20 23  1  0  0  0  0
M  END
> <VConfSearch Rank>
546

> <Conf_Id>
65

> <Delta U+W>
1.004

> <U+W>
-7.378

> <U>
48.047

> <W>
-55.425

> <W(PB)>
-57.542

> <W(SA)>
2.116

> <Valence>
2.583

> <Coulomb>
44.791

> <VdW>
0.673

> <VdW6>
-5.788

> <VdW12>
6.462

> <Bond>
0.177

> <Angle>
0.787

> <Pdih>
1.619

> <Idih>
0.000

> <Tether>
0.000

$$$$
VeraChem MOL file


 23 22  0  0  0  0  0  0  0  0999 V2000     
   19.6224   15.6978   23.9194 N   0  3  0  0  0  0  0  0  0  0  0  0
   19.8302   15.7007   24.9232 H   0  0  0  0  0  0  0  0  0  0  0  0
   20.0689   14.8627   23.5253 H   0  0  0  0  0  0  0  0  0  0  0  0
   18.6102   15.5689   23.8214 H   0  0  0  0  0  0  0  0  0  0  0  0
   20.0995   16.9652   23.2397 C   0  0  0  0  0  0  0  0  0  0  0  0
   19.8739   16.8785   22.1738 H   0  0  0  0  0  0  0  0  0  0  0  0
   21.1848   17.0238   23.3583 H   0  0  0  0  0  0  0  0  0  0  0  0
   19.4465   18.2384   23.8104 C   0  0  0  0  0  0  0  0  0  0  0  0
   18.3564   18.1806   23.6904 H   0  0  0  0  0  0  0  0  0  0  0  0
   19.6415   18.2867   24.8900 H   0  0  0  0  0  0  0  0  0  0  0  0
   19.9747   19.5328   23.1478 C   0  0  0  0  0  0  0  0  0  0  0  0
   21.0642   19.5927   23.2780 H   0  0  0  0  0  0  0  0  0  0  0  0
   19.5494   20.3910   23.6840 H   0  0  0  0  0  0  0  0  0  0  0  0
   19.6210   19.6332   21.6420 C   0  0  0  0  0  0  0  0  0  0  0  0
   20.0257   18.7619   21.1106 H   0  0  0  0  0  0  0  0  0  0  0  0
   18.5305   19.5942   21.5142 H   0  0  0  0  0  0  0  0  0  0  0  0
   20.1744   20.9098   20.9632 C   0  0  0  0  0  0  0  0  0  0  0  0
   19.9824   20.8452   19.8830 H   0  0  0  0  0  0  0  0  0  0  0  0
   21.2666   20.9488   21.0789 H   0  0  0  0  0  0  0  0  0  0  0  0
   19.5471   22.2161   21.5013 C   0  0  0  0  0  0  0  0  0  0  0  0
   19.8169   22.3919   22.5498 H   0  0  0  0  0  0  0  0  0  0  0  0
   18.4522   22.1883   21.4272 H   0  0  0  0  0  0  0  0  0  0  0  0
   19.9005   23.0786   20.9216 H   0  0  0  0  0  0  0  0  0  0  0  0
  1  2  1  0  0  0  0
  1  3  1  0  0  0  0
  1  4  1  0  0  0  0
  1  5  1  0  0  0  0
  5  6  1  0  0  0  0
  5  7  1  0  0  0  0
  5  8  1  0  0  0  0
  8  9  1  0  0  0  0
  8 10  1  0  0  0  0
  8 11  1  0  0  0  0
 11 12  1  0  0  0  0
 11 13  1  0  0  0  0
 11 14  1  0  0  0  0
 14 15  1  0  0  0  0
 14 16  1  0  0  0  0
 14 17  1  0  0  0  0
 17 18  1  0  0  0  0
 17 19  1  0  0  0  0
 17 20  1  0  0  0  0
 20 21  1  0  0  0  0
 20 22  1  0  0  0  0
 20 23  1  0  0  0  0
M  END
> <VConfSearch Rank>
547

> <Conf_Id>
92

> <Delta U+W>
0.973

> <U+W>
-7.409

> <U>
48.047

> <W>
-55.456

> <W(PB)>
-57.595

> <W(SA)>
2.138

> <Valence>
2.583

> <Coulomb>
44.791

> <VdW>
0.674

> <VdW6>
-5.789

> <VdW12>
6.462

> <Bond>
0.177

> <Angle>
0.787

> <Pdih>
1.619

> <Idih>
0.000

> <Tether>
0.000

$$$$
VeraChem MOL file


 23 22  0  0  0  0  0  0  0  0999 V2000     
   17.8923   16.5576   24.3989 N   0  3  0  0  0  0  0  0  0  0  0  0
   18.2927   15.6412   24.6267 H   0  0  0  0  0  0  0  0  0  0  0  0
   16.9319   16.3920   24.0808 H   0  0  0  0  0  0  0  0  0  0  0  0
   17.8326   17.0832   25.2770 H   0  0  0  0  0  0  0  0  0  0  0  0
   18.7149   17.2883   23.3572 C   0  0  0  0  0  0  0  0  0  0  0  0
   18.7605   16.6615   22.4625 H   0  0  0  0  0  0  0  0  0  0  0  0
   19.7286   17.4019   23.7499 H   0  0  0  0  0  0  0  0  0  0  0  0
   18.1384   18.6696   22.9931 C   0  0  0  0  0  0  0  0  0  0  0  0
   17.1052   18.5459   22.6423 H   0  0  0  0  0  0  0  0  0  0  0  0
   18.0919   19.2988   23.8920 H   0  0  0  0  0  0  0  0  0  0  0  0
   18.9580   19.3895   21.8963 C   0  0  0  0  0  0  0  0  0  0  0  0
   18.4400   20.3192   21.6229 H   0  0  0  0  0  0  0  0  0  0  0  0
   18.9812   18.7690   20.9896 H   0  0  0  0  0  0  0  0  0  0  0  0
   20.4033   19.7235   22.3378 C   0  0  0  0  0  0  0  0  0  0  0  0
   20.3772   20.3160   23.2628 H   0  0  0  0  0  0  0  0  0  0  0  0
   20.9491   18.7986   22.5676 H   0  0  0  0  0  0  0  0  0  0  0  0
   21.1698   20.5058   21.2482 C   0  0  0  0  0  0  0  0  0  0  0  0
   20.6366   21.4384   21.0160 H   0  0  0  0  0  0  0  0  0  0  0  0
   21.1984   19.9177   20.3201 H   0  0  0  0  0  0  0  0  0  0  0  0
   22.6115   20.8371   21.6890 C   0  0  0  0  0  0  0  0  0  0  0  0
   22.6147   21.4537   22.5973 H   0  0  0  0  0  0  0  0  0  0  0  0
   23.1391   21.3927   20.9029 H   0  0  0  0  0  0  0  0  0  0  0  0
   23.1816   19.9218   21.8951 H   0  0  0  0  0  0  0  0  0  0  0  0
  1  2  1  0  0  0  0
  1  3  1  0  0  0  0
  1  4  1  0  0  0  0
  1  5  1  0  0  0  0
  5  6  1  0  0  0  0
  5  7  1  0  0  0  0
  5  8  1  0  0  0  0
  8  9  1  0  0  0  0
  8 10  1  0  0  0  0
  8 11  1  0  0  0  0
 11 12  1  0  0  0  0
 11 13  1  0  0  0  0
 11 14  1  0  0  0  0
 14 15  1  0  0  0  0
 14 16  1  0  0  0  0
 14 17  1  0  0  0  0
 17 18  1  0  0  0  0
 17 19  1  0  0  0  0
 17 20  1  0  0  0  0
 20 21  1  0  0  0  0
 20 22  1  0  0  0  0
 20 23  1  0  0  0  0
M  END
> <VConfSearch Rank>
548

> <Conf_Id>
42

> <Delta U+W>
0.365

> <U+W>
-8.017

> <U>
47.375

> <W>
-55.392

> <W(PB)>
-57.543

> <W(SA)>
2.152

> <Valence>
2.032

> <Coulomb>
44.843

> <VdW>
0.499

> <VdW6>
-5.218

> <VdW12>
5.717

> <Bond>
0.135

> <Angle>
0.514

> <Pdih>
1.383

> <Idih>
0.000

> <Tether>
0.000

$$$$
VeraChem MOL file


 23 22  0  0  0  0  0  0  0  0999 V2000     
   17.4978   17.0089   21.5815 N   0  3  0  0  0  0  0  0  0  0  0  0
   16.8641   17.2312   22.3559 H   0  0  0  0  0  0  0  0  0  0  0  0
   17.1573   16.1395   21.1570 H   0  0  0  0  0  0  0  0  0  0  0  0
   17.3888   17.7470   20.8796 H   0  0  0  0  0  0  0  0  0  0  0  0
   18.9351   16.8819   22.0479 C   0  0  0  0  0  0  0  0  0  0  0  0
   19.5517   16.6219   21.1832 H   0  0  0  0  0  0  0  0  0  0  0  0
   18.9792   16.0524   22.7589 H   0  0  0  0  0  0  0  0  0  0  0  0
   19.4889   18.1555   22.7161 C   0  0  0  0  0  0  0  0  0  0  0  0
   18.8521   18.4303   23.5674 H   0  0  0  0  0  0  0  0  0  0  0  0
   20.4800   17.9174   23.1211 H   0  0  0  0  0  0  0  0  0  0  0  0
   19.6072   19.3447   21.7320 C   0  0  0  0  0  0  0  0  0  0  0  0
   18.6368   19.5163   21.2480 H   0  0  0  0  0  0  0  0  0  0  0  0
   20.3078   19.0825   20.9271 H   0  0  0  0  0  0  0  0  0  0  0  0
   20.0537   20.6765   22.3892 C   0  0  0  0  0  0  0  0  0  0  0  0
   20.0570   21.4465   21.6052 H   0  0  0  0  0  0  0  0  0  0  0  0
   19.3045   21.0056   23.1224 H   0  0  0  0  0  0  0  0  0  0  0  0
   21.4615   20.6443   23.0384 C   0  0  0  0  0  0  0  0  0  0  0  0
   21.9407   21.6213   22.8839 H   0  0  0  0  0  0  0  0  0  0  0  0
   22.1013   19.9108   22.5283 H   0  0  0  0  0  0  0  0  0  0  0  0
   21.4297   20.3654   24.5594 C   0  0  0  0  0  0  0  0  0  0  0  0
   20.8545   21.1374   25.0870 H   0  0  0  0  0  0  0  0  0  0  0  0
   22.4469   20.3690   24.9718 H   0  0  0  0  0  0  0  0  0  0  0  0
   20.9807   19.3935   24.7919 H   0  0  0  0  0  0  0  0  0  0  0  0
  1  2  1  0  0  0  0
  1  3  1  0  0  0  0
  1  4  1  0  0  0  0
  1  5  1  0  0  0  0
  5  6  1  0  0  0  0
  5  7  1  0  0  0  0
  5  8  1  0  0  0  0
  8  9  1  0  0  0  0
  8 10  1  0  0  0  0
  8 11  1  0  0  0  0
 11 12  1  0  0  0  0
 11 13  1  0  0  0  0
 11 14  1  0  0  0  0
 14 15  1  0  0  0  0
 14 16  1  0  0  0  0
 14 17  1  0  0  0  0
 17 18  1  0  0  0  0
 17 19  1  0  0  0  0
 17 20  1  0  0  0  0
 20 21  1  0  0  0  0
 20 22  1  0  0  0  0
 20 23  1  0  0  0  0
M  END
> <VConfSearch Rank>
549

> <Conf_Id>
3

> <Delta U+W>
3.283

> <U+W>
-5.099

> <U>
50.701

> <W>
-55.800

> <W(PB)>
-57.867

> <W(SA)>
2.067

> <Valence>
4.880

> <Coulomb>
45.095

> <VdW>
0.726

> <VdW6>
-6.620

> <VdW12>
7.346

> <Bond>
0.222

> <Angle>
1.260

> <Pdih>
3.398

> <Idih>
0.000

> <Tether>
0.000

$$$$
VeraChem MOL file


 23 22  0  0  0  0  0  0  0  0999 V2000     
   17.6641   18.7082   24.5253 N   0  3  0  0  0  0  0  0  0  0  0  0
   17.7257   17.8264   25.0441 H   0  0  0  0  0  0  0  0  0  0  0  0
   16.8603   19.2217   24.9023 H   0  0  0  0  0  0  0  0  0  0  0  0
   18.5019   19.2526   24.7518 H   0  0  0  0  0  0  0  0  0  0  0  0
   17.5345   18.4757   23.0329 C   0  0  0  0  0  0  0  0  0  0  0  0
   17.4426   19.4491   22.5446 H   0  0  0  0  0  0  0  0  0  0  0  0
   16.6069   17.9227   22.8617 H   0  0  0  0  0  0  0  0  0  0  0  0
   18.7156   17.6935   22.4223 C   0  0  0  0  0  0  0  0  0  0  0  0
   18.7637   16.6991   22.8857 H   0  0  0  0  0  0  0  0  0  0  0  0
   18.5126   17.5243   21.3565 H   0  0  0  0  0  0  0  0  0  0  0  0
   20.0888   18.3954   22.5751 C   0  0  0  0  0  0  0  0  0  0  0  0
   20.8560   17.7378   22.1463 H   0  0  0  0  0  0  0  0  0  0  0  0
   20.3379   18.5022   23.6392 H   0  0  0  0  0  0  0  0  0  0  0  0
   20.1467   19.7801   21.8811 C   0  0  0  0  0  0  0  0  0  0  0  0
   19.9243   19.6675   20.8111 H   0  0  0  0  0  0  0  0  0  0  0  0
   19.3639   20.4308   22.2924 H   0  0  0  0  0  0  0  0  0  0  0  0
   21.5072   20.4986   22.0525 C   0  0  0  0  0  0  0  0  0  0  0  0
   21.7299   20.6238   23.1213 H   0  0  0  0  0  0  0  0  0  0  0  0
   21.4245   21.5121   21.6356 H   0  0  0  0  0  0  0  0  0  0  0  0
   22.6810   19.7710   21.3582 C   0  0  0  0  0  0  0  0  0  0  0  0
   22.4683   19.6039   20.2943 H   0  0  0  0  0  0  0  0  0  0  0  0
   22.8872   18.7999   21.8249 H   0  0  0  0  0  0  0  0  0  0  0  0
   23.5982   20.3701   21.4266 H   0  0  0  0  0  0  0  0  0  0  0  0
  1  2  1  0  0  0  0
  1  3  1  0  0  0  0
  1  4  1  0  0  0  0
  1  5  1  0  0  0  0
  5  6  1  0  0  0  0
  5  7  1  0  0  0  0
  5  8  1  0  0  0  0
  8  9  1  0  0  0  0
  8 10  1  0  0  0  0
  8 11  1  0  0  0  0
 11 12  1  0  0  0  0
 11 13  1  0  0  0  0
 11 14  1  0  0  0  0
 14 15  1  0  0  0  0
 14 16  1  0  0  0  0
 14 17  1  0  0  0  0
 17 18  1  0  0  0  0
 17 19  1  0  0  0  0
 17 20  1  0  0  0  0
 20 21  1  0  0  0  0
 20 22  1  0  0  0  0
 20 23  1  0  0  0  0
M  END
> <VConfSearch Rank>
550

> <Conf_Id>
83

> <Delta U+W>
1.229

> <U+W>
-7.154

> <U>
48.727

> <W>
-55.880

> <W(PB)>
-57.960

> <W(SA)>
2.080

> <Valence>
2.671

> <Coulomb>
45.371

> <VdW>
0.684

> <VdW6>
-6.511

> <VdW12>
7.195

> <Bond>
0.203

> <Angle>
0.915

> <Pdih>
1.554

> <Idih>
0.000

> <Tether>
0.000

$$$$
VeraChem MOL file


 23 22  0  0  0  0  0  0  0  0999 V2000     
   19.7796   19.5702   19.7222 N   0  3  0  0  0  0  0  0  0  0  0  0
   19.3558   18.8287   19.1556 H   0  0  0  0  0  0  0  0  0  0  0  0
   20.5868   19.1611   20.2025 H   0  0  0  0  0  0  0  0  0  0  0  0
   20.1420   20.2746   19.0707 H   0  0  0  0  0  0  0  0  0  0  0  0
   18.7884   20.1661   20.7023 C   0  0  0  0  0  0  0  0  0  0  0  0
   17.9755   20.6126   20.1231 H   0  0  0  0  0  0  0  0  0  0  0  0
   19.2923   20.9666   21.2499 H   0  0  0  0  0  0  0  0  0  0  0  0
   18.2046   19.1400   21.6951 C   0  0  0  0  0  0  0  0  0  0  0  0
   17.4608   19.6443   22.3262 H   0  0  0  0  0  0  0  0  0  0  0  0
   17.6577   18.3707   21.1340 H   0  0  0  0  0  0  0  0  0  0  0  0
   19.2627   18.4580   22.5989 C   0  0  0  0  0  0  0  0  0  0  0  0
   19.9693   17.8869   21.9822 H   0  0  0  0  0  0  0  0  0  0  0  0
   18.7468   17.7239   23.2313 H   0  0  0  0  0  0  0  0  0  0  0  0
   20.0372   19.4590   23.4936 C   0  0  0  0  0  0  0  0  0  0  0  0
   20.5337   20.2081   22.8630 H   0  0  0  0  0  0  0  0  0  0  0  0
   19.3310   20.0099   24.1300 H   0  0  0  0  0  0  0  0  0  0  0  0
   21.1144   18.7874   24.3797 C   0  0  0  0  0  0  0  0  0  0  0  0
   21.6901   19.5727   24.8892 H   0  0  0  0  0  0  0  0  0  0  0  0
   21.8301   18.2435   23.7476 H   0  0  0  0  0  0  0  0  0  0  0  0
   20.5294   17.8315   25.4443 C   0  0  0  0  0  0  0  0  0  0  0  0
   19.7856   18.3433   26.0687 H   0  0  0  0  0  0  0  0  0  0  0  0
   21.3237   17.4607   26.1050 H   0  0  0  0  0  0  0  0  0  0  0  0
   20.0505   16.9585   24.9841 H   0  0  0  0  0  0  0  0  0  0  0  0
  1  2  1  0  0  0  0
  1  3  1  0  0  0  0
  1  4  1  0  0  0  0
  1  5  1  0  0  0  0
  5  6  1  0  0  0  0
  5  7  1  0  0  0  0
  5  8  1  0  0  0  0
  8  9  1  0  0  0  0
  8 10  1  0  0  0  0
  8 11  1  0  0  0  0
 11 12  1  0  0  0  0
 11 13  1  0  0  0  0
 11 14  1  0  0  0  0
 14 15  1  0  0  0  0
 14 16  1  0  0  0  0
 14 17  1  0  0  0  0
 17 18  1  0  0  0  0
 17 19  1  0  0  0  0
 17 20  1  0  0  0  0
 20 21  1  0  0  0  0
 20 22  1  0  0  0  0
 20 23  1  0  0  0  0
M  END
> <VConfSearch Rank>
551

> <Conf_Id>
50

> <Delta U+W>
1.252

> <U+W>
-7.130

> <U>
48.727

> <W>
-55.857

> <W(PB)>
-57.937

> <W(SA)>
2.080

> <Valence>
2.671

> <Coulomb>
45.371

> <VdW>
0.684

> <VdW6>
-6.511

> <VdW12>
7.196

> <Bond>
0.203

> <Angle>
0.915

> <Pdih>
1.554

> <Idih>
0.000

> <Tether>
0.000

$$$$
VeraChem MOL file


 23 22  0  0  0  0  0  0  0  0999 V2000     
   20.9516   21.3848   20.8091 N   0  3  0  0  0  0  0  0  0  0  0  0
   20.0654   21.1607   20.3466 H   0  0  0  0  0  0  0  0  0  0  0  0
   21.6151   21.6491   20.0730 H   0  0  0  0  0  0  0  0  0  0  0  0
   20.7923   22.2200   21.3815 H   0  0  0  0  0  0  0  0  0  0  0  0
   21.4638   20.2228   21.6376 C   0  0  0  0  0  0  0  0  0  0  0  0
   22.4261   20.5188   22.0642 H   0  0  0  0  0  0  0  0  0  0  0  0
   21.6349   19.3768   20.9664 H   0  0  0  0  0  0  0  0  0  0  0  0
   20.5109   19.7996   22.7723 C   0  0  0  0  0  0  0  0  0  0  0  0
   21.0141   19.0353   23.3752 H   0  0  0  0  0  0  0  0  0  0  0  0
   20.3382   20.6537   23.4405 H   0  0  0  0  0  0  0  0  0  0  0  0
   19.1563   19.2614   22.2450 C   0  0  0  0  0  0  0  0  0  0  0  0
   19.3226   18.4686   21.5026 H   0  0  0  0  0  0  0  0  0  0  0  0
   18.6416   20.0731   21.7138 H   0  0  0  0  0  0  0  0  0  0  0  0
   18.2185   18.7484   23.3691 C   0  0  0  0  0  0  0  0  0  0  0  0
   18.4094   19.2934   24.3038 H   0  0  0  0  0  0  0  0  0  0  0  0
   17.1842   18.9933   23.0903 H   0  0  0  0  0  0  0  0  0  0  0  0
   18.2833   17.2200   23.6202 C   0  0  0  0  0  0  0  0  0  0  0  0
   17.9914   16.6840   22.7062 H   0  0  0  0  0  0  0  0  0  0  0  0
   17.5316   16.9592   24.3783 H   0  0  0  0  0  0  0  0  0  0  0  0
   19.6618   16.7103   24.0945 C   0  0  0  0  0  0  0  0  0  0  0  0
   20.0092   17.2675   24.9741 H   0  0  0  0  0  0  0  0  0  0  0  0
   20.4148   16.8014   23.3020 H   0  0  0  0  0  0  0  0  0  0  0  0
   19.6040   15.6495   24.3706 H   0  0  0  0  0  0  0  0  0  0  0  0
  1  2  1  0  0  0  0
  1  3  1  0  0  0  0
  1  4  1  0  0  0  0
  1  5  1  0  0  0  0
  5  6  1  0  0  0  0
  5  7  1  0  0  0  0
  5  8  1  0  0  0  0
  8  9  1  0  0  0  0
  8 10  1  0  0  0  0
  8 11  1  0  0  0  0
 11 12  1  0  0  0  0
 11 13  1  0  0  0  0
 11 14  1  0  0  0  0
 14 15  1  0  0  0  0
 14 16  1  0  0  0  0
 14 17  1  0  0  0  0
 17 18  1  0  0  0  0
 17 19  1  0  0  0  0
 17 20  1  0  0  0  0
 20 21  1  0  0  0  0
 20 22  1  0  0  0  0
 20 23  1  0  0  0  0
M  END
> <VConfSearch Rank>
552

> <Conf_Id>
55

> <Delta U+W>
3.232

> <U+W>
-5.150

> <U>
50.625

> <W>
-55.776

> <W(PB)>
-57.839

> <W(SA)>
2.064

> <Valence>
4.837

> <Coulomb>
45.097

> <VdW>
0.692

> <VdW6>
-6.655

> <VdW12>
7.347

> <Bond>
0.223

> <Angle>
1.167

> <Pdih>
3.447

> <Idih>
0.000

> <Tether>
0.000

$$$$
VeraChem MOL file


 23 22  0  0  0  0  0  0  0  0999 V2000     
   20.9023   20.8204   20.2595 N   0  3  0  0  0  0  0  0  0  0  0  0
   20.2933   21.4719   19.7542 H   0  0  0  0  0  0  0  0  0  0  0  0
   21.5731   20.4503   19.5775 H   0  0  0  0  0  0  0  0  0  0  0  0
   21.4390   21.3727   20.9361 H   0  0  0  0  0  0  0  0  0  0  0  0
   20.1134   19.7146   20.9307 C   0  0  0  0  0  0  0  0  0  0  0  0
   20.8255   19.0437   21.4148 H   0  0  0  0  0  0  0  0  0  0  0  0
   19.5922   19.1528   20.1509 H   0  0  0  0  0  0  0  0  0  0  0  0
   19.0912   20.2414   21.9570 C   0  0  0  0  0  0  0  0  0  0  0  0
   19.5950   20.8473   22.7218 H   0  0  0  0  0  0  0  0  0  0  0  0
   18.3999   20.9152   21.4335 H   0  0  0  0  0  0  0  0  0  0  0  0
   18.2667   19.1139   22.6281 C   0  0  0  0  0  0  0  0  0  0  0  0
   18.0410   18.3259   21.8961 H   0  0  0  0  0  0  0  0  0  0  0  0
   17.2943   19.5317   22.9237 H   0  0  0  0  0  0  0  0  0  0  0  0
   18.9136   18.4954   23.8948 C   0  0  0  0  0  0  0  0  0  0  0  0
   19.0384   19.2745   24.6595 H   0  0  0  0  0  0  0  0  0  0  0  0
   18.2087   17.7655   24.3165 H   0  0  0  0  0  0  0  0  0  0  0  0
   20.2705   17.7963   23.6492 C   0  0  0  0  0  0  0  0  0  0  0  0
   21.0305   18.5401   23.3769 H   0  0  0  0  0  0  0  0  0  0  0  0
   20.1831   17.0955   22.8072 H   0  0  0  0  0  0  0  0  0  0  0  0
   20.7530   17.0339   24.9017 C   0  0  0  0  0  0  0  0  0  0  0  0
   20.0389   16.2506   25.1875 H   0  0  0  0  0  0  0  0  0  0  0  0
   20.8744   17.7139   25.7550 H   0  0  0  0  0  0  0  0  0  0  0  0
   21.7218   16.5532   24.7135 H   0  0  0  0  0  0  0  0  0  0  0  0
  1  2  1  0  0  0  0
  1  3  1  0  0  0  0
  1  4  1  0  0  0  0
  1  5  1  0  0  0  0
  5  6  1  0  0  0  0
  5  7  1  0  0  0  0
  5  8  1  0  0  0  0
  8  9  1  0  0  0  0
  8 10  1  0  0  0  0
  8 11  1  0  0  0  0
 11 12  1  0  0  0  0
 11 13  1  0  0  0  0
 11 14  1  0  0  0  0
 14 15  1  0  0  0  0
 14 16  1  0  0  0  0
 14 17  1  0  0  0  0
 17 18  1  0  0  0  0
 17 19  1  0  0  0  0
 17 20  1  0  0  0  0
 20 21  1  0  0  0  0
 20 22  1  0  0  0  0
 20 23  1  0  0  0  0
M  END
> <VConfSearch Rank>
553

> <Conf_Id>
93

> <Delta U+W>
2.589

> <U+W>
-5.793

> <U>
50.122

> <W>
-55.915

> <W(PB)>
-58.031

> <W(SA)>
2.115

> <Valence>
4.132

> <Coulomb>
45.536

> <VdW>
0.454

> <VdW6>
-6.262

> <VdW12>
6.715

> <Bond>
0.182

> <Angle>
1.157

> <Pdih>
2.794

> <Idih>
0.000

> <Tether>
0.000

$$$$
VeraChem MOL file


 23 22  0  0  0  0  0  0  0  0999 V2000     
   19.3655   16.6478   20.5111 N   0  3  0  0  0  0  0  0  0  0  0  0
   19.0889   17.3360   19.8036 H   0  0  0  0  0  0  0  0  0  0  0  0
   18.5926   15.9789   20.5949 H   0  0  0  0  0  0  0  0  0  0  0  0
   20.1660   16.1315   20.1324 H   0  0  0  0  0  0  0  0  0  0  0  0
   19.6915   17.3011   21.8388 C   0  0  0  0  0  0  0  0  0  0  0  0
   19.9483   16.5100   22.5484 H   0  0  0  0  0  0  0  0  0  0  0  0
   18.7880   17.7984   22.1963 H   0  0  0  0  0  0  0  0  0  0  0  0
   20.8553   18.3073   21.7454 C   0  0  0  0  0  0  0  0  0  0  0  0
   21.7400   17.7711   21.3770 H   0  0  0  0  0  0  0  0  0  0  0  0
   20.6311   19.0832   21.0014 H   0  0  0  0  0  0  0  0  0  0  0  0
   21.2060   18.9597   23.1066 C   0  0  0  0  0  0  0  0  0  0  0  0
   22.2694   19.2362   23.0888 H   0  0  0  0  0  0  0  0  0  0  0  0
   21.1047   18.2220   23.9148 H   0  0  0  0  0  0  0  0  0  0  0  0
   20.3968   20.2382   23.4473 C   0  0  0  0  0  0  0  0  0  0  0  0
   20.7821   20.6443   24.3929 H   0  0  0  0  0  0  0  0  0  0  0  0
   20.5889   21.0066   22.6858 H   0  0  0  0  0  0  0  0  0  0  0  0
   18.8722   20.0190   23.5812 C   0  0  0  0  0  0  0  0  0  0  0  0
   18.6736   19.1743   24.2555 H   0  0  0  0  0  0  0  0  0  0  0  0
   18.4439   19.7635   22.6034 H   0  0  0  0  0  0  0  0  0  0  0  0
   18.1608   21.2798   24.1170 C   0  0  0  0  0  0  0  0  0  0  0  0
   17.0790   21.1105   24.1954 H   0  0  0  0  0  0  0  0  0  0  0  0
   18.3203   22.1365   23.4494 H   0  0  0  0  0  0  0  0  0  0  0  0
   18.5320   21.5496   25.1143 H   0  0  0  0  0  0  0  0  0  0  0  0
  1  2  1  0  0  0  0
  1  3  1  0  0  0  0
  1  4  1  0  0  0  0
  1  5  1  0  0  0  0
  5  6  1  0  0  0  0
  5  7  1  0  0  0  0
  5  8  1  0  0  0  0
  8  9  1  0  0  0  0
  8 10  1  0  0  0  0
  8 11  1  0  0  0  0
 11 12  1  0  0  0  0
 11 13  1  0  0  0  0
 11 14  1  0  0  0  0
 14 15  1  0  0  0  0
 14 16  1  0  0  0  0
 14 17  1  0  0  0  0
 17 18  1  0  0  0  0
 17 19  1  0  0  0  0
 17 20  1  0  0  0  0
 20 21  1  0  0  0  0
 20 22  1  0  0  0  0
 20 23  1  0  0  0  0
M  END
> <VConfSearch Rank>
554

> <Conf_Id>
70

> <Delta U+W>
2.599

> <U+W>
-5.783

> <U>
50.122

> <W>
-55.906

> <W(PB)>
-58.010

> <W(SA)>
2.105

> <Valence>
4.132

> <Coulomb>
45.536

> <VdW>
0.454

> <VdW6>
-6.262

> <VdW12>
6.715

> <Bond>
0.182

> <Angle>
1.157

> <Pdih>
2.794

> <Idih>
0.000

> <Tether>
0.000

$$$$
VeraChem MOL file


 23 22  0  0  0  0  0  0  0  0999 V2000     
   21.7797   17.4640   23.9646 N   0  3  0  0  0  0  0  0  0  0  0  0
   22.3371   16.7152   23.5414 H   0  0  0  0  0  0  0  0  0  0  0  0
   21.9192   17.4043   24.9789 H   0  0  0  0  0  0  0  0  0  0  0  0
   22.1840   18.3535   23.6567 H   0  0  0  0  0  0  0  0  0  0  0  0
   20.3148   17.3557   23.5896 C   0  0  0  0  0  0  0  0  0  0  0  0
   19.7739   18.1585   24.0975 H   0  0  0  0  0  0  0  0  0  0  0  0
   19.9429   16.4011   23.9715 H   0  0  0  0  0  0  0  0  0  0  0  0
   20.0582   17.4351   22.0712 C   0  0  0  0  0  0  0  0  0  0  0  0
   20.5777   16.6043   21.5755 H   0  0  0  0  0  0  0  0  0  0  0  0
   18.9891   17.2730   21.8837 H   0  0  0  0  0  0  0  0  0  0  0  0
   20.5048   18.7732   21.4255 C   0  0  0  0  0  0  0  0  0  0  0  0
   20.2473   18.7541   20.3575 H   0  0  0  0  0  0  0  0  0  0  0  0
   21.5999   18.8465   21.4649 H   0  0  0  0  0  0  0  0  0  0  0  0
   19.8948   20.0449   22.0701 C   0  0  0  0  0  0  0  0  0  0  0  0
   20.2198   20.1306   23.1156 H   0  0  0  0  0  0  0  0  0  0  0  0
   20.3031   20.9246   21.5536 H   0  0  0  0  0  0  0  0  0  0  0  0
   18.3503   20.0934   21.9994 C   0  0  0  0  0  0  0  0  0  0  0  0
   17.9186   19.2607   22.5705 H   0  0  0  0  0  0  0  0  0  0  0  0
   18.0225   19.9696   20.9578 H   0  0  0  0  0  0  0  0  0  0  0  0
   17.7965   21.4224   22.5559 C   0  0  0  0  0  0  0  0  0  0  0  0
   16.7003   21.4389   22.5006 H   0  0  0  0  0  0  0  0  0  0  0  0
   18.1753   22.2790   21.9832 H   0  0  0  0  0  0  0  0  0  0  0  0
   18.0830   21.5600   23.6067 H   0  0  0  0  0  0  0  0  0  0  0  0
  1  2  1  0  0  0  0
  1  3  1  0  0  0  0
  1  4  1  0  0  0  0
  1  5  1  0  0  0  0
  5  6  1  0  0  0  0
  5  7  1  0  0  0  0
  5  8  1  0  0  0  0
  8  9  1  0  0  0  0
  8 10  1  0  0  0  0
  8 11  1  0  0  0  0
 11 12  1  0  0  0  0
 11 13  1  0  0  0  0
 11 14  1  0  0  0  0
 14 15  1  0  0  0  0
 14 16  1  0  0  0  0
 14 17  1  0  0  0  0
 17 18  1  0  0  0  0
 17 19  1  0  0  0  0
 17 20  1  0  0  0  0
 20 21  1  0  0  0  0
 20 22  1  0  0  0  0
 20 23  1  0  0  0  0
M  END
> <VConfSearch Rank>
555

> <Conf_Id>
72

> <Delta U+W>
1.051

> <U+W>
-7.331

> <U>
48.590

> <W>
-55.922

> <W(PB)>
-58.012

> <W(SA)>
2.090

> <Valence>
2.601

> <Coulomb>
45.520

> <VdW>
0.469

> <VdW6>
-6.867

> <VdW12>
7.336

> <Bond>
0.205

> <Angle>
0.962

> <Pdih>
1.434

> <Idih>
0.000

> <Tether>
0.000

$$$$
VeraChem MOL file


 23 22  0  0  0  0  0  0  0  0999 V2000     
   22.4241   19.6410   24.1018 N   0  3  0  0  0  0  0  0  0  0  0  0
   22.7304   20.5151   24.5422 H   0  0  0  0  0  0  0  0  0  0  0  0
   23.2614   19.1930   23.7157 H   0  0  0  0  0  0  0  0  0  0  0  0
   22.0765   19.0350   24.8519 H   0  0  0  0  0  0  0  0  0  0  0  0
   21.3727   19.8849   23.0384 C   0  0  0  0  0  0  0  0  0  0  0  0
   21.7990   20.5578   22.2896 H   0  0  0  0  0  0  0  0  0  0  0  0
   20.5264   20.3890   23.5122 H   0  0  0  0  0  0  0  0  0  0  0  0
   20.8910   18.5904   22.3571 C   0  0  0  0  0  0  0  0  0  0  0  0
   21.7540   18.0735   21.9170 H   0  0  0  0  0  0  0  0  0  0  0  0
   20.4747   17.9088   23.1097 H   0  0  0  0  0  0  0  0  0  0  0  0
   19.8456   18.8538   21.2450 C   0  0  0  0  0  0  0  0  0  0  0  0
   19.5611   17.8976   20.7860 H   0  0  0  0  0  0  0  0  0  0  0  0
   20.3198   19.4370   20.4435 H   0  0  0  0  0  0  0  0  0  0  0  0
   18.5698   19.6040   21.7144 C   0  0  0  0  0  0  0  0  0  0  0  0
   18.8381   20.6243   22.0197 H   0  0  0  0  0  0  0  0  0  0  0  0
   17.8960   19.7214   20.8545 H   0  0  0  0  0  0  0  0  0  0  0  0
   17.7920   18.9233   22.8693 C   0  0  0  0  0  0  0  0  0  0  0  0
   16.9234   19.5473   23.1219 H   0  0  0  0  0  0  0  0  0  0  0  0
   18.4110   18.8892   23.7758 H   0  0  0  0  0  0  0  0  0  0  0  0
   17.2980   17.5010   22.5208 C   0  0  0  0  0  0  0  0  0  0  0  0
   16.6864   17.5083   21.6093 H   0  0  0  0  0  0  0  0  0  0  0  0
   16.6825   17.0973   23.3351 H   0  0  0  0  0  0  0  0  0  0  0  0
   18.1363   16.8104   22.3666 H   0  0  0  0  0  0  0  0  0  0  0  0
  1  2  1  0  0  0  0
  1  3  1  0  0  0  0
  1  4  1  0  0  0  0
  1  5  1  0  0  0  0
  5  6  1  0  0  0  0
  5  7  1  0  0  0  0
  5  8  1  0  0  0  0
  8  9  1  0  0  0  0
  8 10  1  0  0  0  0
  8 11  1  0  0  0  0
 11 12  1  0  0  0  0
 11 13  1  0  0  0  0
 11 14  1  0  0  0  0
 14 15  1  0  0  0  0
 14 16  1  0  0  0  0
 14 17  1  0  0  0  0
 17 18  1  0  0  0  0
 17 19  1  0  0  0  0
 17 20  1  0  0  0  0
 20 21  1  0  0  0  0
 20 22  1  0  0  0  0
 20 23  1  0  0  0  0
M  END
> <VConfSearch Rank>
556

> <Conf_Id>
26

> <Delta U+W>
1.076

> <U+W>
-7.306

> <U>
48.641

> <W>
-55.947

> <W(PB)>
-58.031

> <W(SA)>
2.084

> <Valence>
2.922

> <Coulomb>
45.269

> <VdW>
0.449

> <VdW6>
-7.045

> <VdW12>
7.494

> <Bond>
0.220

> <Angle>
1.205

> <Pdih>
1.497

> <Idih>
0.000

> <Tether>
0.000

$$$$
VeraChem MOL file


 23 22  0  0  0  0  0  0  0  0999 V2000     
   21.5853   16.4106   22.7619 N   0  3  0  0  0  0  0  0  0  0  0  0
   22.2706   16.3106   22.0062 H   0  0  0  0  0  0  0  0  0  0  0  0
   21.3447   15.4633   23.0730 H   0  0  0  0  0  0  0  0  0  0  0  0
   22.0636   16.8688   23.5442 H   0  0  0  0  0  0  0  0  0  0  0  0
   20.3613   17.1842   22.3158 C   0  0  0  0  0  0  0  0  0  0  0  0
   19.6648   17.2255   23.1574 H   0  0  0  0  0  0  0  0  0  0  0  0
   19.8869   16.6273   21.5033 H   0  0  0  0  0  0  0  0  0  0  0  0
   20.6889   18.6126   21.8423 C   0  0  0  0  0  0  0  0  0  0  0  0
   21.1769   19.1685   22.6530 H   0  0  0  0  0  0  0  0  0  0  0  0
   21.4172   18.5610   21.0221 H   0  0  0  0  0  0  0  0  0  0  0  0
   19.4370   19.3814   21.3516 C   0  0  0  0  0  0  0  0  0  0  0  0
   19.0342   18.8736   20.4644 H   0  0  0  0  0  0  0  0  0  0  0  0
   19.7403   20.3795   21.0086 H   0  0  0  0  0  0  0  0  0  0  0  0
   18.3020   19.5165   22.4024 C   0  0  0  0  0  0  0  0  0  0  0  0
   17.4771   20.0885   21.9557 H   0  0  0  0  0  0  0  0  0  0  0  0
   17.8871   18.5233   22.6210 H   0  0  0  0  0  0  0  0  0  0  0  0
   18.7141   20.1919   23.7351 C   0  0  0  0  0  0  0  0  0  0  0  0
   19.4652   19.5815   24.2540 H   0  0  0  0  0  0  0  0  0  0  0  0
   17.8387   20.2197   24.3989 H   0  0  0  0  0  0  0  0  0  0  0  0
   19.2464   21.6315   23.5536 C   0  0  0  0  0  0  0  0  0  0  0  0
   20.1854   21.6447   22.9864 H   0  0  0  0  0  0  0  0  0  0  0  0
   19.4428   22.0948   24.5291 H   0  0  0  0  0  0  0  0  0  0  0  0
   18.5164   22.2581   23.0250 H   0  0  0  0  0  0  0  0  0  0  0  0
  1  2  1  0  0  0  0
  1  3  1  0  0  0  0
  1  4  1  0  0  0  0
  1  5  1  0  0  0  0
  5  6  1  0  0  0  0
  5  7  1  0  0  0  0
  5  8  1  0  0  0  0
  8  9  1  0  0  0  0
  8 10  1  0  0  0  0
  8 11  1  0  0  0  0
 11 12  1  0  0  0  0
 11 13  1  0  0  0  0
 11 14  1  0  0  0  0
 14 15  1  0  0  0  0
 14 16  1  0  0  0  0
 14 17  1  0  0  0  0
 17 18  1  0  0  0  0
 17 19  1  0  0  0  0
 17 20  1  0  0  0  0
 20 21  1  0  0  0  0
 20 22  1  0  0  0  0
 20 23  1  0  0  0  0
M  END
> <VConfSearch Rank>
557

> <Conf_Id>
90

> <Delta U+W>
1.131

> <U+W>
-7.251

> <U>
48.641

> <W>
-55.892

> <W(PB)>
-57.962

> <W(SA)>
2.070

> <Valence>
2.922

> <Coulomb>
45.269

> <VdW>
0.450

> <VdW6>
-7.045

> <VdW12>
7.495

> <Bond>
0.220

> <Angle>
1.205

> <Pdih>
1.497

> <Idih>
0.000

> <Tether>
0.000

$$$$
VeraChem MOL file


 23 22  0  0  0  0  0  0  0  0999 V2000     
   19.2342   19.1635   20.0149 N   0  3  0  0  0  0  0  0  0  0  0  0
   18.4824   19.5772   19.4532 H   0  0  0  0  0  0  0  0  0  0  0  0
   18.7935   18.5275   20.6864 H   0  0  0  0  0  0  0  0  0  0  0  0
   19.8008   18.5911   19.3810 H   0  0  0  0  0  0  0  0  0  0  0  0
   20.0654   20.2231   20.7111 C   0  0  0  0  0  0  0  0  0  0  0  0
   19.3992   20.8146   21.3443 H   0  0  0  0  0  0  0  0  0  0  0  0
   20.4760   20.8829   19.9420 H   0  0  0  0  0  0  0  0  0  0  0  0
   21.2175   19.6480   21.5602 C   0  0  0  0  0  0  0  0  0  0  0  0
   21.9054   19.0958   20.9063 H   0  0  0  0  0  0  0  0  0  0  0  0
   21.7967   20.4819   21.9786 H   0  0  0  0  0  0  0  0  0  0  0  0
   20.7501   18.7220   22.7112 C   0  0  0  0  0  0  0  0  0  0  0  0
   21.6365   18.3526   23.2450 H   0  0  0  0  0  0  0  0  0  0  0  0
   20.2552   17.8373   22.2911 H   0  0  0  0  0  0  0  0  0  0  0  0
   19.8104   19.4326   23.7180 C   0  0  0  0  0  0  0  0  0  0  0  0
   20.2892   20.3599   24.0618 H   0  0  0  0  0  0  0  0  0  0  0  0
   18.8782   19.7316   23.2204 H   0  0  0  0  0  0  0  0  0  0  0  0
   19.4699   18.5673   24.9552 C   0  0  0  0  0  0  0  0  0  0  0  0
   18.8928   19.1772   25.6642 H   0  0  0  0  0  0  0  0  0  0  0  0
   20.3947   18.2830   25.4765 H   0  0  0  0  0  0  0  0  0  0  0  0
   18.6558   17.2991   24.6114 C   0  0  0  0  0  0  0  0  0  0  0  0
   17.7382   17.5546   24.0658 H   0  0  0  0  0  0  0  0  0  0  0  0
   18.3644   16.7699   25.5279 H   0  0  0  0  0  0  0  0  0  0  0  0
   19.2379   16.5999   23.9985 H   0  0  0  0  0  0  0  0  0  0  0  0
  1  2  1  0  0  0  0
  1  3  1  0  0  0  0
  1  4  1  0  0  0  0
  1  5  1  0  0  0  0
  5  6  1  0  0  0  0
  5  7  1  0  0  0  0
  5  8  1  0  0  0  0
  8  9  1  0  0  0  0
  8 10  1  0  0  0  0
  8 11  1  0  0  0  0
 11 12  1  0  0  0  0
 11 13  1  0  0  0  0
 11 14  1  0  0  0  0
 14 15  1  0  0  0  0
 14 16  1  0  0  0  0
 14 17  1  0  0  0  0
 17 18  1  0  0  0  0
 17 19  1  0  0  0  0
 17 20  1  0  0  0  0
 20 21  1  0  0  0  0
 20 22  1  0  0  0  0
 20 23  1  0  0  0  0
M  END
> <VConfSearch Rank>
558

> <Conf_Id>
85

> <Delta U+W>
1.193

> <U+W>
-7.189

> <U>
48.775

> <W>
-55.965

> <W(PB)>
-58.038

> <W(SA)>
2.073

> <Valence>
2.602

> <Coulomb>
45.581

> <VdW>
0.592

> <VdW6>
-6.616

> <VdW12>
7.208

> <Bond>
0.196

> <Angle>
0.832

> <Pdih>
1.574

> <Idih>
0.000

> <Tether>
0.000

$$$$
VeraChem MOL file


 23 22  0  0  0  0  0  0  0  0999 V2000     
   17.7061   19.2185   22.2036 N   0  3  0  0  0  0  0  0  0  0  0  0
   18.5464   19.8048   22.1754 H   0  0  0  0  0  0  0  0  0  0  0  0
   16.9845   19.7397   22.7134 H   0  0  0  0  0  0  0  0  0  0  0  0
   17.3737   19.1135   21.2395 H   0  0  0  0  0  0  0  0  0  0  0  0
   17.9915   17.8756   22.8478 C   0  0  0  0  0  0  0  0  0  0  0  0
   17.0546   17.3119   22.8393 H   0  0  0  0  0  0  0  0  0  0  0  0
   18.2785   18.0407   23.8896 H   0  0  0  0  0  0  0  0  0  0  0  0
   19.0801   17.0535   22.1282 C   0  0  0  0  0  0  0  0  0  0  0  0
   18.9346   15.9990   22.3978 H   0  0  0  0  0  0  0  0  0  0  0  0
   18.9284   17.1073   21.0419 H   0  0  0  0  0  0  0  0  0  0  0  0
   20.5421   17.4358   22.4835 C   0  0  0  0  0  0  0  0  0  0  0  0
   21.2028   16.7401   21.9479 H   0  0  0  0  0  0  0  0  0  0  0  0
   20.7285   17.2540   23.5511 H   0  0  0  0  0  0  0  0  0  0  0  0
   20.9600   18.8804   22.1068 C   0  0  0  0  0  0  0  0  0  0  0  0
   22.0091   18.8660   21.7798 H   0  0  0  0  0  0  0  0  0  0  0  0
   20.3849   19.2272   21.2381 H   0  0  0  0  0  0  0  0  0  0  0  0
   20.8441   19.8758   23.2870 C   0  0  0  0  0  0  0  0  0  0  0  0
   21.5584   19.5909   24.0724 H   0  0  0  0  0  0  0  0  0  0  0  0
   19.8513   19.8264   23.7498 H   0  0  0  0  0  0  0  0  0  0  0  0
   21.1321   21.3251   22.8416 C   0  0  0  0  0  0  0  0  0  0  0  0
   22.1428   21.4145   22.4221 H   0  0  0  0  0  0  0  0  0  0  0  0
   21.0601   22.0138   23.6934 H   0  0  0  0  0  0  0  0  0  0  0  0
   20.4162   21.6573   22.0788 H   0  0  0  0  0  0  0  0  0  0  0  0
  1  2  1  0  0  0  0
  1  3  1  0  0  0  0
  1  4  1  0  0  0  0
  1  5  1  0  0  0  0
  5  6  1  0  0  0  0
  5  7  1  0  0  0  0
  5  8  1  0  0  0  0
  8  9  1  0  0  0  0
  8 10  1  0  0  0  0
  8 11  1  0  0  0  0
 11 12  1  0  0  0  0
 11 13  1  0  0  0  0
 11 14  1  0  0  0  0
 14 15  1  0  0  0  0
 14 16  1  0  0  0  0
 14 17  1  0  0  0  0
 17 18  1  0  0  0  0
 17 19  1  0  0  0  0
 17 20  1  0  0  0  0
 20 21  1  0  0  0  0
 20 22  1  0  0  0  0
 20 23  1  0  0  0  0
M  END
> <VConfSearch Rank>
559

> <Conf_Id>
82

> <Delta U+W>
5.994

> <U+W>
-2.388

> <U>
52.836

> <W>
-55.224

> <W(PB)>
-57.261

> <W(SA)>
2.037

> <Valence>
5.785

> <Coulomb>
46.744

> <VdW>
0.307

> <VdW6>
-7.672

> <VdW12>
7.979

> <Bond>
0.217

> <Angle>
1.470

> <Pdih>
4.098

> <Idih>
0.000

> <Tether>
0.000

$$$$
VeraChem MOL file


 23 22  0  0  0  0  0  0  0  0999 V2000     
   21.0628   19.4429   20.9355 N   0  3  0  0  0  0  0  0  0  0  0  0
   20.8423   18.9900   20.0426 H   0  0  0  0  0  0  0  0  0  0  0  0
   21.6576   20.2509   20.7218 H   0  0  0  0  0  0  0  0  0  0  0  0
   20.1839   19.8019   21.3218 H   0  0  0  0  0  0  0  0  0  0  0  0
   21.7384   18.4855   21.8981 C   0  0  0  0  0  0  0  0  0  0  0  0
   22.0094   19.0332   22.8046 H   0  0  0  0  0  0  0  0  0  0  0  0
   22.6605   18.1474   21.4177 H   0  0  0  0  0  0  0  0  0  0  0  0
   20.8819   17.2563   22.2647 C   0  0  0  0  0  0  0  0  0  0  0  0
   20.3976   16.8591   21.3627 H   0  0  0  0  0  0  0  0  0  0  0  0
   21.5623   16.4666   22.6103 H   0  0  0  0  0  0  0  0  0  0  0  0
   19.8264   17.4928   23.3783 C   0  0  0  0  0  0  0  0  0  0  0  0
   20.3271   17.7626   24.3185 H   0  0  0  0  0  0  0  0  0  0  0  0
   19.3343   16.5299   23.5739 H   0  0  0  0  0  0  0  0  0  0  0  0
   18.7278   18.5331   23.0405 C   0  0  0  0  0  0  0  0  0  0  0  0
   18.5546   18.5634   21.9566 H   0  0  0  0  0  0  0  0  0  0  0  0
   17.7798   18.1951   23.4818 H   0  0  0  0  0  0  0  0  0  0  0  0
   19.0338   19.9451   23.5970 C   0  0  0  0  0  0  0  0  0  0  0  0
   20.0379   20.2758   23.3058 H   0  0  0  0  0  0  0  0  0  0  0  0
   19.0339   19.9092   24.6955 H   0  0  0  0  0  0  0  0  0  0  0  0
   17.9937   20.9826   23.1241 C   0  0  0  0  0  0  0  0  0  0  0  0
   17.9875   21.0707   22.0300 H   0  0  0  0  0  0  0  0  0  0  0  0
   18.2180   21.9735   23.5402 H   0  0  0  0  0  0  0  0  0  0  0  0
   16.9830   20.7030   23.4490 H   0  0  0  0  0  0  0  0  0  0  0  0
  1  2  1  0  0  0  0
  1  3  1  0  0  0  0
  1  4  1  0  0  0  0
  1  5  1  0  0  0  0
  5  6  1  0  0  0  0
  5  7  1  0  0  0  0
  5  8  1  0  0  0  0
  8  9  1  0  0  0  0
  8 10  1  0  0  0  0
  8 11  1  0  0  0  0
 11 12  1  0  0  0  0
 11 13  1  0  0  0  0
 11 14  1  0  0  0  0
 14 15  1  0  0  0  0
 14 16  1  0  0  0  0
 14 17  1  0  0  0  0
 17 18  1  0  0  0  0
 17 19  1  0  0  0  0
 17 20  1  0  0  0  0
 20 21  1  0  0  0  0
 20 22  1  0  0  0  0
 20 23  1  0  0  0  0
M  END
> <VConfSearch Rank>
560

> <Conf_Id>
5

> <Delta U+W>
6.087

> <U+W>
-2.295

> <U>
52.836

> <W>
-55.131

> <W(PB)>
-57.202

> <W(SA)>
2.071

> <Valence>
5.785

> <Coulomb>
46.744

> <VdW>
0.307

> <VdW6>
-7.672

> <VdW12>
7.980

> <Bond>
0.217

> <Angle>
1.470

> <Pdih>
4.098

> <Idih>
0.000

> <Tether>
0.000

$$$$
VeraChem MOL file


 23 22  0  0  0  0  0  0  0  0999 V2000     
   22.9518   20.8442   23.7306 N   0  3  0  0  0  0  0  0  0  0  0  0
   22.4757   21.6036   24.2281 H   0  0  0  0  0  0  0  0  0  0  0  0
   23.8112   21.2403   23.3346 H   0  0  0  0  0  0  0  0  0  0  0  0
   23.2380   20.1557   24.4340 H   0  0  0  0  0  0  0  0  0  0  0  0
   22.0713   20.2288   22.6620 C   0  0  0  0  0  0  0  0  0  0  0  0
   22.6493   19.4514   22.1550 H   0  0  0  0  0  0  0  0  0  0  0  0
   21.8300   21.0078   21.9336 H   0  0  0  0  0  0  0  0  0  0  0  0
   20.7722   19.6249   23.2242 C   0  0  0  0  0  0  0  0  0  0  0  0
   21.0193   18.8546   23.9669 H   0  0  0  0  0  0  0  0  0  0  0  0
   20.2030   20.4055   23.7465 H   0  0  0  0  0  0  0  0  0  0  0  0
   19.9042   19.0089   22.1047 C   0  0  0  0  0  0  0  0  0  0  0  0
   20.4790   18.2322   21.5811 H   0  0  0  0  0  0  0  0  0  0  0  0
   19.6635   19.7814   21.3610 H   0  0  0  0  0  0  0  0  0  0  0  0
   18.5963   18.3991   22.6583 C   0  0  0  0  0  0  0  0  0  0  0  0
   18.8367   17.6265   23.4018 H   0  0  0  0  0  0  0  0  0  0  0  0
   18.0214   19.1756   23.1818 H   0  0  0  0  0  0  0  0  0  0  0  0
   17.7284   17.7832   21.5384 C   0  0  0  0  0  0  0  0  0  0  0  0
   18.2983   17.0039   21.0132 H   0  0  0  0  0  0  0  0  0  0  0  0
   17.4830   18.5529   20.7932 H   0  0  0  0  0  0  0  0  0  0  0  0
   16.4233   17.1753   22.0950 C   0  0  0  0  0  0  0  0  0  0  0  0
   15.8208   16.7432   21.2855 H   0  0  0  0  0  0  0  0  0  0  0  0
   15.8148   17.9389   22.5970 H   0  0  0  0  0  0  0  0  0  0  0  0
   16.6365   16.3779   22.8188 H   0  0  0  0  0  0  0  0  0  0  0  0
  1  2  1  0  0  0  0
  1  3  1  0  0  0  0
  1  4  1  0  0  0  0
  1  5  1  0  0  0  0
  5  6  1  0  0  0  0
  5  7  1  0  0  0  0
  5  8  1  0  0  0  0
  8  9  1  0  0  0  0
  8 10  1  0  0  0  0
  8 11  1  0  0  0  0
 11 12  1  0  0  0  0
 11 13  1  0  0  0  0
 11 14  1  0  0  0  0
 14 15  1  0  0  0  0
 14 16  1  0  0  0  0
 14 17  1  0  0  0  0
 17 18  1  0  0  0  0
 17 19  1  0  0  0  0
 17 20  1  0  0  0  0
 20 21  1  0  0  0  0
 20 22  1  0  0  0  0
 20 23  1  0  0  0  0
M  END
> <VConfSearch Rank>
561

> <Conf_Id>
40

> <Delta U+W>
0.000

> <U+W>
-8.382

> <U>
46.604

> <W>
-54.986

> <W(PB)>
-57.162

> <W(SA)>
2.176

> <Valence>
1.727

> <Coulomb>
44.434

> <VdW>
0.443

> <VdW6>
-4.623

> <VdW12>
5.066

> <Bond>
0.112

> <Angle>
0.386

> <Pdih>
1.228

> <Idih>
0.000

> <Tether>
0.000

$$$$
VeraChem MOL file


 23 22  0  0  0  0  0  0  0  0999 V2000     
   18.3346   20.2059   25.6650 N   0  3  0  0  0  0  0  0  0  0  0  0
   17.7368   21.0193   25.4863 H   0  0  0  0  0  0  0  0  0  0  0  0
   19.2032   20.5559   26.0820 H   0  0  0  0  0  0  0  0  0  0  0  0
   17.8651   19.6431   26.3825 H   0  0  0  0  0  0  0  0  0  0  0  0
   18.5945   19.4074   24.4038 C   0  0  0  0  0  0  0  0  0  0  0  0
   17.6334   19.0430   24.0310 H   0  0  0  0  0  0  0  0  0  0  0  0
   19.2083   18.5446   24.6745 H   0  0  0  0  0  0  0  0  0  0  0  0
   19.2992   20.2263   23.3057 C   0  0  0  0  0  0  0  0  0  0  0  0
   18.6943   21.1142   23.0784 H   0  0  0  0  0  0  0  0  0  0  0  0
   20.2651   20.5916   23.6791 H   0  0  0  0  0  0  0  0  0  0  0  0
   19.5162   19.4214   22.0024 C   0  0  0  0  0  0  0  0  0  0  0  0
   19.9149   20.1033   21.2402 H   0  0  0  0  0  0  0  0  0  0  0  0
   18.5472   19.0655   21.6260 H   0  0  0  0  0  0  0  0  0  0  0  0
   20.4808   18.2215   22.1821 C   0  0  0  0  0  0  0  0  0  0  0  0
   21.4562   18.5803   22.5387 H   0  0  0  0  0  0  0  0  0  0  0  0
   20.0938   17.5526   22.9621 H   0  0  0  0  0  0  0  0  0  0  0  0
   20.6777   17.3907   20.8907 C   0  0  0  0  0  0  0  0  0  0  0  0
   19.7060   17.0202   20.5351 H   0  0  0  0  0  0  0  0  0  0  0  0
   21.2755   16.5008   21.1327 H   0  0  0  0  0  0  0  0  0  0  0  0
   21.3839   18.1697   19.7577 C   0  0  0  0  0  0  0  0  0  0  0  0
   20.7664   18.9991   19.3916 H   0  0  0  0  0  0  0  0  0  0  0  0
   21.5852   17.5083   18.9050 H   0  0  0  0  0  0  0  0  0  0  0  0
   22.3439   18.5789   20.0984 H   0  0  0  0  0  0  0  0  0  0  0  0
  1  2  1  0  0  0  0
  1  3  1  0  0  0  0
  1  4  1  0  0  0  0
  1  5  1  0  0  0  0
  5  6  1  0  0  0  0
  5  7  1  0  0  0  0
  5  8  1  0  0  0  0
  8  9  1  0  0  0  0
  8 10  1  0  0  0  0
  8 11  1  0  0  0  0
 11 12  1  0  0  0  0
 11 13  1  0  0  0  0
 11 14  1  0  0  0  0
 14 15  1  0  0  0  0
 14 16  1  0  0  0  0
 14 17  1  0  0  0  0
 17 18  1  0  0  0  0
 17 19  1  0  0  0  0
 17 20  1  0  0  0  0
 20 21  1  0  0  0  0
 20 22  1  0  0  0  0
 20 23  1  0  0  0  0
M  END
> <VConfSearch Rank>
562

> <Conf_Id>
65

> <Delta U+W>
1.004

> <U+W>
-7.378

> <U>
48.047

> <W>
-55.425

> <W(PB)>
-57.542

> <W(SA)>
2.116

> <Valence>
2.583

> <Coulomb>
44.791

> <VdW>
0.673

> <VdW6>
-5.788

> <VdW12>
6.462

> <Bond>
0.177

> <Angle>
0.787

> <Pdih>
1.619

> <Idih>
0.000

> <Tether>
0.000

$$$$
VeraChem MOL file


 23 22  0  0  0  0  0  0  0  0999 V2000     
   18.7944   15.5837   22.7350 N   0  3  0  0  0  0  0  0  0  0  0  0
   17.7798   15.4960   22.6177 H   0  0  0  0  0  0  0  0  0  0  0  0
   19.0739   14.8914   23.4382 H   0  0  0  0  0  0  0  0  0  0  0  0
   19.2259   15.2998   21.8495 H   0  0  0  0  0  0  0  0  0  0  0  0
   19.1979   16.9881   23.1359 C   0  0  0  0  0  0  0  0  0  0  0  0
   20.2822   16.9987   23.2724 H   0  0  0  0  0  0  0  0  0  0  0  0
   18.7276   17.2129   24.0970 H   0  0  0  0  0  0  0  0  0  0  0  0
   18.7911   18.0520   22.0987 C   0  0  0  0  0  0  0  0  0  0  0  0
   19.2642   17.8273   21.1335 H   0  0  0  0  0  0  0  0  0  0  0  0
   17.7063   17.9971   21.9371 H   0  0  0  0  0  0  0  0  0  0  0  0
   19.1600   19.4893   22.5366 C   0  0  0  0  0  0  0  0  0  0  0  0
   18.6774   19.7146   23.4977 H   0  0  0  0  0  0  0  0  0  0  0  0
   18.7382   20.1900   21.8045 H   0  0  0  0  0  0  0  0  0  0  0  0
   20.6889   19.7163   22.6525 C   0  0  0  0  0  0  0  0  0  0  0  0
   21.1138   18.9986   23.3666 H   0  0  0  0  0  0  0  0  0  0  0  0
   21.1684   19.5108   21.6855 H   0  0  0  0  0  0  0  0  0  0  0  0
   21.0660   21.1423   23.1223 C   0  0  0  0  0  0  0  0  0  0  0  0
   22.1514   21.1819   23.2901 H   0  0  0  0  0  0  0  0  0  0  0  0
   20.5975   21.3496   24.0946 H   0  0  0  0  0  0  0  0  0  0  0  0
   20.6795   22.2470   22.1125 C   0  0  0  0  0  0  0  0  0  0  0  0
   19.5913   22.3333   22.0047 H   0  0  0  0  0  0  0  0  0  0  0  0
   21.1090   22.0451   21.1226 H   0  0  0  0  0  0  0  0  0  0  0  0
   21.0551   23.2222   22.4482 H   0  0  0  0  0  0  0  0  0  0  0  0
  1  2  1  0  0  0  0
  1  3  1  0  0  0  0
  1  4  1  0  0  0  0
  1  5  1  0  0  0  0
  5  6  1  0  0  0  0
  5  7  1  0  0  0  0
  5  8  1  0  0  0  0
  8  9  1  0  0  0  0
  8 10  1  0  0  0  0
  8 11  1  0  0  0  0
 11 12  1  0  0  0  0
 11 13  1  0  0  0  0
 11 14  1  0  0  0  0
 14 15  1  0  0  0  0
 14 16  1  0  0  0  0
 14 17  1  0  0  0  0
 17 18  1  0  0  0  0
 17 19  1  0  0  0  0
 17 20  1  0  0  0  0
 20 21  1  0  0  0  0
 20 22  1  0  0  0  0
 20 23  1  0  0  0  0
M  END
> <VConfSearch Rank>
563

> <Conf_Id>
92

> <Delta U+W>
0.973

> <U+W>
-7.409

> <U>
48.047

> <W>
-55.456

> <W(PB)>
-57.595

> <W(SA)>
2.138

> <Valence>
2.583

> <Coulomb>
44.791

> <VdW>
0.674

> <VdW6>
-5.789

> <VdW12>
6.462

> <Bond>
0.177

> <Angle>
0.787

> <Pdih>
1.619

> <Idih>
0.000

> <Tether>
0.000

$$$$
VeraChem MOL file


 23 22  0  0  0  0  0  0  0  0999 V2000     
   22.7773   20.7807   22.4539 N   0  3  0  0  0  0  0  0  0  0  0  0
   23.6825   20.2996   22.4185 H   0  0  0  0  0  0  0  0  0  0  0  0
   22.8775   21.5549   23.1183 H   0  0  0  0  0  0  0  0  0  0  0  0
   22.6238   21.1951   21.5290 H   0  0  0  0  0  0  0  0  0  0  0  0
   21.6552   19.8410   22.8459 C   0  0  0  0  0  0  0  0  0  0  0  0
   21.8971   19.4157   23.8237 H   0  0  0  0  0  0  0  0  0  0  0  0
   21.6273   19.0290   22.1148 H   0  0  0  0  0  0  0  0  0  0  0  0
   20.2812   20.5346   22.9082 C   0  0  0  0  0  0  0  0  0  0  0  0
   20.3355   21.3754   23.6125 H   0  0  0  0  0  0  0  0  0  0  0  0
   20.0388   20.9624   21.9262 H   0  0  0  0  0  0  0  0  0  0  0  0
   19.1487   19.5794   23.3532 C   0  0  0  0  0  0  0  0  0  0  0  0
   18.2222   20.1597   23.4647 H   0  0  0  0  0  0  0  0  0  0  0  0
   19.3818   19.1728   24.3472 H   0  0  0  0  0  0  0  0  0  0  0  0
   18.9056   18.4192   22.3581 C   0  0  0  0  0  0  0  0  0  0  0  0
   18.7054   18.8288   21.3583 H   0  0  0  0  0  0  0  0  0  0  0  0
   19.8093   17.8010   22.2738 H   0  0  0  0  0  0  0  0  0  0  0  0
   17.7216   17.5278   22.7945 C   0  0  0  0  0  0  0  0  0  0  0  0
   16.8089   18.1349   22.8740 H   0  0  0  0  0  0  0  0  0  0  0  0
   17.9163   17.1159   23.7947 H   0  0  0  0  0  0  0  0  0  0  0  0
   17.4809   16.3702   21.8021 C   0  0  0  0  0  0  0  0  0  0  0  0
   17.2502   16.7518   20.7989 H   0  0  0  0  0  0  0  0  0  0  0  0
   16.6367   15.7491   22.1285 H   0  0  0  0  0  0  0  0  0  0  0  0
   18.3653   15.7240   21.7271 H   0  0  0  0  0  0  0  0  0  0  0  0
  1  2  1  0  0  0  0
  1  3  1  0  0  0  0
  1  4  1  0  0  0  0
  1  5  1  0  0  0  0
  5  6  1  0  0  0  0
  5  7  1  0  0  0  0
  5  8  1  0  0  0  0
  8  9  1  0  0  0  0
  8 10  1  0  0  0  0
  8 11  1  0  0  0  0
 11 12  1  0  0  0  0
 11 13  1  0  0  0  0
 11 14  1  0  0  0  0
 14 15  1  0  0  0  0
 14 16  1  0  0  0  0
 14 17  1  0  0  0  0
 17 18  1  0  0  0  0
 17 19  1  0  0  0  0
 17 20  1  0  0  0  0
 20 21  1  0  0  0  0
 20 22  1  0  0  0  0
 20 23  1  0  0  0  0
M  END
> <VConfSearch Rank>
564

> <Conf_Id>
42

> <Delta U+W>
0.365

> <U+W>
-8.017

> <U>
47.375

> <W>
-55.392

> <W(PB)>
-57.543

> <W(SA)>
2.152

> <Valence>
2.032

> <Coulomb>
44.843

> <VdW>
0.499

> <VdW6>
-5.218

> <VdW12>
5.717

> <Bond>
0.135

> <Angle>
0.514

> <Pdih>
1.383

> <Idih>
0.000

> <Tether>
0.000

$$$$
VeraChem MOL file


 23 22  0  0  0  0  0  0  0  0999 V2000     
   19.4645   20.5330   19.8605 N   0  3  0  0  0  0  0  0  0  0  0  0
   18.5668   20.9528   20.1226 H   0  0  0  0  0  0  0  0  0  0  0  0
   19.5534   20.6289   18.8433 H   0  0  0  0  0  0  0  0  0  0  0  0
   20.2015   21.1074   20.2805 H   0  0  0  0  0  0  0  0  0  0  0  0
   19.5592   19.0846   20.2995 C   0  0  0  0  0  0  0  0  0  0  0  0
   20.5250   18.6918   19.9703 H   0  0  0  0  0  0  0  0  0  0  0  0
   18.7719   18.5306   19.7811 H   0  0  0  0  0  0  0  0  0  0  0  0
   19.4076   18.8825   21.8198 C   0  0  0  0  0  0  0  0  0  0  0  0
   18.4492   19.3025   22.1526 H   0  0  0  0  0  0  0  0  0  0  0  0
   19.3685   17.8033   22.0120 H   0  0  0  0  0  0  0  0  0  0  0  0
   20.5728   19.5067   22.6258 C   0  0  0  0  0  0  0  0  0  0  0  0
   20.6786   20.5653   22.3547 H   0  0  0  0  0  0  0  0  0  0  0  0
   21.5156   19.0218   22.3371 H   0  0  0  0  0  0  0  0  0  0  0  0
   20.4020   19.4240   24.1650 C   0  0  0  0  0  0  0  0  0  0  0  0
   21.2618   19.9349   24.6202 H   0  0  0  0  0  0  0  0  0  0  0  0
   19.5187   19.9975   24.4782 H   0  0  0  0  0  0  0  0  0  0  0  0
   20.3382   17.9847   24.7384 C   0  0  0  0  0  0  0  0  0  0  0  0
   20.8468   17.9731   25.7126 H   0  0  0  0  0  0  0  0  0  0  0  0
   20.9003   17.2920   24.0966 H   0  0  0  0  0  0  0  0  0  0  0  0
   18.8944   17.4717   24.9494 C   0  0  0  0  0  0  0  0  0  0  0  0
   18.3482   18.1168   25.6498 H   0  0  0  0  0  0  0  0  0  0  0  0
   18.9049   16.4580   25.3704 H   0  0  0  0  0  0  0  0  0  0  0  0
   18.3274   17.4361   24.0127 H   0  0  0  0  0  0  0  0  0  0  0  0
  1  2  1  0  0  0  0
  1  3  1  0  0  0  0
  1  4  1  0  0  0  0
  1  5  1  0  0  0  0
  5  6  1  0  0  0  0
  5  7  1  0  0  0  0
  5  8  1  0  0  0  0
  8  9  1  0  0  0  0
  8 10  1  0  0  0  0
  8 11  1  0  0  0  0
 11 12  1  0  0  0  0
 11 13  1  0  0  0  0
 11 14  1  0  0  0  0
 14 15  1  0  0  0  0
 14 16  1  0  0  0  0
 14 17  1  0  0  0  0
 17 18  1  0  0  0  0
 17 19  1  0  0  0  0
 17 20  1  0  0  0  0
 20 21  1  0  0  0  0
 20 22  1  0  0  0  0
 20 23  1  0  0  0  0
M  END
> <VConfSearch Rank>
565

> <Conf_Id>
3

> <Delta U+W>
3.283

> <U+W>
-5.099

> <U>
50.701

> <W>
-55.800

> <W(PB)>
-57.867

> <W(SA)>
2.067

> <Valence>
4.880

> <Coulomb>
45.095

> <VdW>
0.726

> <VdW6>
-6.620

> <VdW12>
7.346

> <Bond>
0.222

> <Angle>
1.260

> <Pdih>
3.398

> <Idih>
0.000

> <Tether>
0.000

$$$$
VeraChem MOL file


 23 22  0  0  0  0  0  0  0  0999 V2000     
   18.2213   21.4227   21.9451 N   0  3  0  0  0  0  0  0  0  0  0  0
   18.3267   21.7356   20.9748 H   0  0  0  0  0  0  0  0  0  0  0  0
   17.5342   22.0429   22.3867 H   0  0  0  0  0  0  0  0  0  0  0  0
   17.8076   20.4858   21.9184 H   0  0  0  0  0  0  0  0  0  0  0  0
   19.5442   21.4292   22.6856 C   0  0  0  0  0  0  0  0  0  0  0  0
   19.3575   21.1169   23.7162 H   0  0  0  0  0  0  0  0  0  0  0  0
   19.9091   22.4597   22.7054 H   0  0  0  0  0  0  0  0  0  0  0  0
   20.6155   20.5200   22.0493 C   0  0  0  0  0  0  0  0  0  0  0  0
   20.8299   20.8769   21.0332 H   0  0  0  0  0  0  0  0  0  0  0  0
   21.5506   20.6285   22.6146 H   0  0  0  0  0  0  0  0  0  0  0  0
   20.2244   19.0215   21.9924 C   0  0  0  0  0  0  0  0  0  0  0  0
   21.0338   18.4781   21.4879 H   0  0  0  0  0  0  0  0  0  0  0  0
   19.3321   18.8913   21.3659 H   0  0  0  0  0  0  0  0  0  0  0  0
   19.9781   18.4018   23.3917 C   0  0  0  0  0  0  0  0  0  0  0  0
   20.8814   18.5083   24.0080 H   0  0  0  0  0  0  0  0  0  0  0  0
   19.1853   18.9599   23.9068 H   0  0  0  0  0  0  0  0  0  0  0  0
   19.5610   16.9119   23.3408 C   0  0  0  0  0  0  0  0  0  0  0  0
   18.6513   16.8006   22.7344 H   0  0  0  0  0  0  0  0  0  0  0  0
   19.2945   16.5865   24.3562 H   0  0  0  0  0  0  0  0  0  0  0  0
   20.6670   15.9798   22.7956 C   0  0  0  0  0  0  0  0  0  0  0  0
   21.5983   16.0968   23.3649 H   0  0  0  0  0  0  0  0  0  0  0  0
   20.8815   16.1821   21.7391 H   0  0  0  0  0  0  0  0  0  0  0  0
   20.3566   14.9298   22.8730 H   0  0  0  0  0  0  0  0  0  0  0  0
  1  2  1  0  0  0  0
  1  3  1  0  0  0  0
  1  4  1  0  0  0  0
  1  5  1  0  0  0  0
  5  6  1  0  0  0  0
  5  7  1  0  0  0  0
  5  8  1  0  0  0  0
  8  9  1  0  0  0  0
  8 10  1  0  0  0  0
  8 11  1  0  0  0  0
 11 12  1  0  0  0  0
 11 13  1  0  0  0  0
 11 14  1  0  0  0  0
 14 15  1  0  0  0  0
 14 16  1  0  0  0  0
 14 17  1  0  0  0  0
 17 18  1  0  0  0  0
 17 19  1  0  0  0  0
 17 20  1  0  0  0  0
 20 21  1  0  0  0  0
 20 22  1  0  0  0  0
 20 23  1  0  0  0  0
M  END
> <VConfSearch Rank>
566

> <Conf_Id>
83

> <Delta U+W>
1.229

> <U+W>
-7.154

> <U>
48.727

> <W>
-55.880

> <W(PB)>
-57.960

> <W(SA)>
2.080

> <Valence>
2.671

> <Coulomb>
45.371

> <VdW>
0.684

> <VdW6>
-6.511

> <VdW12>
7.195

> <Bond>
0.203

> <Angle>
0.915

> <Pdih>
1.554

> <Idih>
0.000

> <Tether>
0.000

$$$$
VeraChem MOL file


 23 22  0  0  0  0  0  0  0  0999 V2000     
   21.4137   17.9596   20.4750 N   0  3  0  0  0  0  0  0  0  0  0  0
   21.4280   18.5360   19.6275 H   0  0  0  0  0  0  0  0  0  0  0  0
   20.4525   17.6280   20.6001 H   0  0  0  0  0  0  0  0  0  0  0  0
   21.9945   17.1356   20.2863 H   0  0  0  0  0  0  0  0  0  0  0  0
   21.9025   18.7281   21.6869 C   0  0  0  0  0  0  0  0  0  0  0  0
   22.9395   19.0198   21.4996 H   0  0  0  0  0  0  0  0  0  0  0  0
   21.8916   18.0511   22.5448 H   0  0  0  0  0  0  0  0  0  0  0  0
   21.0670   19.9858   22.0022 C   0  0  0  0  0  0  0  0  0  0  0  0
   21.5222   20.5064   22.8552 H   0  0  0  0  0  0  0  0  0  0  0  0
   21.1294   20.6789   21.1528 H   0  0  0  0  0  0  0  0  0  0  0  0
   19.5774   19.6962   22.3168 C   0  0  0  0  0  0  0  0  0  0  0  0
   19.0915   19.2437   21.4422 H   0  0  0  0  0  0  0  0  0  0  0  0
   19.0726   20.6564   22.4839 H   0  0  0  0  0  0  0  0  0  0  0  0
   19.3815   18.7855   23.5556 C   0  0  0  0  0  0  0  0  0  0  0  0
   19.9064   17.8340   23.3995 H   0  0  0  0  0  0  0  0  0  0  0  0
   19.8442   19.2529   24.4357 H   0  0  0  0  0  0  0  0  0  0  0  0
   17.8967   18.4703   23.8597 C   0  0  0  0  0  0  0  0  0  0  0  0
   17.8533   17.7319   24.6726 H   0  0  0  0  0  0  0  0  0  0  0  0
   17.4312   17.9925   22.9863 H   0  0  0  0  0  0  0  0  0  0  0  0
   17.0744   19.7121   24.2733 C   0  0  0  0  0  0  0  0  0  0  0  0
   17.5379   20.2271   25.1247 H   0  0  0  0  0  0  0  0  0  0  0  0
   16.0595   19.4186   24.5711 H   0  0  0  0  0  0  0  0  0  0  0  0
   16.9805   20.4279   23.4474 H   0  0  0  0  0  0  0  0  0  0  0  0
  1  2  1  0  0  0  0
  1  3  1  0  0  0  0
  1  4  1  0  0  0  0
  1  5  1  0  0  0  0
  5  6  1  0  0  0  0
  5  7  1  0  0  0  0
  5  8  1  0  0  0  0
  8  9  1  0  0  0  0
  8 10  1  0  0  0  0
  8 11  1  0  0  0  0
 11 12  1  0  0  0  0
 11 13  1  0  0  0  0
 11 14  1  0  0  0  0
 14 15  1  0  0  0  0
 14 16  1  0  0  0  0
 14 17  1  0  0  0  0
 17 18  1  0  0  0  0
 17 19  1  0  0  0  0
 17 20  1  0  0  0  0
 20 21  1  0  0  0  0
 20 22  1  0  0  0  0
 20 23  1  0  0  0  0
M  END
> <VConfSearch Rank>
567

> <Conf_Id>
50

> <Delta U+W>
1.252

> <U+W>
-7.130

> <U>
48.727

> <W>
-55.857

> <W(PB)>
-57.937

> <W(SA)>
2.080

> <Valence>
2.671

> <Coulomb>
45.371

> <VdW>
0.684

> <VdW6>
-6.511

> <VdW12>
7.196

> <Bond>
0.203

> <Angle>
0.915

> <Pdih>
1.554

> <Idih>
0.000

> <Tether>
0.000

$$$$
VeraChem MOL file


 23 22  0  0  0  0  0  0  0  0999 V2000     
   21.9563   18.4742   20.3726 N   0  3  0  0  0  0  0  0  0  0  0  0
   22.5200   18.4633   21.2279 H   0  0  0  0  0  0  0  0  0  0  0  0
   22.5460   18.8655   19.6302 H   0  0  0  0  0  0  0  0  0  0  0  0
   21.7678   17.4985   20.1212 H   0  0  0  0  0  0  0  0  0  0  0  0
   20.6767   19.2677   20.5518 C   0  0  0  0  0  0  0  0  0  0  0  0
   20.1512   19.2698   19.5930 H   0  0  0  0  0  0  0  0  0  0  0  0
   20.9479   20.2989   20.7936 H   0  0  0  0  0  0  0  0  0  0  0  0
   19.7446   18.7074   21.6436 C   0  0  0  0  0  0  0  0  0  0  0  0
   18.8088   19.2770   21.6206 H   0  0  0  0  0  0  0  0  0  0  0  0
   19.4794   17.6703   21.3991 H   0  0  0  0  0  0  0  0  0  0  0  0
   20.3763   18.7698   23.0578 C   0  0  0  0  0  0  0  0  0  0  0  0
   20.7315   19.7870   23.2735 H   0  0  0  0  0  0  0  0  0  0  0  0
   21.2667   18.1271   23.0706 H   0  0  0  0  0  0  0  0  0  0  0  0
   19.4190   18.2919   24.1808 C   0  0  0  0  0  0  0  0  0  0  0  0
   18.7144   17.5451   23.7897 H   0  0  0  0  0  0  0  0  0  0  0  0
   20.0161   17.7662   24.9388 H   0  0  0  0  0  0  0  0  0  0  0  0
   18.6474   19.4271   24.9014 C   0  0  0  0  0  0  0  0  0  0  0  0
   19.3617   20.1141   25.3764 H   0  0  0  0  0  0  0  0  0  0  0  0
   18.0612   18.9853   25.7194 H   0  0  0  0  0  0  0  0  0  0  0  0
   17.6954   20.2297   23.9879 C   0  0  0  0  0  0  0  0  0  0  0  0
   17.0054   19.5647   23.4527 H   0  0  0  0  0  0  0  0  0  0  0  0
   18.2536   20.8213   23.2520 H   0  0  0  0  0  0  0  0  0  0  0  0
   17.0937   20.9296   24.5820 H   0  0  0  0  0  0  0  0  0  0  0  0
  1  2  1  0  0  0  0
  1  3  1  0  0  0  0
  1  4  1  0  0  0  0
  1  5  1  0  0  0  0
  5  6  1  0  0  0  0
  5  7  1  0  0  0  0
  5  8  1  0  0  0  0
  8  9  1  0  0  0  0
  8 10  1  0  0  0  0
  8 11  1  0  0  0  0
 11 12  1  0  0  0  0
 11 13  1  0  0  0  0
 11 14  1  0  0  0  0
 14 15  1  0  0  0  0
 14 16  1  0  0  0  0
 14 17  1  0  0  0  0
 17 18  1  0  0  0  0
 17 19  1  0  0  0  0
 17 20  1  0  0  0  0
 20 21  1  0  0  0  0
 20 22  1  0  0  0  0
 20 23  1  0  0  0  0
M  END
> <VConfSearch Rank>
568

> <Conf_Id>
55

> <Delta U+W>
3.232

> <U+W>
-5.150

> <U>
50.625

> <W>
-55.776

> <W(PB)>
-57.839

> <W(SA)>
2.064

> <Valence>
4.837

> <Coulomb>
45.097

> <VdW>
0.692

> <VdW6>
-6.655

> <VdW12>
7.347

> <Bond>
0.223

> <Angle>
1.167

> <Pdih>
3.447

> <Idih>
0.000

> <Tether>
0.000

$$$$
VeraChem MOL file


 23 22  0  0  0  0  0  0  0  0999 V2000     
   18.7864   21.9570   22.9206 N   0  3  0  0  0  0  0  0  0  0  0  0
   17.8861   22.2573   22.5331 H   0  0  0  0  0  0  0  0  0  0  0  0
   19.4254   22.7554   22.8420 H   0  0  0  0  0  0  0  0  0  0  0  0
   18.6423   21.7877   23.9212 H   0  0  0  0  0  0  0  0  0  0  0  0
   19.3262   20.7316   22.2115 C   0  0  0  0  0  0  0  0  0  0  0  0
   20.2970   20.4935   22.6499 H   0  0  0  0  0  0  0  0  0  0  0  0
   19.4816   20.9925   21.1612 H   0  0  0  0  0  0  0  0  0  0  0  0
   18.3831   19.5162   22.3066 C   0  0  0  0  0  0  0  0  0  0  0  0
   18.1804   19.2709   23.3576 H   0  0  0  0  0  0  0  0  0  0  0  0
   17.4190   19.7981   21.8626 H   0  0  0  0  0  0  0  0  0  0  0  0
   18.9221   18.2684   21.5624 C   0  0  0  0  0  0  0  0  0  0  0  0
   19.4290   18.5724   20.6360 H   0  0  0  0  0  0  0  0  0  0  0  0
   18.0622   17.6622   21.2450 H   0  0  0  0  0  0  0  0  0  0  0  0
   19.8516   17.3554   22.4038 C   0  0  0  0  0  0  0  0  0  0  0  0
   19.2996   16.9734   23.2736 H   0  0  0  0  0  0  0  0  0  0  0  0
   20.1080   16.4764   21.7963 H   0  0  0  0  0  0  0  0  0  0  0  0
   21.1574   18.0313   22.8819 C   0  0  0  0  0  0  0  0  0  0  0  0
   20.9261   18.8148   23.6152 H   0  0  0  0  0  0  0  0  0  0  0  0
   21.6599   18.5162   22.0334 H   0  0  0  0  0  0  0  0  0  0  0  0
   22.1191   17.0146   23.5333 C   0  0  0  0  0  0  0  0  0  0  0  0
   22.4089   16.2316   22.8205 H   0  0  0  0  0  0  0  0  0  0  0  0
   21.6529   16.5311   24.4017 H   0  0  0  0  0  0  0  0  0  0  0  0
   23.0352   17.5126   23.8765 H   0  0  0  0  0  0  0  0  0  0  0  0
  1  2  1  0  0  0  0
  1  3  1  0  0  0  0
  1  4  1  0  0  0  0
  1  5  1  0  0  0  0
  5  6  1  0  0  0  0
  5  7  1  0  0  0  0
  5  8  1  0  0  0  0
  8  9  1  0  0  0  0
  8 10  1  0  0  0  0
  8 11  1  0  0  0  0
 11 12  1  0  0  0  0
 11 13  1  0  0  0  0
 11 14  1  0  0  0  0
 14 15  1  0  0  0  0
 14 16  1  0  0  0  0
 14 17  1  0  0  0  0
 17 18  1  0  0  0  0
 17 19  1  0  0  0  0
 17 20  1  0  0  0  0
 20 21  1  0  0  0  0
 20 22  1  0  0  0  0
 20 23  1  0  0  0  0
M  END
> <VConfSearch Rank>
569

> <Conf_Id>
93

> <Delta U+W>
2.589

> <U+W>
-5.793

> <U>
50.122

> <W>
-55.915

> <W(PB)>
-58.031

> <W(SA)>
2.115

> <Valence>
4.132

> <Coulomb>
45.536

> <VdW>
0.454

> <VdW6>
-6.262

> <VdW12>
6.715

> <Bond>
0.182

> <Angle>
1.157

> <Pdih>
2.794

> <Idih>
0.000

> <Tether>
0.000

$$$$
VeraChem MOL file


 23 22  0  0  0  0  0  0  0  0999 V2000     
   18.5238   16.1776   21.7841 N   0  3  0  0  0  0  0  0  0  0  0  0
   17.8581   16.6500   21.1640 H   0  0  0  0  0  0  0  0  0  0  0  0
   17.9717   15.6291   22.4521 H   0  0  0  0  0  0  0  0  0  0  0  0
   19.0471   15.5083   21.2104 H   0  0  0  0  0  0  0  0  0  0  0  0
   19.4407   17.1602   22.4837 C   0  0  0  0  0  0  0  0  0  0  0  0
   20.0996   16.5919   23.1458 H   0  0  0  0  0  0  0  0  0  0  0  0
   18.8208   17.8137   23.1001 H   0  0  0  0  0  0  0  0  0  0  0  0
   20.2893   17.9946   21.5043 C   0  0  0  0  0  0  0  0  0  0  0  0
   20.8910   17.3023   20.9004 H   0  0  0  0  0  0  0  0  0  0  0  0
   19.6412   18.5355   20.8020 H   0  0  0  0  0  0  0  0  0  0  0  0
   21.2449   18.9840   22.2180 C   0  0  0  0  0  0  0  0  0  0  0  0
   22.1115   19.1536   21.5639 H   0  0  0  0  0  0  0  0  0  0  0  0
   21.6479   18.5254   23.1316 H   0  0  0  0  0  0  0  0  0  0  0  0
   20.6282   20.3692   22.5442 C   0  0  0  0  0  0  0  0  0  0  0  0
   21.4159   20.9998   22.9791 H   0  0  0  0  0  0  0  0  0  0  0  0
   20.3238   20.8632   21.6111 H   0  0  0  0  0  0  0  0  0  0  0  0
   19.4272   20.3267   23.5170 C   0  0  0  0  0  0  0  0  0  0  0  0
   19.6868   19.7350   24.4059 H   0  0  0  0  0  0  0  0  0  0  0  0
   18.5730   19.8337   23.0351 H   0  0  0  0  0  0  0  0  0  0  0  0
   18.9973   21.7436   23.9529 C   0  0  0  0  0  0  0  0  0  0  0  0
   18.1376   21.6955   24.6338 H   0  0  0  0  0  0  0  0  0  0  0  0
   18.7071   22.3519   23.0863 H   0  0  0  0  0  0  0  0  0  0  0  0
   19.8122   22.2607   24.4762 H   0  0  0  0  0  0  0  0  0  0  0  0
  1  2  1  0  0  0  0
  1  3  1  0  0  0  0
  1  4  1  0  0  0  0
  1  5  1  0  0  0  0
  5  6  1  0  0  0  0
  5  7  1  0  0  0  0
  5  8  1  0  0  0  0
  8  9  1  0  0  0  0
  8 10  1  0  0  0  0
  8 11  1  0  0  0  0
 11 12  1  0  0  0  0
 11 13  1  0  0  0  0
 11 14  1  0  0  0  0
 14 15  1  0  0  0  0
 14 16  1  0  0  0  0
 14 17  1  0  0  0  0
 17 18  1  0  0  0  0
 17 19  1  0  0  0  0
 17 20  1  0  0  0  0
 20 21  1  0  0  0  0
 20 22  1  0  0  0  0
 20 23  1  0  0  0  0
M  END
> <VConfSearch Rank>
570

> <Conf_Id>
70

> <Delta U+W>
2.599

> <U+W>
-5.783

> <U>
50.122

> <W>
-55.906

> <W(PB)>
-58.010

> <W(SA)>
2.105

> <Valence>
4.132

> <Coulomb>
45.536

> <VdW>
0.454

> <VdW6>
-6.262

> <VdW12>
6.715

> <Bond>
0.182

> <Angle>
1.157

> <Pdih>
2.794

> <Idih>
0.000

> <Tether>
0.000

$$$$
VeraChem MOL file


 23 22  0  0  0  0  0  0  0  0999 V2000     
   20.8014   16.5652   23.7036 N   0  3  0  0  0  0  0  0  0  0  0  0
   21.3256   16.5020   24.5821 H   0  0  0  0  0  0  0  0  0  0  0  0
   20.8925   15.6576   23.2348 H   0  0  0  0  0  0  0  0  0  0  0  0
   19.8133   16.6803   23.9481 H   0  0  0  0  0  0  0  0  0  0  0  0
   21.2982   17.7021   22.8324 C   0  0  0  0  0  0  0  0  0  0  0  0
   20.7239   17.6933   21.9023 H   0  0  0  0  0  0  0  0  0  0  0  0
   22.3447   17.5012   22.5873 H   0  0  0  0  0  0  0  0  0  0  0  0
   21.1852   19.0873   23.5005 C   0  0  0  0  0  0  0  0  0  0  0  0
   21.7933   19.0954   24.4148 H   0  0  0  0  0  0  0  0  0  0  0  0
   21.6333   19.8380   22.8372 H   0  0  0  0  0  0  0  0  0  0  0  0
   19.7318   19.5012   23.8513 C   0  0  0  0  0  0  0  0  0  0  0  0
   19.7459   20.5116   24.2829 H   0  0  0  0  0  0  0  0  0  0  0  0
   19.3502   18.8453   24.6452 H   0  0  0  0  0  0  0  0  0  0  0  0
   18.7395   19.4741   22.6599 C   0  0  0  0  0  0  0  0  0  0  0  0
   18.6406   18.4505   22.2748 H   0  0  0  0  0  0  0  0  0  0  0  0
   17.7443   19.7545   23.0319 H   0  0  0  0  0  0  0  0  0  0  0  0
   19.1315   20.4284   21.5073 C   0  0  0  0  0  0  0  0  0  0  0  0
   20.0925   20.1227   21.0726 H   0  0  0  0  0  0  0  0  0  0  0  0
   19.2679   21.4463   21.8985 H   0  0  0  0  0  0  0  0  0  0  0  0
   18.0620   20.4465   20.3946 C   0  0  0  0  0  0  0  0  0  0  0  0
   18.3570   21.1260   19.5844 H   0  0  0  0  0  0  0  0  0  0  0  0
   17.0932   20.7868   20.7831 H   0  0  0  0  0  0  0  0  0  0  0  0
   17.9250   19.4466   19.9627 H   0  0  0  0  0  0  0  0  0  0  0  0
  1  2  1  0  0  0  0
  1  3  1  0  0  0  0
  1  4  1  0  0  0  0
  1  5  1  0  0  0  0
  5  6  1  0  0  0  0
  5  7  1  0  0  0  0
  5  8  1  0  0  0  0
  8  9  1  0  0  0  0
  8 10  1  0  0  0  0
  8 11  1  0  0  0  0
 11 12  1  0  0  0  0
 11 13  1  0  0  0  0
 11 14  1  0  0  0  0
 14 15  1  0  0  0  0
 14 16  1  0  0  0  0
 14 17  1  0  0  0  0
 17 18  1  0  0  0  0
 17 19  1  0  0  0  0
 17 20  1  0  0  0  0
 20 21  1  0  0  0  0
 20 22  1  0  0  0  0
 20 23  1  0  0  0  0
M  END
> <VConfSearch Rank>
571

> <Conf_Id>
72

> <Delta U+W>
1.051

> <U+W>
-7.331

> <U>
48.590

> <W>
-55.922

> <W(PB)>
-58.012

> <W(SA)>
2.090

> <Valence>
2.601

> <Coulomb>
45.520

> <VdW>
0.469

> <VdW6>
-6.867

> <VdW12>
7.336

> <Bond>
0.205

> <Angle>
0.962

> <Pdih>
1.434

> <Idih>
0.000

> <Tether>
0.000

$$$$
VeraChem MOL file


 23 22  0  0  0  0  0  0  0  0999 V2000     
   20.7616   21.6879   23.7900 N   0  3  0  0  0  0  0  0  0  0  0  0
   21.0407   22.5503   23.3101 H   0  0  0  0  0  0  0  0  0  0  0  0
   21.3508   21.6080   24.6250 H   0  0  0  0  0  0  0  0  0  0  0  0
   19.7983   21.8246   24.1125 H   0  0  0  0  0  0  0  0  0  0  0  0
   20.8902   20.4760   22.8898 C   0  0  0  0  0  0  0  0  0  0  0  0
   21.9309   20.4076   22.5616 H   0  0  0  0  0  0  0  0  0  0  0  0
   20.2623   20.6424   22.0106 H   0  0  0  0  0  0  0  0  0  0  0  0
   20.4780   19.1632   23.5815 C   0  0  0  0  0  0  0  0  0  0  0  0
   21.0891   19.0249   24.4832 H   0  0  0  0  0  0  0  0  0  0  0  0
   19.4375   19.2355   23.9229 H   0  0  0  0  0  0  0  0  0  0  0  0
   20.6504   17.9257   22.6661 C   0  0  0  0  0  0  0  0  0  0  0  0
   20.3622   17.0242   23.2231 H   0  0  0  0  0  0  0  0  0  0  0  0
   21.7173   17.8017   22.4346 H   0  0  0  0  0  0  0  0  0  0  0  0
   19.8584   17.9867   21.3320 C   0  0  0  0  0  0  0  0  0  0  0  0
   20.2632   18.7916   20.7039 H   0  0  0  0  0  0  0  0  0  0  0  0
   20.0400   17.0579   20.7739 H   0  0  0  0  0  0  0  0  0  0  0  0
   18.3290   18.1887   21.4817 C   0  0  0  0  0  0  0  0  0  0  0  0
   17.8813   18.2285   20.4789 H   0  0  0  0  0  0  0  0  0  0  0  0
   18.1178   19.1623   21.9438 H   0  0  0  0  0  0  0  0  0  0  0  0
   17.6389   17.0667   22.2901 C   0  0  0  0  0  0  0  0  0  0  0  0
   17.8465   16.0812   21.8535 H   0  0  0  0  0  0  0  0  0  0  0  0
   16.5505   17.2095   22.2946 H   0  0  0  0  0  0  0  0  0  0  0  0
   17.9753   17.0579   23.3343 H   0  0  0  0  0  0  0  0  0  0  0  0
  1  2  1  0  0  0  0
  1  3  1  0  0  0  0
  1  4  1  0  0  0  0
  1  5  1  0  0  0  0
  5  6  1  0  0  0  0
  5  7  1  0  0  0  0
  5  8  1  0  0  0  0
  8  9  1  0  0  0  0
  8 10  1  0  0  0  0
  8 11  1  0  0  0  0
 11 12  1  0  0  0  0
 11 13  1  0  0  0  0
 11 14  1  0  0  0  0
 14 15  1  0  0  0  0
 14 16  1  0  0  0  0
 14 17  1  0  0  0  0
 17 18  1  0  0  0  0
 17 19  1  0  0  0  0
 17 20  1  0  0  0  0
 20 21  1  0  0  0  0
 20 22  1  0  0  0  0
 20 23  1  0  0  0  0
M  END
> <VConfSearch Rank>
572

> <Conf_Id>
26

> <Delta U+W>
1.076

> <U+W>
-7.306

> <U>
48.641

> <W>
-55.947

> <W(PB)>
-58.031

> <W(SA)>
2.084

> <Valence>
2.922

> <Coulomb>
45.269

> <VdW>
0.449

> <VdW6>
-7.045

> <VdW12>
7.494

> <Bond>
0.220

> <Angle>
1.205

> <Pdih>
1.497

> <Idih>
0.000

> <Tether>
0.000

$$$$
VeraChem MOL file


 23 22  0  0  0  0  0  0  0  0999 V2000     
   22.2386   20.2340   24.1660 N   0  3  0  0  0  0  0  0  0  0  0  0
   23.0435   20.4861   23.5835 H   0  0  0  0  0  0  0  0  0  0  0  0
   22.6029   20.0194   25.1005 H   0  0  0  0  0  0  0  0  0  0  0  0
   21.6580   21.0736   24.2580 H   0  0  0  0  0  0  0  0  0  0  0  0
   21.4624   19.0703   23.5838 C   0  0  0  0  0  0  0  0  0  0  0  0
   20.6420   18.8379   24.2678 H   0  0  0  0  0  0  0  0  0  0  0  0
   22.1305   18.2059   23.5411 H   0  0  0  0  0  0  0  0  0  0  0  0
   20.9011   19.3609   22.1794 C   0  0  0  0  0  0  0  0  0  0  0  0
   20.2405   20.2364   22.2186 H   0  0  0  0  0  0  0  0  0  0  0  0
   21.7291   19.6294   21.5100 H   0  0  0  0  0  0  0  0  0  0  0  0
   20.1431   18.1520   21.5769 C   0  0  0  0  0  0  0  0  0  0  0  0
   20.8518   17.3246   21.4337 H   0  0  0  0  0  0  0  0  0  0  0  0
   19.7891   18.4152   20.5712 H   0  0  0  0  0  0  0  0  0  0  0  0
   18.9506   17.6400   22.4293 C   0  0  0  0  0  0  0  0  0  0  0  0
   18.4798   16.7981   21.9033 H   0  0  0  0  0  0  0  0  0  0  0  0
   19.3287   17.2235   23.3726 H   0  0  0  0  0  0  0  0  0  0  0  0
   17.8654   18.6996   22.7485 C   0  0  0  0  0  0  0  0  0  0  0  0
   18.2888   19.5029   23.3661 H   0  0  0  0  0  0  0  0  0  0  0  0
   17.0854   18.2279   23.3624 H   0  0  0  0  0  0  0  0  0  0  0  0
   17.2079   19.3028   21.4866 C   0  0  0  0  0  0  0  0  0  0  0  0
   17.9287   19.8798   20.8941 H   0  0  0  0  0  0  0  0  0  0  0  0
   16.3909   19.9808   21.7653 H   0  0  0  0  0  0  0  0  0  0  0  0
   16.7880   18.5162   20.8464 H   0  0  0  0  0  0  0  0  0  0  0  0
  1  2  1  0  0  0  0
  1  3  1  0  0  0  0
  1  4  1  0  0  0  0
  1  5  1  0  0  0  0
  5  6  1  0  0  0  0
  5  7  1  0  0  0  0
  5  8  1  0  0  0  0
  8  9  1  0  0  0  0
  8 10  1  0  0  0  0
  8 11  1  0  0  0  0
 11 12  1  0  0  0  0
 11 13  1  0  0  0  0
 11 14  1  0  0  0  0
 14 15  1  0  0  0  0
 14 16  1  0  0  0  0
 14 17  1  0  0  0  0
 17 18  1  0  0  0  0
 17 19  1  0  0  0  0
 17 20  1  0  0  0  0
 20 21  1  0  0  0  0
 20 22  1  0  0  0  0
 20 23  1  0  0  0  0
M  END
> <VConfSearch Rank>
573

> <Conf_Id>
90

> <Delta U+W>
1.131

> <U+W>
-7.251

> <U>
48.641

> <W>
-55.892

> <W(PB)>
-57.962

> <W(SA)>
2.070

> <Valence>
2.922

> <Coulomb>
45.269

> <VdW>
0.450

> <VdW6>
-7.045

> <VdW12>
7.495

> <Bond>
0.220

> <Angle>
1.205

> <Pdih>
1.497

> <Idih>
0.000

> <Tether>
0.000

$$$$
VeraChem MOL file


 23 22  0  0  0  0  0  0  0  0999 V2000     
   19.6935   16.4690   23.5170 N   0  3  0  0  0  0  0  0  0  0  0  0
   20.1437   15.9358   24.2686 H   0  0  0  0  0  0  0  0  0  0  0  0
   20.4411   16.8733   22.9449 H   0  0  0  0  0  0  0  0  0  0  0  0
   19.1929   15.7942   22.9300 H   0  0  0  0  0  0  0  0  0  0  0  0
   18.7665   17.5378   24.0618 C   0  0  0  0  0  0  0  0  0  0  0  0
   19.3539   18.2025   24.7003 H   0  0  0  0  0  0  0  0  0  0  0  0
   18.0179   17.0425   24.6861 H   0  0  0  0  0  0  0  0  0  0  0  0
   18.0567   18.3595   22.9664 C   0  0  0  0  0  0  0  0  0  0  0  0
   17.4329   17.6887   22.3609 H   0  0  0  0  0  0  0  0  0  0  0  0
   17.3677   19.0664   23.4475 H   0  0  0  0  0  0  0  0  0  0  0  0
   19.0223   19.1385   22.0383 C   0  0  0  0  0  0  0  0  0  0  0  0
   18.4279   19.6766   21.2873 H   0  0  0  0  0  0  0  0  0  0  0  0
   19.6477   18.4287   21.4822 H   0  0  0  0  0  0  0  0  0  0  0  0
   19.9129   20.1511   22.8019 C   0  0  0  0  0  0  0  0  0  0  0  0
   19.2728   20.7974   23.4183 H   0  0  0  0  0  0  0  0  0  0  0  0
   20.5788   19.6219   23.4965 H   0  0  0  0  0  0  0  0  0  0  0  0
   20.7622   21.0470   21.8684 C   0  0  0  0  0  0  0  0  0  0  0  0
   21.2785   21.8019   22.4778 H   0  0  0  0  0  0  0  0  0  0  0  0
   20.1042   21.6017   21.1850 H   0  0  0  0  0  0  0  0  0  0  0  0
   21.8141   20.2603   21.0536 C   0  0  0  0  0  0  0  0  0  0  0  0
   22.4684   19.6757   21.7132 H   0  0  0  0  0  0  0  0  0  0  0  0
   22.4467   20.9483   20.4780 H   0  0  0  0  0  0  0  0  0  0  0  0
   21.3411   19.5736   20.3407 H   0  0  0  0  0  0  0  0  0  0  0  0
  1  2  1  0  0  0  0
  1  3  1  0  0  0  0
  1  4  1  0  0  0  0
  1  5  1  0  0  0  0
  5  6  1  0  0  0  0
  5  7  1  0  0  0  0
  5  8  1  0  0  0  0
  8  9  1  0  0  0  0
  8 10  1  0  0  0  0
  8 11  1  0  0  0  0
 11 12  1  0  0  0  0
 11 13  1  0  0  0  0
 11 14  1  0  0  0  0
 14 15  1  0  0  0  0
 14 16  1  0  0  0  0
 14 17  1  0  0  0  0
 17 18  1  0  0  0  0
 17 19  1  0  0  0  0
 17 20  1  0  0  0  0
 20 21  1  0  0  0  0
 20 22  1  0  0  0  0
 20 23  1  0  0  0  0
M  END
> <VConfSearch Rank>
574

> <Conf_Id>
85

> <Delta U+W>
1.193

> <U+W>
-7.189

> <U>
48.775

> <W>
-55.965

> <W(PB)>
-58.038

> <W(SA)>
2.073

> <Valence>
2.602

> <Coulomb>
45.581

> <VdW>
0.592

> <VdW6>
-6.616

> <VdW12>
7.208

> <Bond>
0.196

> <Angle>
0.832

> <Pdih>
1.574

> <Idih>
0.000

> <Tether>
0.000

$$$$
VeraChem MOL file


 23 22  0  0  0  0  0  0  0  0999 V2000     
   21.3485   18.8535   23.8386 N   0  3  0  0  0  0  0  0  0  0  0  0
   21.2124   18.7847   22.8250 H   0  0  0  0  0  0  0  0  0  0  0  0
   21.9739   18.0896   24.1174 H   0  0  0  0  0  0  0  0  0  0  0  0
   21.8478   19.7300   24.0216 H   0  0  0  0  0  0  0  0  0  0  0  0
   20.0259   18.7965   24.5783 C   0  0  0  0  0  0  0  0  0  0  0  0
   20.2528   18.8768   25.6449 H   0  0  0  0  0  0  0  0  0  0  0  0
   19.5675   17.8199   24.4016 H   0  0  0  0  0  0  0  0  0  0  0  0
   19.0401   19.9166   24.1878 C   0  0  0  0  0  0  0  0  0  0  0  0
   18.3263   20.0357   25.0136 H   0  0  0  0  0  0  0  0  0  0  0  0
   19.5749   20.8730   24.1154 H   0  0  0  0  0  0  0  0  0  0  0  0
   18.2258   19.6600   22.8912 C   0  0  0  0  0  0  0  0  0  0  0  0
   17.5320   20.5030   22.7670 H   0  0  0  0  0  0  0  0  0  0  0  0
   17.5898   18.7728   23.0172 H   0  0  0  0  0  0  0  0  0  0  0  0
   19.0659   19.5350   21.5943 C   0  0  0  0  0  0  0  0  0  0  0  0
   18.5027   19.9917   20.7685 H   0  0  0  0  0  0  0  0  0  0  0  0
   19.9892   20.1228   21.6824 H   0  0  0  0  0  0  0  0  0  0  0  0
   19.3727   18.0680   21.2058 C   0  0  0  0  0  0  0  0  0  0  0  0
   18.4323   17.5540   20.9615 H   0  0  0  0  0  0  0  0  0  0  0  0
   19.8067   17.5181   22.0493 H   0  0  0  0  0  0  0  0  0  0  0  0
   20.3248   17.9857   19.9940 C   0  0  0  0  0  0  0  0  0  0  0  0
   19.8902   18.4836   19.1173 H   0  0  0  0  0  0  0  0  0  0  0  0
   20.5188   16.9395   19.7240 H   0  0  0  0  0  0  0  0  0  0  0  0
   21.2897   18.4614   20.2122 H   0  0  0  0  0  0  0  0  0  0  0  0
  1  2  1  0  0  0  0
  1  3  1  0  0  0  0
  1  4  1  0  0  0  0
  1  5  1  0  0  0  0
  5  6  1  0  0  0  0
  5  7  1  0  0  0  0
  5  8  1  0  0  0  0
  8  9  1  0  0  0  0
  8 10  1  0  0  0  0
  8 11  1  0  0  0  0
 11 12  1  0  0  0  0
 11 13  1  0  0  0  0
 11 14  1  0  0  0  0
 14 15  1  0  0  0  0
 14 16  1  0  0  0  0
 14 17  1  0  0  0  0
 17 18  1  0  0  0  0
 17 19  1  0  0  0  0
 17 20  1  0  0  0  0
 20 21  1  0  0  0  0
 20 22  1  0  0  0  0
 20 23  1  0  0  0  0
M  END
> <VConfSearch Rank>
575

> <Conf_Id>
82

> <Delta U+W>
5.994

> <U+W>
-2.388

> <U>
52.836

> <W>
-55.224

> <W(PB)>
-57.261

> <W(SA)>
2.037

> <Valence>
5.785

> <Coulomb>
46.744

> <VdW>
0.307

> <VdW6>
-7.672

> <VdW12>
7.979

> <Bond>
0.217

> <Angle>
1.470

> <Pdih>
4.098

> <Idih>
0.000

> <Tether>
0.000

$$$$
VeraChem MOL file


 23 22  0  0  0  0  0  0  0  0999 V2000     
   18.4912   18.5788   21.0622 N   0  3  0  0  0  0  0  0  0  0  0  0
   18.3622   17.5980   20.7934 H   0  0  0  0  0  0  0  0  0  0  0  0
   17.6749   19.0937   20.7145 H   0  0  0  0  0  0  0  0  0  0  0  0
   18.4679   18.6211   22.0861 H   0  0  0  0  0  0  0  0  0  0  0  0
   19.7880   19.1442   20.5160 C   0  0  0  0  0  0  0  0  0  0  0  0
   19.8444   20.2048   20.7749 H   0  0  0  0  0  0  0  0  0  0  0  0
   19.7379   19.0632   19.4267 H   0  0  0  0  0  0  0  0  0  0  0  0
   21.0508   18.4144   21.0174 C   0  0  0  0  0  0  0  0  0  0  0  0
   20.8858   17.3290   20.9946 H   0  0  0  0  0  0  0  0  0  0  0  0
   21.8566   18.6088   20.2971 H   0  0  0  0  0  0  0  0  0  0  0  0
   21.5542   18.8493   22.4201 C   0  0  0  0  0  0  0  0  0  0  0  0
   21.8443   19.9091   22.4024 H   0  0  0  0  0  0  0  0  0  0  0  0
   22.4810   18.2949   22.6227 H   0  0  0  0  0  0  0  0  0  0  0  0
   20.5711   18.5841   23.5891 C   0  0  0  0  0  0  0  0  0  0  0  0
   19.9350   17.7187   23.3606 H   0  0  0  0  0  0  0  0  0  0  0  0
   21.1531   18.2970   24.4760 H   0  0  0  0  0  0  0  0  0  0  0  0
   19.7182   19.8216   23.9609 C   0  0  0  0  0  0  0  0  0  0  0  0
   19.2251   20.2423   23.0765 H   0  0  0  0  0  0  0  0  0  0  0  0
   20.3770   20.6132   24.3450 H   0  0  0  0  0  0  0  0  0  0  0  0
   18.6568   19.4832   25.0289 C   0  0  0  0  0  0  0  0  0  0  0  0
   17.9584   18.7172   24.6680 H   0  0  0  0  0  0  0  0  0  0  0  0
   18.0725   20.3749   25.2907 H   0  0  0  0  0  0  0  0  0  0  0  0
   19.1279   19.1090   25.9473 H   0  0  0  0  0  0  0  0  0  0  0  0
  1  2  1  0  0  0  0
  1  3  1  0  0  0  0
  1  4  1  0  0  0  0
  1  5  1  0  0  0  0
  5  6  1  0  0  0  0
  5  7  1  0  0  0  0
  5  8  1  0  0  0  0
  8  9  1  0  0  0  0
  8 10  1  0  0  0  0
  8 11  1  0  0  0  0
 11 12  1  0  0  0  0
 11 13  1  0  0  0  0
 11 14  1  0  0  0  0
 14 15  1  0  0  0  0
 14 16  1  0  0  0  0
 14 17  1  0  0  0  0
 17 18  1  0  0  0  0
 17 19  1  0  0  0  0
 17 20  1  0  0  0  0
 20 21  1  0  0  0  0
 20 22  1  0  0  0  0
 20 23  1  0  0  0  0
M  END
> <VConfSearch Rank>
576

> <Conf_Id>
5

> <Delta U+W>
6.087

> <U+W>
-2.295

> <U>
52.836

> <W>
-55.131

> <W(PB)>
-57.202

> <W(SA)>
2.071

> <Valence>
5.785

> <Coulomb>
46.744

> <VdW>
0.307

> <VdW6>
-7.672

> <VdW12>
7.980

> <Bond>
0.217

> <Angle>
1.470

> <Pdih>
4.098

> <Idih>
0.000

> <Tether>
0.000

$$$$
VeraChem MOL file


 23 22  0  0  0  0  0  0  0  0999 V2000     
   17.3234   16.6107   24.3386 N   0  3  0  0  0  0  0  0  0  0  0  0
   17.7785   15.7435   24.0357 H   0  0  0  0  0  0  0  0  0  0  0  0
   16.3173   16.4173   24.3888 H   0  0  0  0  0  0  0  0  0  0  0  0
   17.6386   16.7983   25.2958 H   0  0  0  0  0  0  0  0  0  0  0  0
   17.6287   17.7652   23.4060 C   0  0  0  0  0  0  0  0  0  0  0  0
   17.0906   18.6446   23.7702 H   0  0  0  0  0  0  0  0  0  0  0  0
   17.2409   17.5108   22.4158 H   0  0  0  0  0  0  0  0  0  0  0  0
   19.1317   18.0812   23.3082 C   0  0  0  0  0  0  0  0  0  0  0  0
   19.5202   18.3202   24.3073 H   0  0  0  0  0  0  0  0  0  0  0  0
   19.6699   17.1903   22.9577 H   0  0  0  0  0  0  0  0  0  0  0  0
   19.4001   19.2621   22.3493 C   0  0  0  0  0  0  0  0  0  0  0  0
   18.8558   20.1499   22.7004 H   0  0  0  0  0  0  0  0  0  0  0  0
   19.0054   19.0212   21.3523 H   0  0  0  0  0  0  0  0  0  0  0  0
   20.9073   19.5882   22.2435 C   0  0  0  0  0  0  0  0  0  0  0  0
   21.3021   19.8292   23.2403 H   0  0  0  0  0  0  0  0  0  0  0  0
   21.4517   18.7006   21.8924 H   0  0  0  0  0  0  0  0  0  0  0  0
   21.1754   20.7693   21.2843 C   0  0  0  0  0  0  0  0  0  0  0  0
   20.6347   21.6605   21.6327 H   0  0  0  0  0  0  0  0  0  0  0  0
   20.7843   20.5320   20.2850 H   0  0  0  0  0  0  0  0  0  0  0  0
   22.6813   21.0920   21.1813 C   0  0  0  0  0  0  0  0  0  0  0  0
   22.8516   21.9327   20.4963 H   0  0  0  0  0  0  0  0  0  0  0  0
   23.2449   20.2294   20.8025 H   0  0  0  0  0  0  0  0  0  0  0  0
   23.0941   21.3667   22.1608 H   0  0  0  0  0  0  0  0  0  0  0  0
  1  2  1  0  0  0  0
  1  3  1  0  0  0  0
  1  4  1  0  0  0  0
  1  5  1  0  0  0  0
  5  6  1  0  0  0  0
  5  7  1  0  0  0  0
  5  8  1  0  0  0  0
  8  9  1  0  0  0  0
  8 10  1  0  0  0  0
  8 11  1  0  0  0  0
 11 12  1  0  0  0  0
 11 13  1  0  0  0  0
 11 14  1  0  0  0  0
 14 15  1  0  0  0  0
 14 16  1  0  0  0  0
 14 17  1  0  0  0  0
 17 18  1  0  0  0  0
 17 19  1  0  0  0  0
 17 20  1  0  0  0  0
 20 21  1  0  0  0  0
 20 22  1  0  0  0  0
 20 23  1  0  0  0  0
M  END
> <VConfSearch Rank>
577

> <Conf_Id>
40

> <Delta U+W>
0.000

> <U+W>
-8.382

> <U>
46.604

> <W>
-54.986

> <W(PB)>
-57.162

> <W(SA)>
2.176

> <Valence>
1.727

> <Coulomb>
44.434

> <VdW>
0.443

> <VdW6>
-4.623

> <VdW12>
5.066

> <Bond>
0.112

> <Angle>
0.386

> <Pdih>
1.228

> <Idih>
0.000

> <Tether>
0.000

$$$$
VeraChem MOL file


 23 22  0  0  0  0  0  0  0  0999 V2000     
   20.1220   22.1180   24.3583 N   0  3  0  0  0  0  0  0  0  0  0  0
   19.7500   22.0354   25.3099 H   0  0  0  0  0  0  0  0  0  0  0  0
   19.4366   22.6495   23.8118 H   0  0  0  0  0  0  0  0  0  0  0  0
   20.9677   22.6953   24.4182 H   0  0  0  0  0  0  0  0  0  0  0  0
   20.4075   20.7631   23.7431 C   0  0  0  0  0  0  0  0  0  0  0  0
   21.1631   20.2660   24.3574 H   0  0  0  0  0  0  0  0  0  0  0  0
   20.8278   20.9292   22.7479 H   0  0  0  0  0  0  0  0  0  0  0  0
   19.1555   19.8716   23.6396 C   0  0  0  0  0  0  0  0  0  0  0  0
   18.7176   19.7530   24.6397 H   0  0  0  0  0  0  0  0  0  0  0  0
   18.3967   20.3698   23.0216 H   0  0  0  0  0  0  0  0  0  0  0  0
   19.4621   18.4711   23.0581 C   0  0  0  0  0  0  0  0  0  0  0  0
   18.5494   17.8647   23.1241 H   0  0  0  0  0  0  0  0  0  0  0  0
   20.2143   17.9712   23.6839 H   0  0  0  0  0  0  0  0  0  0  0  0
   19.9506   18.5167   21.5878 C   0  0  0  0  0  0  0  0  0  0  0  0
   19.1889   18.9979   20.9590 H   0  0  0  0  0  0  0  0  0  0  0  0
   20.8494   19.1435   21.5185 H   0  0  0  0  0  0  0  0  0  0  0  0
   20.2914   17.1221   21.0085 C   0  0  0  0  0  0  0  0  0  0  0  0
   21.0609   16.6401   21.6278 H   0  0  0  0  0  0  0  0  0  0  0  0
   20.7374   17.2543   20.0128 H   0  0  0  0  0  0  0  0  0  0  0  0
   19.0650   16.1896   20.8829 C   0  0  0  0  0  0  0  0  0  0  0  0
   18.6570   15.9239   21.8659 H   0  0  0  0  0  0  0  0  0  0  0  0
   19.3436   15.2550   20.3790 H   0  0  0  0  0  0  0  0  0  0  0  0
   18.2677   16.6626   20.2951 H   0  0  0  0  0  0  0  0  0  0  0  0
  1  2  1  0  0  0  0
  1  3  1  0  0  0  0
  1  4  1  0  0  0  0
  1  5  1  0  0  0  0
  5  6  1  0  0  0  0
  5  7  1  0  0  0  0
  5  8  1  0  0  0  0
  8  9  1  0  0  0  0
  8 10  1  0  0  0  0
  8 11  1  0  0  0  0
 11 12  1  0  0  0  0
 11 13  1  0  0  0  0
 11 14  1  0  0  0  0
 14 15  1  0  0  0  0
 14 16  1  0  0  0  0
 14 17  1  0  0  0  0
 17 18  1  0  0  0  0
 17 19  1  0  0  0  0
 17 20  1  0  0  0  0
 20 21  1  0  0  0  0
 20 22  1  0  0  0  0
 20 23  1  0  0  0  0
M  END
> <VConfSearch Rank>
578

> <Conf_Id>
65

> <Delta U+W>
1.004

> <U+W>
-7.378

> <U>
48.047

> <W>
-55.425

> <W(PB)>
-57.542

> <W(SA)>
2.116

> <Valence>
2.583

> <Coulomb>
44.791

> <VdW>
0.673

> <VdW6>
-5.788

> <VdW12>
6.462

> <Bond>
0.177

> <Angle>
0.787

> <Pdih>
1.619

> <Idih>
0.000

> <Tether>
0.000

$$$$
VeraChem MOL file


 23 22  0  0  0  0  0  0  0  0999 V2000     
   17.4977   21.7346   22.0958 N   0  3  0  0  0  0  0  0  0  0  0  0
   16.5479   21.4614   22.3679 H   0  0  0  0  0  0  0  0  0  0  0  0
   17.4115   22.3113   21.2520 H   0  0  0  0  0  0  0  0  0  0  0  0
   17.8603   22.3431   22.8368 H   0  0  0  0  0  0  0  0  0  0  0  0
   18.3885   20.5306   21.8663 C   0  0  0  0  0  0  0  0  0  0  0  0
   19.3694   20.8953   21.5511 H   0  0  0  0  0  0  0  0  0  0  0  0
   17.9599   19.9446   21.0488 H   0  0  0  0  0  0  0  0  0  0  0  0
   18.5377   19.6435   23.1169 C   0  0  0  0  0  0  0  0  0  0  0  0
   18.9693   20.2312   23.9380 H   0  0  0  0  0  0  0  0  0  0  0  0
   17.5411   19.3240   23.4493 H   0  0  0  0  0  0  0  0  0  0  0  0
   19.4067   18.3889   22.8627 C   0  0  0  0  0  0  0  0  0  0  0  0
   18.9670   17.7978   22.0474 H   0  0  0  0  0  0  0  0  0  0  0  0
   19.3691   17.7578   23.7601 H   0  0  0  0  0  0  0  0  0  0  0  0
   20.8814   18.7282   22.5273 C   0  0  0  0  0  0  0  0  0  0  0  0
   20.9168   19.3796   21.6441 H   0  0  0  0  0  0  0  0  0  0  0  0
   21.3266   19.3014   23.3521 H   0  0  0  0  0  0  0  0  0  0  0  0
   21.7504   17.4799   22.2389 C   0  0  0  0  0  0  0  0  0  0  0  0
   22.7409   17.8121   21.8978 H   0  0  0  0  0  0  0  0  0  0  0  0
   21.3154   16.9080   21.4073 H   0  0  0  0  0  0  0  0  0  0  0  0
   21.9319   16.5576   23.4660 C   0  0  0  0  0  0  0  0  0  0  0  0
   20.9834   16.0979   23.7697 H   0  0  0  0  0  0  0  0  0  0  0  0
   22.3350   17.1139   24.3221 H   0  0  0  0  0  0  0  0  0  0  0  0
   22.6322   15.7446   23.2347 H   0  0  0  0  0  0  0  0  0  0  0  0
  1  2  1  0  0  0  0
  1  3  1  0  0  0  0
  1  4  1  0  0  0  0
  1  5  1  0  0  0  0
  5  6  1  0  0  0  0
  5  7  1  0  0  0  0
  5  8  1  0  0  0  0
  8  9  1  0  0  0  0
  8 10  1  0  0  0  0
  8 11  1  0  0  0  0
 11 12  1  0  0  0  0
 11 13  1  0  0  0  0
 11 14  1  0  0  0  0
 14 15  1  0  0  0  0
 14 16  1  0  0  0  0
 14 17  1  0  0  0  0
 17 18  1  0  0  0  0
 17 19  1  0  0  0  0
 17 20  1  0  0  0  0
 20 21  1  0  0  0  0
 20 22  1  0  0  0  0
 20 23  1  0  0  0  0
M  END
> <VConfSearch Rank>
579

> <Conf_Id>
92

> <Delta U+W>
0.973

> <U+W>
-7.409

> <U>
48.047

> <W>
-55.456

> <W(PB)>
-57.595

> <W(SA)>
2.138

> <Valence>
2.583

> <Coulomb>
44.791

> <VdW>
0.674

> <VdW6>
-5.789

> <VdW12>
6.462

> <Bond>
0.177

> <Angle>
0.787

> <Pdih>
1.619

> <Idih>
0.000

> <Tether>
0.000

$$$$
VeraChem MOL file


 23 22  0  0  0  0  0  0  0  0999 V2000     
   19.5302   19.5402   26.0823 N   0  3  0  0  0  0  0  0  0  0  0  0
   19.6178   18.7695   26.7535 H   0  0  0  0  0  0  0  0  0  0  0  0
   18.7502   20.1245   26.4002 H   0  0  0  0  0  0  0  0  0  0  0  0
   20.3822   20.1043   26.1636 H   0  0  0  0  0  0  0  0  0  0  0  0
   19.3190   19.0351   24.6695 C   0  0  0  0  0  0  0  0  0  0  0  0
   18.4143   18.4212   24.6621 H   0  0  0  0  0  0  0  0  0  0  0  0
   20.1691   18.3985   24.4106 H   0  0  0  0  0  0  0  0  0  0  0  0
   19.1835   20.1700   23.6368 C   0  0  0  0  0  0  0  0  0  0  0  0
   18.3547   20.8270   23.9327 H   0  0  0  0  0  0  0  0  0  0  0  0
   20.0919   20.7870   23.6449 H   0  0  0  0  0  0  0  0  0  0  0  0
   18.9226   19.6473   22.2044 C   0  0  0  0  0  0  0  0  0  0  0  0
   18.7449   20.5066   21.5429 H   0  0  0  0  0  0  0  0  0  0  0  0
   17.9993   19.0516   22.1943 H   0  0  0  0  0  0  0  0  0  0  0  0
   20.0934   18.8058   21.6416 C   0  0  0  0  0  0  0  0  0  0  0  0
   21.0212   19.3929   21.6839 H   0  0  0  0  0  0  0  0  0  0  0  0
   20.2508   17.9163   22.2661 H   0  0  0  0  0  0  0  0  0  0  0  0
   19.8324   18.3617   20.1851 C   0  0  0  0  0  0  0  0  0  0  0  0
   19.6816   19.2451   19.5487 H   0  0  0  0  0  0  0  0  0  0  0  0
   18.9046   17.7744   20.1368 H   0  0  0  0  0  0  0  0  0  0  0  0
   20.9999   17.5214   19.6253 C   0  0  0  0  0  0  0  0  0  0  0  0
   21.9363   18.0945   19.6294 H   0  0  0  0  0  0  0  0  0  0  0  0
   20.7965   17.2161   18.5906 H   0  0  0  0  0  0  0  0  0  0  0  0
   21.1530   16.6120   20.2208 H   0  0  0  0  0  0  0  0  0  0  0  0
  1  2  1  0  0  0  0
  1  3  1  0  0  0  0
  1  4  1  0  0  0  0
  1  5  1  0  0  0  0
  5  6  1  0  0  0  0
  5  7  1  0  0  0  0
  5  8  1  0  0  0  0
  8  9  1  0  0  0  0
  8 10  1  0  0  0  0
  8 11  1  0  0  0  0
 11 12  1  0  0  0  0
 11 13  1  0  0  0  0
 11 14  1  0  0  0  0
 14 15  1  0  0  0  0
 14 16  1  0  0  0  0
 14 17  1  0  0  0  0
 17 18  1  0  0  0  0
 17 19  1  0  0  0  0
 17 20  1  0  0  0  0
 20 21  1  0  0  0  0
 20 22  1  0  0  0  0
 20 23  1  0  0  0  0
M  END
> <VConfSearch Rank>
580

> <Conf_Id>
42

> <Delta U+W>
0.365

> <U+W>
-8.017

> <U>
47.375

> <W>
-55.392

> <W(PB)>
-57.543

> <W(SA)>
2.152

> <Valence>
2.032

> <Coulomb>
44.843

> <VdW>
0.499

> <VdW6>
-5.218

> <VdW12>
5.717

> <Bond>
0.135

> <Angle>
0.514

> <Pdih>
1.383

> <Idih>
0.000

> <Tether>
0.000

$$$$
VeraChem MOL file


 23 22  0  0  0  0  0  0  0  0999 V2000     
   22.5721   19.2616   24.0617 N   0  3  0  0  0  0  0  0  0  0  0  0
   22.2260   19.9515   24.7361 H   0  0  0  0  0  0  0  0  0  0  0  0
   23.5964   19.3108   24.0830 H   0  0  0  0  0  0  0  0  0  0  0  0
   22.3099   18.3360   24.4137 H   0  0  0  0  0  0  0  0  0  0  0  0
   22.0258   19.5111   22.6692 C   0  0  0  0  0  0  0  0  0  0  0  0
   22.4500   18.7598   21.9977 H   0  0  0  0  0  0  0  0  0  0  0  0
   22.3800   20.4941   22.3471 H   0  0  0  0  0  0  0  0  0  0  0  0
   20.4874   19.4718   22.5866 C   0  0  0  0  0  0  0  0  0  0  0  0
   20.0631   20.2079   23.2821 H   0  0  0  0  0  0  0  0  0  0  0  0
   20.1982   19.7828   21.5752 H   0  0  0  0  0  0  0  0  0  0  0  0
   19.9080   18.0660   22.8780 C   0  0  0  0  0  0  0  0  0  0  0  0
   20.2824   17.7102   23.8468 H   0  0  0  0  0  0  0  0  0  0  0  0
   20.2810   17.3560   22.1270 H   0  0  0  0  0  0  0  0  0  0  0  0
   18.3587   18.0083   22.9159 C   0  0  0  0  0  0  0  0  0  0  0  0
   18.0731   16.9788   23.1730 H   0  0  0  0  0  0  0  0  0  0  0  0
   17.9775   18.6332   23.7353 H   0  0  0  0  0  0  0  0  0  0  0  0
   17.6586   18.3840   21.5843 C   0  0  0  0  0  0  0  0  0  0  0  0
   16.7669   17.7523   21.4673 H   0  0  0  0  0  0  0  0  0  0  0  0
   18.3090   18.1485   20.7305 H   0  0  0  0  0  0  0  0  0  0  0  0
   17.2058   19.8617   21.5247 C   0  0  0  0  0  0  0  0  0  0  0  0
   16.4955   20.0863   22.3310 H   0  0  0  0  0  0  0  0  0  0  0  0
   16.7035   20.0712   20.5714 H   0  0  0  0  0  0  0  0  0  0  0  0
   18.0484   20.5560   21.6154 H   0  0  0  0  0  0  0  0  0  0  0  0
  1  2  1  0  0  0  0
  1  3  1  0  0  0  0
  1  4  1  0  0  0  0
  1  5  1  0  0  0  0
  5  6  1  0  0  0  0
  5  7  1  0  0  0  0
  5  8  1  0  0  0  0
  8  9  1  0  0  0  0
  8 10  1  0  0  0  0
  8 11  1  0  0  0  0
 11 12  1  0  0  0  0
 11 13  1  0  0  0  0
 11 14  1  0  0  0  0
 14 15  1  0  0  0  0
 14 16  1  0  0  0  0
 14 17  1  0  0  0  0
 17 18  1  0  0  0  0
 17 19  1  0  0  0  0
 17 20  1  0  0  0  0
 20 21  1  0  0  0  0
 20 22  1  0  0  0  0
 20 23  1  0  0  0  0
M  END
> <VConfSearch Rank>
581

> <Conf_Id>
3

> <Delta U+W>
3.283

> <U+W>
-5.099

> <U>
50.701

> <W>
-55.800

> <W(PB)>
-57.867

> <W(SA)>
2.067

> <Valence>
4.880

> <Coulomb>
45.095

> <VdW>
0.726

> <VdW6>
-6.620

> <VdW12>
7.346

> <Bond>
0.222

> <Angle>
1.260

> <Pdih>
3.398

> <Idih>
0.000

> <Tether>
0.000

$$$$
VeraChem MOL file


 23 22  0  0  0  0  0  0  0  0999 V2000     
   18.6449   16.5424   21.7052 N   0  3  0  0  0  0  0  0  0  0  0  0
   19.2509   15.7338   21.8764 H   0  0  0  0  0  0  0  0  0  0  0  0
   17.7737   16.1832   21.3004 H   0  0  0  0  0  0  0  0  0  0  0  0
   18.4095   16.9438   22.6179 H   0  0  0  0  0  0  0  0  0  0  0  0
   19.3083   17.5618   20.8002 C   0  0  0  0  0  0  0  0  0  0  0  0
   18.6015   18.3786   20.6338 H   0  0  0  0  0  0  0  0  0  0  0  0
   19.4988   17.0783   19.8381 H   0  0  0  0  0  0  0  0  0  0  0  0
   20.6316   18.1212   21.3616 C   0  0  0  0  0  0  0  0  0  0  0  0
   21.3488   17.2974   21.4749 H   0  0  0  0  0  0  0  0  0  0  0  0
   21.0671   18.8055   20.6213 H   0  0  0  0  0  0  0  0  0  0  0  0
   20.4848   18.8606   22.7157 C   0  0  0  0  0  0  0  0  0  0  0  0
   21.4845   19.1778   23.0396 H   0  0  0  0  0  0  0  0  0  0  0  0
   20.1210   18.1654   23.4839 H   0  0  0  0  0  0  0  0  0  0  0  0
   19.5494   20.0941   22.6389 C   0  0  0  0  0  0  0  0  0  0  0  0
   19.9302   20.8014   21.8893 H   0  0  0  0  0  0  0  0  0  0  0  0
   18.5559   19.7814   22.2917 H   0  0  0  0  0  0  0  0  0  0  0  0
   19.3772   20.8218   23.9943 C   0  0  0  0  0  0  0  0  0  0  0  0
   18.9860   20.1217   24.7456 H   0  0  0  0  0  0  0  0  0  0  0  0
   18.6148   21.6049   23.8785 H   0  0  0  0  0  0  0  0  0  0  0  0
   20.6795   21.4708   24.5161 C   0  0  0  0  0  0  0  0  0  0  0  0
   21.1088   22.1509   23.7689 H   0  0  0  0  0  0  0  0  0  0  0  0
   21.4342   20.7159   24.7686 H   0  0  0  0  0  0  0  0  0  0  0  0
   20.4804   22.0536   25.4247 H   0  0  0  0  0  0  0  0  0  0  0  0
  1  2  1  0  0  0  0
  1  3  1  0  0  0  0
  1  4  1  0  0  0  0
  1  5  1  0  0  0  0
  5  6  1  0  0  0  0
  5  7  1  0  0  0  0
  5  8  1  0  0  0  0
  8  9  1  0  0  0  0
  8 10  1  0  0  0  0
  8 11  1  0  0  0  0
 11 12  1  0  0  0  0
 11 13  1  0  0  0  0
 11 14  1  0  0  0  0
 14 15  1  0  0  0  0
 14 16  1  0  0  0  0
 14 17  1  0  0  0  0
 17 18  1  0  0  0  0
 17 19  1  0  0  0  0
 17 20  1  0  0  0  0
 20 21  1  0  0  0  0
 20 22  1  0  0  0  0
 20 23  1  0  0  0  0
M  END
> <VConfSearch Rank>
582

> <Conf_Id>
83

> <Delta U+W>
1.229

> <U+W>
-7.154

> <U>
48.727

> <W>
-55.880

> <W(PB)>
-57.960

> <W(SA)>
2.080

> <Valence>
2.671

> <Coulomb>
45.371

> <VdW>
0.684

> <VdW6>
-6.511

> <VdW12>
7.195

> <Bond>
0.203

> <Angle>
0.915

> <Pdih>
1.554

> <Idih>
0.000

> <Tether>
0.000

$$$$
VeraChem MOL file


 23 22  0  0  0  0  0  0  0  0999 V2000     
   20.8639   21.6032   21.8641 N   0  3  0  0  0  0  0  0  0  0  0  0
   20.2100   22.3858   21.9666 H   0  0  0  0  0  0  0  0  0  0  0  0
   20.4789   20.9780   21.1496 H   0  0  0  0  0  0  0  0  0  0  0  0
   21.7363   21.9894   21.4880 H   0  0  0  0  0  0  0  0  0  0  0  0
   21.0877   20.8806   23.1779 C   0  0  0  0  0  0  0  0  0  0  0  0
   21.5293   21.5942   23.8789 H   0  0  0  0  0  0  0  0  0  0  0  0
   21.8138   20.0820   23.0064 H   0  0  0  0  0  0  0  0  0  0  0  0
   19.7993   20.2936   23.7901 C   0  0  0  0  0  0  0  0  0  0  0  0
   20.0449   19.8399   24.7595 H   0  0  0  0  0  0  0  0  0  0  0  0
   19.1000   21.1126   24.0048 H   0  0  0  0  0  0  0  0  0  0  0  0
   19.0946   19.2407   22.8977 C   0  0  0  0  0  0  0  0  0  0  0  0
   18.7761   19.7032   21.9541 H   0  0  0  0  0  0  0  0  0  0  0  0
   18.1758   18.9234   23.4077 H   0  0  0  0  0  0  0  0  0  0  0  0
   19.9778   18.0016   22.6029 C   0  0  0  0  0  0  0  0  0  0  0  0
   20.9079   18.3205   22.1146 H   0  0  0  0  0  0  0  0  0  0  0  0
   20.2726   17.5239   23.5473 H   0  0  0  0  0  0  0  0  0  0  0  0
   19.2897   16.9580   21.6897 C   0  0  0  0  0  0  0  0  0  0  0  0
   20.0196   16.1761   21.4373 H   0  0  0  0  0  0  0  0  0  0  0  0
   19.0020   17.4276   20.7387 H   0  0  0  0  0  0  0  0  0  0  0  0
   18.0534   16.2922   22.3361 C   0  0  0  0  0  0  0  0  0  0  0  0
   18.3078   15.8435   23.3051 H   0  0  0  0  0  0  0  0  0  0  0  0
   17.6647   15.4951   21.6893 H   0  0  0  0  0  0  0  0  0  0  0  0
   17.2418   17.0133   22.4930 H   0  0  0  0  0  0  0  0  0  0  0  0
  1  2  1  0  0  0  0
  1  3  1  0  0  0  0
  1  4  1  0  0  0  0
  1  5  1  0  0  0  0
  5  6  1  0  0  0  0
  5  7  1  0  0  0  0
  5  8  1  0  0  0  0
  8  9  1  0  0  0  0
  8 10  1  0  0  0  0
  8 11  1  0  0  0  0
 11 12  1  0  0  0  0
 11 13  1  0  0  0  0
 11 14  1  0  0  0  0
 14 15  1  0  0  0  0
 14 16  1  0  0  0  0
 14 17  1  0  0  0  0
 17 18  1  0  0  0  0
 17 19  1  0  0  0  0
 17 20  1  0  0  0  0
 20 21  1  0  0  0  0
 20 22  1  0  0  0  0
 20 23  1  0  0  0  0
M  END
> <VConfSearch Rank>
583

> <Conf_Id>
50

> <Delta U+W>
1.252

> <U+W>
-7.130

> <U>
48.727

> <W>
-55.857

> <W(PB)>
-57.937

> <W(SA)>
2.080

> <Valence>
2.671

> <Coulomb>
45.371

> <VdW>
0.684

> <VdW6>
-6.511

> <VdW12>
7.196

> <Bond>
0.203

> <Angle>
0.915

> <Pdih>
1.554

> <Idih>
0.000

> <Tether>
0.000

$$$$
VeraChem MOL file


 23 22  0  0  0  0  0  0  0  0999 V2000     
   17.7575   17.4171   24.4504 N   0  3  0  0  0  0  0  0  0  0  0  0
   17.3040   18.3327   24.3762 H   0  0  0  0  0  0  0  0  0  0  0  0
   17.5451   17.0525   25.3852 H   0  0  0  0  0  0  0  0  0  0  0  0
   17.2989   16.7960   23.7762 H   0  0  0  0  0  0  0  0  0  0  0  0
   19.2516   17.5076   24.2078 C   0  0  0  0  0  0  0  0  0  0  0  0
   19.6704   16.5068   24.3434 H   0  0  0  0  0  0  0  0  0  0  0  0
   19.6803   18.1623   24.9713 H   0  0  0  0  0  0  0  0  0  0  0  0
   19.6242   18.0315   22.8073 C   0  0  0  0  0  0  0  0  0  0  0  0
   20.7112   17.9560   22.6913 H   0  0  0  0  0  0  0  0  0  0  0  0
   19.1872   17.3739   22.0442 H   0  0  0  0  0  0  0  0  0  0  0  0
   19.1595   19.4915   22.5727 C   0  0  0  0  0  0  0  0  0  0  0  0
   19.5139   20.1410   23.3851 H   0  0  0  0  0  0  0  0  0  0  0  0
   18.0625   19.5197   22.6168 H   0  0  0  0  0  0  0  0  0  0  0  0
   19.6029   20.0656   21.2016 C   0  0  0  0  0  0  0  0  0  0  0  0
   19.6914   19.2591   20.4607 H   0  0  0  0  0  0  0  0  0  0  0  0
   18.8032   20.7214   20.8303 H   0  0  0  0  0  0  0  0  0  0  0  0
   20.9088   20.9001   21.2401 C   0  0  0  0  0  0  0  0  0  0  0  0
   20.7749   21.7631   21.9072 H   0  0  0  0  0  0  0  0  0  0  0  0
   21.0866   21.3154   20.2382 H   0  0  0  0  0  0  0  0  0  0  0  0
   22.1597   20.1058   21.6754 C   0  0  0  0  0  0  0  0  0  0  0  0
   22.2886   19.2033   21.0641 H   0  0  0  0  0  0  0  0  0  0  0  0
   22.0966   19.8091   22.7296 H   0  0  0  0  0  0  0  0  0  0  0  0
   23.0624   20.7199   21.5617 H   0  0  0  0  0  0  0  0  0  0  0  0
  1  2  1  0  0  0  0
  1  3  1  0  0  0  0
  1  4  1  0  0  0  0
  1  5  1  0  0  0  0
  5  6  1  0  0  0  0
  5  7  1  0  0  0  0
  5  8  1  0  0  0  0
  8  9  1  0  0  0  0
  8 10  1  0  0  0  0
  8 11  1  0  0  0  0
 11 12  1  0  0  0  0
 11 13  1  0  0  0  0
 11 14  1  0  0  0  0
 14 15  1  0  0  0  0
 14 16  1  0  0  0  0
 14 17  1  0  0  0  0
 17 18  1  0  0  0  0
 17 19  1  0  0  0  0
 17 20  1  0  0  0  0
 20 21  1  0  0  0  0
 20 22  1  0  0  0  0
 20 23  1  0  0  0  0
M  END
> <VConfSearch Rank>
584

> <Conf_Id>
55

> <Delta U+W>
3.232

> <U+W>
-5.150

> <U>
50.625

> <W>
-55.776

> <W(PB)>
-57.839

> <W(SA)>
2.064

> <Valence>
4.837

> <Coulomb>
45.097

> <VdW>
0.692

> <VdW6>
-6.655

> <VdW12>
7.347

> <Bond>
0.223

> <Angle>
1.167

> <Pdih>
3.447

> <Idih>
0.000

> <Tether>
0.000

$$$$
VeraChem MOL file


 23 22  0  0  0  0  0  0  0  0999 V2000     
   17.0190   20.0784   21.7489 N   0  3  0  0  0  0  0  0  0  0  0  0
   16.2097   19.4563   21.6545 H   0  0  0  0  0  0  0  0  0  0  0  0
   16.9262   20.7993   21.0252 H   0  0  0  0  0  0  0  0  0  0  0  0
   16.9314   20.5515   22.6540 H   0  0  0  0  0  0  0  0  0  0  0  0
   18.3279   19.3248   21.6287 C   0  0  0  0  0  0  0  0  0  0  0  0
   19.1389   20.0516   21.7018 H   0  0  0  0  0  0  0  0  0  0  0  0
   18.3649   18.8722   20.6341 H   0  0  0  0  0  0  0  0  0  0  0  0
   18.4927   18.2289   22.7000 C   0  0  0  0  0  0  0  0  0  0  0  0
   18.4112   18.6622   23.7057 H   0  0  0  0  0  0  0  0  0  0  0  0
   17.6566   17.5243   22.5974 H   0  0  0  0  0  0  0  0  0  0  0  0
   19.8203   17.4411   22.5650 C   0  0  0  0  0  0  0  0  0  0  0  0
   20.0646   17.2941   21.5037 H   0  0  0  0  0  0  0  0  0  0  0  0
   19.6629   16.4340   22.9755 H   0  0  0  0  0  0  0  0  0  0  0  0
   21.0299   18.0647   23.3090 C   0  0  0  0  0  0  0  0  0  0  0  0
   20.8136   18.1101   24.3854 H   0  0  0  0  0  0  0  0  0  0  0  0
   21.8859   17.3846   23.1993 H   0  0  0  0  0  0  0  0  0  0  0  0
   21.4394   19.4692   22.8088 C   0  0  0  0  0  0  0  0  0  0  0  0
   20.6547   20.1967   23.0535 H   0  0  0  0  0  0  0  0  0  0  0  0
   21.5466   19.4601   21.7152 H   0  0  0  0  0  0  0  0  0  0  0  0
   22.7634   19.9378   23.4491 C   0  0  0  0  0  0  0  0  0  0  0  0
   23.5873   19.2576   23.1966 H   0  0  0  0  0  0  0  0  0  0  0  0
   22.6790   19.9814   24.5428 H   0  0  0  0  0  0  0  0  0  0  0  0
   23.0334   20.9400   23.0918 H   0  0  0  0  0  0  0  0  0  0  0  0
  1  2  1  0  0  0  0
  1  3  1  0  0  0  0
  1  4  1  0  0  0  0
  1  5  1  0  0  0  0
  5  6  1  0  0  0  0
  5  7  1  0  0  0  0
  5  8  1  0  0  0  0
  8  9  1  0  0  0  0
  8 10  1  0  0  0  0
  8 11  1  0  0  0  0
 11 12  1  0  0  0  0
 11 13  1  0  0  0  0
 11 14  1  0  0  0  0
 14 15  1  0  0  0  0
 14 16  1  0  0  0  0
 14 17  1  0  0  0  0
 17 18  1  0  0  0  0
 17 19  1  0  0  0  0
 17 20  1  0  0  0  0
 20 21  1  0  0  0  0
 20 22  1  0  0  0  0
 20 23  1  0  0  0  0
M  END
> <VConfSearch Rank>
585

> <Conf_Id>
93

> <Delta U+W>
2.589

> <U+W>
-5.793

> <U>
50.122

> <W>
-55.915

> <W(PB)>
-58.031

> <W(SA)>
2.115

> <Valence>
4.132

> <Coulomb>
45.536

> <VdW>
0.454

> <VdW6>
-6.262

> <VdW12>
6.715

> <Bond>
0.182

> <Angle>
1.157

> <Pdih>
2.794

> <Idih>
0.000

> <Tether>
0.000

$$$$
VeraChem MOL file


 23 22  0  0  0  0  0  0  0  0999 V2000     
   20.6896   20.3781   25.2181 N   0  3  0  0  0  0  0  0  0  0  0  0
   20.5035   21.2894   24.7872 H   0  0  0  0  0  0  0  0  0  0  0  0
   21.6817   20.3680   25.4781 H   0  0  0  0  0  0  0  0  0  0  0  0
   20.1530   20.3422   26.0908 H   0  0  0  0  0  0  0  0  0  0  0  0
   20.3385   19.2319   24.2915 C   0  0  0  0  0  0  0  0  0  0  0  0
   20.5883   18.2981   24.8025 H   0  0  0  0  0  0  0  0  0  0  0  0
   20.9703   19.3141   23.4053 H   0  0  0  0  0  0  0  0  0  0  0  0
   18.8507   19.2168   23.8888 C   0  0  0  0  0  0  0  0  0  0  0  0
   18.2509   19.1402   24.8055 H   0  0  0  0  0  0  0  0  0  0  0  0
   18.5732   20.1679   23.4154 H   0  0  0  0  0  0  0  0  0  0  0  0
   18.4840   18.0320   22.9597 C   0  0  0  0  0  0  0  0  0  0  0  0
   17.4238   17.7899   23.1174 H   0  0  0  0  0  0  0  0  0  0  0  0
   19.0412   17.1331   23.2583 H   0  0  0  0  0  0  0  0  0  0  0  0
   18.6808   18.3028   21.4453 C   0  0  0  0  0  0  0  0  0  0  0  0
   18.3228   17.4235   20.8919 H   0  0  0  0  0  0  0  0  0  0  0  0
   18.0382   19.1388   21.1365 H   0  0  0  0  0  0  0  0  0  0  0  0
   20.1402   18.5966   21.0278 C   0  0  0  0  0  0  0  0  0  0  0  0
   20.8077   17.8227   21.4316 H   0  0  0  0  0  0  0  0  0  0  0  0
   20.4631   19.5577   21.4484 H   0  0  0  0  0  0  0  0  0  0  0  0
   20.2925   18.6540   19.4928 C   0  0  0  0  0  0  0  0  0  0  0  0
   21.3313   18.8741   19.2144 H   0  0  0  0  0  0  0  0  0  0  0  0
   19.6550   19.4371   19.0621 H   0  0  0  0  0  0  0  0  0  0  0  0
   20.0166   17.6965   19.0320 H   0  0  0  0  0  0  0  0  0  0  0  0
  1  2  1  0  0  0  0
  1  3  1  0  0  0  0
  1  4  1  0  0  0  0
  1  5  1  0  0  0  0
  5  6  1  0  0  0  0
  5  7  1  0  0  0  0
  5  8  1  0  0  0  0
  8  9  1  0  0  0  0
  8 10  1  0  0  0  0
  8 11  1  0  0  0  0
 11 12  1  0  0  0  0
 11 13  1  0  0  0  0
 11 14  1  0  0  0  0
 14 15  1  0  0  0  0
 14 16  1  0  0  0  0
 14 17  1  0  0  0  0
 17 18  1  0  0  0  0
 17 19  1  0  0  0  0
 17 20  1  0  0  0  0
 20 21  1  0  0  0  0
 20 22  1  0  0  0  0
 20 23  1  0  0  0  0
M  END
> <VConfSearch Rank>
586

> <Conf_Id>
70

> <Delta U+W>
2.599

> <U+W>
-5.783

> <U>
50.122

> <W>
-55.906

> <W(PB)>
-58.010

> <W(SA)>
2.105

> <Valence>
4.132

> <Coulomb>
45.536

> <VdW>
0.454

> <VdW6>
-6.262

> <VdW12>
6.715

> <Bond>
0.182

> <Angle>
1.157

> <Pdih>
2.794

> <Idih>
0.000

> <Tether>
0.000

$$$$
VeraChem MOL file


 23 22  0  0  0  0  0  0  0  0999 V2000     
   20.9755   16.6257   21.5085 N   0  3  0  0  0  0  0  0  0  0  0  0
   20.5902   15.6830   21.6235 H   0  0  0  0  0  0  0  0  0  0  0  0
   21.9233   16.5177   21.1318 H   0  0  0  0  0  0  0  0  0  0  0  0
   20.4172   17.0955   20.7894 H   0  0  0  0  0  0  0  0  0  0  0  0
   20.9719   17.3982   22.8129 C   0  0  0  0  0  0  0  0  0  0  0  0
   21.4237   18.3766   22.6296 H   0  0  0  0  0  0  0  0  0  0  0  0
   21.6061   16.8586   23.5214 H   0  0  0  0  0  0  0  0  0  0  0  0
   19.5659   17.5800   23.4194 C   0  0  0  0  0  0  0  0  0  0  0  0
   19.1359   16.5921   23.6313 H   0  0  0  0  0  0  0  0  0  0  0  0
   19.6616   18.0789   24.3922 H   0  0  0  0  0  0  0  0  0  0  0  0
   18.5885   18.3783   22.5169 C   0  0  0  0  0  0  0  0  0  0  0  0
   17.6316   18.4915   23.0449 H   0  0  0  0  0  0  0  0  0  0  0  0
   18.3628   17.7892   21.6179 H   0  0  0  0  0  0  0  0  0  0  0  0
   19.0956   19.7782   22.0834 C   0  0  0  0  0  0  0  0  0  0  0  0
   20.0027   19.6782   21.4726 H   0  0  0  0  0  0  0  0  0  0  0  0
   18.3391   20.2330   21.4289 H   0  0  0  0  0  0  0  0  0  0  0  0
   19.3700   20.7310   23.2707 C   0  0  0  0  0  0  0  0  0  0  0  0
   20.1747   20.3292   23.9007 H   0  0  0  0  0  0  0  0  0  0  0  0
   18.4746   20.8021   23.9039 H   0  0  0  0  0  0  0  0  0  0  0  0
   19.7691   22.1417   22.7880 C   0  0  0  0  0  0  0  0  0  0  0  0
   19.9625   22.8034   23.6423 H   0  0  0  0  0  0  0  0  0  0  0  0
   18.9703   22.5941   22.1860 H   0  0  0  0  0  0  0  0  0  0  0  0
   20.6800   22.1063   22.1763 H   0  0  0  0  0  0  0  0  0  0  0  0
  1  2  1  0  0  0  0
  1  3  1  0  0  0  0
  1  4  1  0  0  0  0
  1  5  1  0  0  0  0
  5  6  1  0  0  0  0
  5  7  1  0  0  0  0
  5  8  1  0  0  0  0
  8  9  1  0  0  0  0
  8 10  1  0  0  0  0
  8 11  1  0  0  0  0
 11 12  1  0  0  0  0
 11 13  1  0  0  0  0
 11 14  1  0  0  0  0
 14 15  1  0  0  0  0
 14 16  1  0  0  0  0
 14 17  1  0  0  0  0
 17 18  1  0  0  0  0
 17 19  1  0  0  0  0
 17 20  1  0  0  0  0
 20 21  1  0  0  0  0
 20 22  1  0  0  0  0
 20 23  1  0  0  0  0
M  END
> <VConfSearch Rank>
587

> <Conf_Id>
72

> <Delta U+W>
1.051

> <U+W>
-7.331

> <U>
48.590

> <W>
-55.922

> <W(PB)>
-58.012

> <W(SA)>
2.090

> <Valence>
2.601

> <Coulomb>
45.520

> <VdW>
0.469

> <VdW6>
-6.867

> <VdW12>
7.336

> <Bond>
0.205

> <Angle>
0.962

> <Pdih>
1.434

> <Idih>
0.000

> <Tether>
0.000

$$$$
VeraChem MOL file


 23 22  0  0  0  0  0  0  0  0999 V2000     
   19.9329   21.1960   20.4196 N   0  3  0  0  0  0  0  0  0  0  0  0
   20.2014   21.1289   19.4321 H   0  0  0  0  0  0  0  0  0  0  0  0
   20.2567   22.1090   20.7547 H   0  0  0  0  0  0  0  0  0  0  0  0
   18.9084   21.2097   20.4497 H   0  0  0  0  0  0  0  0  0  0  0  0
   20.5077   20.0577   21.2379 C   0  0  0  0  0  0  0  0  0  0  0  0
   21.5961   20.0857   21.1381 H   0  0  0  0  0  0  0  0  0  0  0  0
   20.1467   19.1195   20.8084 H   0  0  0  0  0  0  0  0  0  0  0  0
   20.1222   20.1294   22.7272 C   0  0  0  0  0  0  0  0  0  0  0  0
   20.4563   21.0909   23.1389 H   0  0  0  0  0  0  0  0  0  0  0  0
   19.0294   20.1145   22.8278 H   0  0  0  0  0  0  0  0  0  0  0  0
   20.7467   18.9840   23.5620 C   0  0  0  0  0  0  0  0  0  0  0  0
   20.4532   19.1047   24.6133 H   0  0  0  0  0  0  0  0  0  0  0  0
   21.8403   19.0894   23.5464 H   0  0  0  0  0  0  0  0  0  0  0  0
   20.3807   17.5535   23.0820 C   0  0  0  0  0  0  0  0  0  0  0  0
   20.8202   17.3775   22.0909 H   0  0  0  0  0  0  0  0  0  0  0  0
   20.8610   16.8259   23.7506 H   0  0  0  0  0  0  0  0  0  0  0  0
   18.8626   17.2475   23.0186 C   0  0  0  0  0  0  0  0  0  0  0  0
   18.7277   16.2188   22.6562 H   0  0  0  0  0  0  0  0  0  0  0  0
   18.3755   17.8937   22.2761 H   0  0  0  0  0  0  0  0  0  0  0  0
   18.1509   17.3915   24.3828 C   0  0  0  0  0  0  0  0  0  0  0  0
   18.6290   16.7631   25.1453 H   0  0  0  0  0  0  0  0  0  0  0  0
   17.1006   17.0825   24.3033 H   0  0  0  0  0  0  0  0  0  0  0  0
   18.1639   18.4301   24.7358 H   0  0  0  0  0  0  0  0  0  0  0  0
  1  2  1  0  0  0  0
  1  3  1  0  0  0  0
  1  4  1  0  0  0  0
  1  5  1  0  0  0  0
  5  6  1  0  0  0  0
  5  7  1  0  0  0  0
  5  8  1  0  0  0  0
  8  9  1  0  0  0  0
  8 10  1  0  0  0  0
  8 11  1  0  0  0  0
 11 12  1  0  0  0  0
 11 13  1  0  0  0  0
 11 14  1  0  0  0  0
 14 15  1  0  0  0  0
 14 16  1  0  0  0  0
 14 17  1  0  0  0  0
 17 18  1  0  0  0  0
 17 19  1  0  0  0  0
 17 20  1  0  0  0  0
 20 21  1  0  0  0  0
 20 22  1  0  0  0  0
 20 23  1  0  0  0  0
M  END
> <VConfSearch Rank>
588

> <Conf_Id>
26

> <Delta U+W>
1.076

> <U+W>
-7.306

> <U>
48.641

> <W>
-55.947

> <W(PB)>
-58.031

> <W(SA)>
2.084

> <Valence>
2.922

> <Coulomb>
45.269

> <VdW>
0.449

> <VdW6>
-7.045

> <VdW12>
7.494

> <Bond>
0.220

> <Angle>
1.205

> <Pdih>
1.497

> <Idih>
0.000

> <Tether>
0.000

$$$$
VeraChem MOL file


 23 22  0  0  0  0  0  0  0  0999 V2000     
   17.9882   20.4630   24.6938 N   0  3  0  0  0  0  0  0  0  0  0  0
   17.8274   19.9531   25.5684 H   0  0  0  0  0  0  0  0  0  0  0  0
   17.1693   21.0621   24.5436 H   0  0  0  0  0  0  0  0  0  0  0  0
   18.7879   21.0849   24.8499 H   0  0  0  0  0  0  0  0  0  0  0  0
   18.2205   19.5245   23.5272 C   0  0  0  0  0  0  0  0  0  0  0  0
   18.3536   20.1323   22.6284 H   0  0  0  0  0  0  0  0  0  0  0  0
   17.3223   18.9142   23.4002 H   0  0  0  0  0  0  0  0  0  0  0  0
   19.4446   18.6104   23.7217 C   0  0  0  0  0  0  0  0  0  0  0  0
   20.3448   19.2221   23.8623 H   0  0  0  0  0  0  0  0  0  0  0  0
   19.3176   18.0320   24.6464 H   0  0  0  0  0  0  0  0  0  0  0  0
   19.6504   17.6281   22.5420 C   0  0  0  0  0  0  0  0  0  0  0  0
   18.7908   16.9453   22.4949 H   0  0  0  0  0  0  0  0  0  0  0  0
   20.5213   16.9928   22.7516 H   0  0  0  0  0  0  0  0  0  0  0  0
   19.8226   18.3033   21.1545 C   0  0  0  0  0  0  0  0  0  0  0  0
   19.9767   17.5196   20.4001 H   0  0  0  0  0  0  0  0  0  0  0  0
   18.8857   18.8028   20.8730 H   0  0  0  0  0  0  0  0  0  0  0  0
   20.9840   19.3251   21.0579 C   0  0  0  0  0  0  0  0  0  0  0  0
   20.7995   20.1745   21.7292 H   0  0  0  0  0  0  0  0  0  0  0  0
   20.9990   19.7430   20.0416 H   0  0  0  0  0  0  0  0  0  0  0  0
   22.3685   18.7099   21.3630 C   0  0  0  0  0  0  0  0  0  0  0  0
   22.4393   18.3756   22.4055 H   0  0  0  0  0  0  0  0  0  0  0  0
   23.1628   19.4493   21.1982 H   0  0  0  0  0  0  0  0  0  0  0  0
   22.5700   17.8496   20.7116 H   0  0  0  0  0  0  0  0  0  0  0  0
  1  2  1  0  0  0  0
  1  3  1  0  0  0  0
  1  4  1  0  0  0  0
  1  5  1  0  0  0  0
  5  6  1  0  0  0  0
  5  7  1  0  0  0  0
  5  8  1  0  0  0  0
  8  9  1  0  0  0  0
  8 10  1  0  0  0  0
  8 11  1  0  0  0  0
 11 12  1  0  0  0  0
 11 13  1  0  0  0  0
 11 14  1  0  0  0  0
 14 15  1  0  0  0  0
 14 16  1  0  0  0  0
 14 17  1  0  0  0  0
 17 18  1  0  0  0  0
 17 19  1  0  0  0  0
 17 20  1  0  0  0  0
 20 21  1  0  0  0  0
 20 22  1  0  0  0  0
 20 23  1  0  0  0  0
M  END
> <VConfSearch Rank>
589

> <Conf_Id>
90

> <Delta U+W>
1.131

> <U+W>
-7.251

> <U>
48.641

> <W>
-55.892

> <W(PB)>
-57.962

> <W(SA)>
2.070

> <Valence>
2.922

> <Coulomb>
45.269

> <VdW>
0.450

> <VdW6>
-7.045

> <VdW12>
7.495

> <Bond>
0.220

> <Angle>
1.205

> <Pdih>
1.497

> <Idih>
0.000

> <Tether>
0.000

$$$$
VeraChem MOL file


 23 22  0  0  0  0  0  0  0  0999 V2000     
   21.4596   17.4705   24.0355 N   0  3  0  0  0  0  0  0  0  0  0  0
   21.5302   16.4851   24.3109 H   0  0  0  0  0  0  0  0  0  0  0  0
   20.5282   17.7948   24.3128 H   0  0  0  0  0  0  0  0  0  0  0  0
   22.1417   17.9882   24.5987 H   0  0  0  0  0  0  0  0  0  0  0  0
   21.6975   17.6587   22.5501 C   0  0  0  0  0  0  0  0  0  0  0  0
   20.9601   17.0592   22.0101 H   0  0  0  0  0  0  0  0  0  0  0  0
   22.6904   17.2632   22.3192 H   0  0  0  0  0  0  0  0  0  0  0  0
   21.6125   19.1284   22.0902 C   0  0  0  0  0  0  0  0  0  0  0  0
   22.3884   19.7115   22.6038 H   0  0  0  0  0  0  0  0  0  0  0  0
   21.8523   19.1767   21.0196 H   0  0  0  0  0  0  0  0  0  0  0  0
   20.2310   19.7859   22.3347 C   0  0  0  0  0  0  0  0  0  0  0  0
   20.2740   20.8286   21.9909 H   0  0  0  0  0  0  0  0  0  0  0  0
   20.0311   19.8273   23.4128 H   0  0  0  0  0  0  0  0  0  0  0  0
   19.0746   19.0575   21.6042 C   0  0  0  0  0  0  0  0  0  0  0  0
   19.3329   18.9510   20.5416 H   0  0  0  0  0  0  0  0  0  0  0  0
   18.9592   18.0390   21.9983 H   0  0  0  0  0  0  0  0  0  0  0  0
   17.7197   19.7983   21.7089 C   0  0  0  0  0  0  0  0  0  0  0  0
   16.9836   19.2777   21.0805 H   0  0  0  0  0  0  0  0  0  0  0  0
   17.8163   20.8112   21.2936 H   0  0  0  0  0  0  0  0  0  0  0  0
   17.1743   19.8780   23.1529 C   0  0  0  0  0  0  0  0  0  0  0  0
   17.0933   18.8790   23.6005 H   0  0  0  0  0  0  0  0  0  0  0  0
   16.1744   20.3309   23.1610 H   0  0  0  0  0  0  0  0  0  0  0  0
   17.8188   20.4918   23.7943 H   0  0  0  0  0  0  0  0  0  0  0  0
  1  2  1  0  0  0  0
  1  3  1  0  0  0  0
  1  4  1  0  0  0  0
  1  5  1  0  0  0  0
  5  6  1  0  0  0  0
  5  7  1  0  0  0  0
  5  8  1  0  0  0  0
  8  9  1  0  0  0  0
  8 10  1  0  0  0  0
  8 11  1  0  0  0  0
 11 12  1  0  0  0  0
 11 13  1  0  0  0  0
 11 14  1  0  0  0  0
 14 15  1  0  0  0  0
 14 16  1  0  0  0  0
 14 17  1  0  0  0  0
 17 18  1  0  0  0  0
 17 19  1  0  0  0  0
 17 20  1  0  0  0  0
 20 21  1  0  0  0  0
 20 22  1  0  0  0  0
 20 23  1  0  0  0  0
M  END
> <VConfSearch Rank>
590

> <Conf_Id>
85

> <Delta U+W>
1.193

> <U+W>
-7.189

> <U>
48.775

> <W>
-55.965

> <W(PB)>
-58.038

> <W(SA)>
2.073

> <Valence>
2.602

> <Coulomb>
45.581

> <VdW>
0.592

> <VdW6>
-6.616

> <VdW12>
7.208

> <Bond>
0.196

> <Angle>
0.832

> <Pdih>
1.574

> <Idih>
0.000

> <Tether>
0.000

$$$$
VeraChem MOL file


 23 22  0  0  0  0  0  0  0  0999 V2000     
   19.4372   18.7827   24.5987 N   0  3  0  0  0  0  0  0  0  0  0  0
   19.2583   19.4933   23.8819 H   0  0  0  0  0  0  0  0  0  0  0  0
   19.8809   19.2538   25.3946 H   0  0  0  0  0  0  0  0  0  0  0  0
   18.5272   18.4403   24.9239 H   0  0  0  0  0  0  0  0  0  0  0  0
   20.2990   17.6582   24.0581 C   0  0  0  0  0  0  0  0  0  0  0  0
   20.4429   16.9454   24.8746 H   0  0  0  0  0  0  0  0  0  0  0  0
   21.2768   18.0653   23.7872 H   0  0  0  0  0  0  0  0  0  0  0  0
   19.6847   16.9223   22.8499 C   0  0  0  0  0  0  0  0  0  0  0  0
   20.1491   15.9289   22.7929 H   0  0  0  0  0  0  0  0  0  0  0  0
   18.6163   16.7424   23.0291 H   0  0  0  0  0  0  0  0  0  0  0  0
   19.8867   17.6190   21.4773 C   0  0  0  0  0  0  0  0  0  0  0  0
   19.4525   16.9637   20.7095 H   0  0  0  0  0  0  0  0  0  0  0  0
   20.9581   17.6780   21.2408 H   0  0  0  0  0  0  0  0  0  0  0  0
   19.2318   19.0175   21.3407 C   0  0  0  0  0  0  0  0  0  0  0  0
   18.8579   19.1287   20.3133 H   0  0  0  0  0  0  0  0  0  0  0  0
   18.3460   19.0861   21.9861 H   0  0  0  0  0  0  0  0  0  0  0  0
   20.2155   20.1808   21.6166 C   0  0  0  0  0  0  0  0  0  0  0  0
   21.0007   20.1811   20.8475 H   0  0  0  0  0  0  0  0  0  0  0  0
   20.7313   20.0436   22.5744 H   0  0  0  0  0  0  0  0  0  0  0  0
   19.4990   21.5477   21.6098 C   0  0  0  0  0  0  0  0  0  0  0  0
   19.0175   21.7350   20.6411 H   0  0  0  0  0  0  0  0  0  0  0  0
   20.2139   22.3607   21.7920 H   0  0  0  0  0  0  0  0  0  0  0  0
   18.7274   21.5972   22.3888 H   0  0  0  0  0  0  0  0  0  0  0  0
  1  2  1  0  0  0  0
  1  3  1  0  0  0  0
  1  4  1  0  0  0  0
  1  5  1  0  0  0  0
  5  6  1  0  0  0  0
  5  7  1  0  0  0  0
  5  8  1  0  0  0  0
  8  9  1  0  0  0  0
  8 10  1  0  0  0  0
  8 11  1  0  0  0  0
 11 12  1  0  0  0  0
 11 13  1  0  0  0  0
 11 14  1  0  0  0  0
 14 15  1  0  0  0  0
 14 16  1  0  0  0  0
 14 17  1  0  0  0  0
 17 18  1  0  0  0  0
 17 19  1  0  0  0  0
 17 20  1  0  0  0  0
 20 21  1  0  0  0  0
 20 22  1  0  0  0  0
 20 23  1  0  0  0  0
M  END
> <VConfSearch Rank>
591

> <Conf_Id>
82

> <Delta U+W>
5.994

> <U+W>
-2.388

> <U>
52.836

> <W>
-55.224

> <W(PB)>
-57.261

> <W(SA)>
2.037

> <Valence>
5.785

> <Coulomb>
46.744

> <VdW>
0.307

> <VdW6>
-7.672

> <VdW12>
7.979

> <Bond>
0.217

> <Angle>
1.470

> <Pdih>
4.098

> <Idih>
0.000

> <Tether>
0.000

$$$$
VeraChem MOL file


 23 22  0  0  0  0  0  0  0  0999 V2000     
   21.7282   19.5140   21.8334 N   0  3  0  0  0  0  0  0  0  0  0  0
   22.4542   19.7450   22.5194 H   0  0  0  0  0  0  0  0  0  0  0  0
   22.2062   19.3157   20.9477 H   0  0  0  0  0  0  0  0  0  0  0  0
   21.2807   18.6451   22.1422 H   0  0  0  0  0  0  0  0  0  0  0  0
   20.7166   20.6345   21.6885 C   0  0  0  0  0  0  0  0  0  0  0  0
   20.0062   20.3657   20.9023 H   0  0  0  0  0  0  0  0  0  0  0  0
   21.2666   21.5207   21.3603 H   0  0  0  0  0  0  0  0  0  0  0  0
   19.9577   20.9664   22.9896 C   0  0  0  0  0  0  0  0  0  0  0  0
   20.6588   20.9810   23.8346 H   0  0  0  0  0  0  0  0  0  0  0  0
   19.5761   21.9923   22.9008 H   0  0  0  0  0  0  0  0  0  0  0  0
   18.7542   20.0394   23.3092 C   0  0  0  0  0  0  0  0  0  0  0  0
   17.9924   20.1290   22.5224 H   0  0  0  0  0  0  0  0  0  0  0  0
   18.2785   20.4222   24.2229 H   0  0  0  0  0  0  0  0  0  0  0  0
   19.1090   18.5483   23.5417 C   0  0  0  0  0  0  0  0  0  0  0  0
   20.1286   18.4587   23.9393 H   0  0  0  0  0  0  0  0  0  0  0  0
   18.4501   18.1511   24.3264 H   0  0  0  0  0  0  0  0  0  0  0  0
   18.9234   17.6734   22.2779 C   0  0  0  0  0  0  0  0  0  0  0  0
   19.4460   18.1066   21.4168 H   0  0  0  0  0  0  0  0  0  0  0  0
   17.8586   17.6516   22.0058 H   0  0  0  0  0  0  0  0  0  0  0  0
   19.4177   16.2293   22.5059 C   0  0  0  0  0  0  0  0  0  0  0  0
   20.4880   16.2080   22.7483 H   0  0  0  0  0  0  0  0  0  0  0  0
   19.2644   15.6205   21.6053 H   0  0  0  0  0  0  0  0  0  0  0  0
   18.8722   15.7521   23.3305 H   0  0  0  0  0  0  0  0  0  0  0  0
  1  2  1  0  0  0  0
  1  3  1  0  0  0  0
  1  4  1  0  0  0  0
  1  5  1  0  0  0  0
  5  6  1  0  0  0  0
  5  7  1  0  0  0  0
  5  8  1  0  0  0  0
  8  9  1  0  0  0  0
  8 10  1  0  0  0  0
  8 11  1  0  0  0  0
 11 12  1  0  0  0  0
 11 13  1  0  0  0  0
 11 14  1  0  0  0  0
 14 15  1  0  0  0  0
 14 16  1  0  0  0  0
 14 17  1  0  0  0  0
 17 18  1  0  0  0  0
 17 19  1  0  0  0  0
 17 20  1  0  0  0  0
 20 21  1  0  0  0  0
 20 22  1  0  0  0  0
 20 23  1  0  0  0  0
M  END
> <VConfSearch Rank>
592

> <Conf_Id>
5

> <Delta U+W>
6.087

> <U+W>
-2.295

> <U>
52.836

> <W>
-55.131

> <W(PB)>
-57.202

> <W(SA)>
2.071

> <Valence>
5.785

> <Coulomb>
46.744

> <VdW>
0.307

> <VdW6>
-7.672

> <VdW12>
7.980

> <Bond>
0.217

> <Angle>
1.470

> <Pdih>
4.098

> <Idih>
0.000

> <Tether>
0.000

$$$$
VeraChem MOL file


 23 22  0  0  0  0  0  0  0  0999 V2000     
   20.8474   20.2541   19.1305 N   0  3  0  0  0  0  0  0  0  0  0  0
   20.4556   21.1971   19.2202 H   0  0  0  0  0  0  0  0  0  0  0  0
   20.7658   19.9904   18.1426 H   0  0  0  0  0  0  0  0  0  0  0  0
   21.8488   20.3225   19.3386 H   0  0  0  0  0  0  0  0  0  0  0  0
   20.1476   19.2622   20.0374 C   0  0  0  0  0  0  0  0  0  0  0  0
   20.5935   18.2781   19.8689 H   0  0  0  0  0  0  0  0  0  0  0  0
   19.0959   19.2182   19.7416 H   0  0  0  0  0  0  0  0  0  0  0  0
   20.2516   19.6297   21.5282 C   0  0  0  0  0  0  0  0  0  0  0  0
   21.3096   19.6886   21.8167 H   0  0  0  0  0  0  0  0  0  0  0  0
   19.8175   20.6254   21.6898 H   0  0  0  0  0  0  0  0  0  0  0  0
   19.5266   18.5953   22.4175 C   0  0  0  0  0  0  0  0  0  0  0  0
   19.9602   17.5997   22.2490 H   0  0  0  0  0  0  0  0  0  0  0  0
   18.4697   18.5355   22.1222 H   0  0  0  0  0  0  0  0  0  0  0  0
   19.6247   18.9547   23.9176 C   0  0  0  0  0  0  0  0  0  0  0  0
   20.6814   19.0144   24.2130 H   0  0  0  0  0  0  0  0  0  0  0  0
   19.1911   19.9502   24.0862 H   0  0  0  0  0  0  0  0  0  0  0  0
   18.8994   17.9201   24.8066 C   0  0  0  0  0  0  0  0  0  0  0  0
   19.3312   16.9227   24.6433 H   0  0  0  0  0  0  0  0  0  0  0  0
   17.8411   17.8585   24.5165 H   0  0  0  0  0  0  0  0  0  0  0  0
   18.9995   18.2823   26.3037 C   0  0  0  0  0  0  0  0  0  0  0  0
   18.4790   17.5366   26.9186 H   0  0  0  0  0  0  0  0  0  0  0  0
   18.5446   19.2611   26.5044 H   0  0  0  0  0  0  0  0  0  0  0  0
   20.0465   18.3180   26.6321 H   0  0  0  0  0  0  0  0  0  0  0  0
  1  2  1  0  0  0  0
  1  3  1  0  0  0  0
  1  4  1  0  0  0  0
  1  5  1  0  0  0  0
  5  6  1  0  0  0  0
  5  7  1  0  0  0  0
  5  8  1  0  0  0  0
  8  9  1  0  0  0  0
  8 10  1  0  0  0  0
  8 11  1  0  0  0  0
 11 12  1  0  0  0  0
 11 13  1  0  0  0  0
 11 14  1  0  0  0  0
 14 15  1  0  0  0  0
 14 16  1  0  0  0  0
 14 17  1  0  0  0  0
 17 18  1  0  0  0  0
 17 19  1  0  0  0  0
 17 20  1  0  0  0  0
 20 21  1  0  0  0  0
 20 22  1  0  0  0  0
 20 23  1  0  0  0  0
M  END
> <VConfSearch Rank>
593

> <Conf_Id>
40

> <Delta U+W>
0.000

> <U+W>
-8.382

> <U>
46.604

> <W>
-54.986

> <W(PB)>
-57.162

> <W(SA)>
2.176

> <Valence>
1.727

> <Coulomb>
44.434

> <VdW>
0.443

> <VdW6>
-4.623

> <VdW12>
5.066

> <Bond>
0.112

> <Angle>
0.386

> <Pdih>
1.228

> <Idih>
0.000

> <Tether>
0.000

$$$$
VeraChem MOL file


 23 22  0  0  0  0  0  0  0  0999 V2000     
   21.3971   20.8140   25.2366 N   0  3  0  0  0  0  0  0  0  0  0  0
   22.2222   21.3029   24.8746 H   0  0  0  0  0  0  0  0  0  0  0  0
   21.7344   19.9967   25.7553 H   0  0  0  0  0  0  0  0  0  0  0  0
   20.9562   21.4394   25.9196 H   0  0  0  0  0  0  0  0  0  0  0  0
   20.4393   20.4249   24.1289 C   0  0  0  0  0  0  0  0  0  0  0  0
   20.0992   21.3415   23.6394 H   0  0  0  0  0  0  0  0  0  0  0  0
   19.5750   19.9393   24.5891 H   0  0  0  0  0  0  0  0  0  0  0  0
   21.0730   19.4851   23.0858 C   0  0  0  0  0  0  0  0  0  0  0  0
   21.9666   19.9668   22.6671 H   0  0  0  0  0  0  0  0  0  0  0  0
   21.4137   18.5637   23.5767 H   0  0  0  0  0  0  0  0  0  0  0  0
   20.1067   19.1319   21.9303 C   0  0  0  0  0  0  0  0  0  0  0  0
   20.6652   18.5587   21.1789 H   0  0  0  0  0  0  0  0  0  0  0  0
   19.7752   20.0550   21.4349 H   0  0  0  0  0  0  0  0  0  0  0  0
   18.8740   18.3159   22.3962 C   0  0  0  0  0  0  0  0  0  0  0  0
   19.2058   17.3831   22.8728 H   0  0  0  0  0  0  0  0  0  0  0  0
   18.3298   18.8793   23.1655 H   0  0  0  0  0  0  0  0  0  0  0  0
   17.8850   17.9867   21.2517 C   0  0  0  0  0  0  0  0  0  0  0  0
   17.5415   18.9169   20.7778 H   0  0  0  0  0  0  0  0  0  0  0  0
   16.9915   17.5145   21.6838 H   0  0  0  0  0  0  0  0  0  0  0  0
   18.4748   17.0431   20.1787 C   0  0  0  0  0  0  0  0  0  0  0  0
   19.2950   17.5200   19.6281 H   0  0  0  0  0  0  0  0  0  0  0  0
   17.7052   16.7654   19.4470 H   0  0  0  0  0  0  0  0  0  0  0  0
   18.8556   16.1187   20.6319 H   0  0  0  0  0  0  0  0  0  0  0  0
  1  2  1  0  0  0  0
  1  3  1  0  0  0  0
  1  4  1  0  0  0  0
  1  5  1  0  0  0  0
  5  6  1  0  0  0  0
  5  7  1  0  0  0  0
  5  8  1  0  0  0  0
  8  9  1  0  0  0  0
  8 10  1  0  0  0  0
  8 11  1  0  0  0  0
 11 12  1  0  0  0  0
 11 13  1  0  0  0  0
 11 14  1  0  0  0  0
 14 15  1  0  0  0  0
 14 16  1  0  0  0  0
 14 17  1  0  0  0  0
 17 18  1  0  0  0  0
 17 19  1  0  0  0  0
 17 20  1  0  0  0  0
 20 21  1  0  0  0  0
 20 22  1  0  0  0  0
 20 23  1  0  0  0  0
M  END
> <VConfSearch Rank>
594

> <Conf_Id>
65

> <Delta U+W>
1.004

> <U+W>
-7.378

> <U>
48.047

> <W>
-55.425

> <W(PB)>
-57.542

> <W(SA)>
2.116

> <Valence>
2.583

> <Coulomb>
44.791

> <VdW>
0.673

> <VdW6>
-5.788

> <VdW12>
6.462

> <Bond>
0.177

> <Angle>
0.787

> <Pdih>
1.619

> <Idih>
0.000

> <Tether>
0.000

$$$$
VeraChem MOL file


 23 22  0  0  0  0  0  0  0  0999 V2000     
   16.6368   19.8409   21.0919 N   0  3  0  0  0  0  0  0  0  0  0  0
   16.7036   20.7376   20.5996 H   0  0  0  0  0  0  0  0  0  0  0  0
   15.7127   19.8132   21.5360 H   0  0  0  0  0  0  0  0  0  0  0  0
   16.6471   19.1042   20.3792 H   0  0  0  0  0  0  0  0  0  0  0  0
   17.7525   19.6661   22.1021 C   0  0  0  0  0  0  0  0  0  0  0  0
   17.5999   18.7088   22.6069 H   0  0  0  0  0  0  0  0  0  0  0  0
   17.6643   20.4645   22.8439 H   0  0  0  0  0  0  0  0  0  0  0  0
   19.1545   19.7035   21.4650 C   0  0  0  0  0  0  0  0  0  0  0  0
   19.2441   18.9011   20.7207 H   0  0  0  0  0  0  0  0  0  0  0  0
   19.2751   20.6504   20.9220 H   0  0  0  0  0  0  0  0  0  0  0  0
   20.2911   19.5757   22.5069 C   0  0  0  0  0  0  0  0  0  0  0  0
   20.2047   20.3855   23.2444 H   0  0  0  0  0  0  0  0  0  0  0  0
   21.2483   19.7254   21.9907 H   0  0  0  0  0  0  0  0  0  0  0  0
   20.3002   18.2057   23.2319 C   0  0  0  0  0  0  0  0  0  0  0  0
   19.3335   18.0458   23.7274 H   0  0  0  0  0  0  0  0  0  0  0  0
   20.4075   17.3974   22.4955 H   0  0  0  0  0  0  0  0  0  0  0  0
   21.4140   18.0816   24.2999 C   0  0  0  0  0  0  0  0  0  0  0  0
   21.2769   17.1358   24.8427 H   0  0  0  0  0  0  0  0  0  0  0  0
   21.3052   18.8817   25.0454 H   0  0  0  0  0  0  0  0  0  0  0  0
   22.8418   18.1117   23.7087 C   0  0  0  0  0  0  0  0  0  0  0  0
   23.0743   19.0868   23.2632 H   0  0  0  0  0  0  0  0  0  0  0  0
   22.9659   17.3416   22.9363 H   0  0  0  0  0  0  0  0  0  0  0  0
   23.5861   17.9227   24.4931 H   0  0  0  0  0  0  0  0  0  0  0  0
  1  2  1  0  0  0  0
  1  3  1  0  0  0  0
  1  4  1  0  0  0  0
  1  5  1  0  0  0  0
  5  6  1  0  0  0  0
  5  7  1  0  0  0  0
  5  8  1  0  0  0  0
  8  9  1  0  0  0  0
  8 10  1  0  0  0  0
  8 11  1  0  0  0  0
 11 12  1  0  0  0  0
 11 13  1  0  0  0  0
 11 14  1  0  0  0  0
 14 15  1  0  0  0  0
 14 16  1  0  0  0  0
 14 17  1  0  0  0  0
 17 18  1  0  0  0  0
 17 19  1  0  0  0  0
 17 20  1  0  0  0  0
 20 21  1  0  0  0  0
 20 22  1  0  0  0  0
 20 23  1  0  0  0  0
M  END
> <VConfSearch Rank>
595

> <Conf_Id>
92

> <Delta U+W>
0.973

> <U+W>
-7.409

> <U>
48.047

> <W>
-55.456

> <W(PB)>
-57.595

> <W(SA)>
2.138

> <Valence>
2.583

> <Coulomb>
44.791

> <VdW>
0.674

> <VdW6>
-5.789

> <VdW12>
6.462

> <Bond>
0.177

> <Angle>
0.787

> <Pdih>
1.619

> <Idih>
0.000

> <Tether>
0.000

$$$$
VeraChem MOL file


 23 22  0  0  0  0  0  0  0  0999 V2000     
   17.8801   21.8361   23.4945 N   0  3  0  0  0  0  0  0  0  0  0  0
   18.2444   22.5191   24.1673 H   0  0  0  0  0  0  0  0  0  0  0  0
   16.8946   21.6818   23.7310 H   0  0  0  0  0  0  0  0  0  0  0  0
   17.9023   22.2847   22.5730 H   0  0  0  0  0  0  0  0  0  0  0  0
   18.6751   20.5464   23.5149 C   0  0  0  0  0  0  0  0  0  0  0  0
   18.6325   20.1396   24.5289 H   0  0  0  0  0  0  0  0  0  0  0  0
   19.7155   20.7904   23.2853 H   0  0  0  0  0  0  0  0  0  0  0  0
   18.1517   19.4989   22.5140 C   0  0  0  0  0  0  0  0  0  0  0  0
   17.0938   19.2960   22.7277 H   0  0  0  0  0  0  0  0  0  0  0  0
   18.1938   19.9079   21.4957 H   0  0  0  0  0  0  0  0  0  0  0  0
   18.9397   18.1691   22.5732 C   0  0  0  0  0  0  0  0  0  0  0  0
   18.4562   17.4432   21.9048 H   0  0  0  0  0  0  0  0  0  0  0  0
   18.8744   17.7493   23.5867 H   0  0  0  0  0  0  0  0  0  0  0  0
   20.4251   18.3238   22.1667 C   0  0  0  0  0  0  0  0  0  0  0  0
   20.4871   18.7743   21.1664 H   0  0  0  0  0  0  0  0  0  0  0  0
   20.9339   19.0099   22.8569 H   0  0  0  0  0  0  0  0  0  0  0  0
   21.1639   16.9670   22.1656 C   0  0  0  0  0  0  0  0  0  0  0  0
   20.6679   16.2743   21.4713 H   0  0  0  0  0  0  0  0  0  0  0  0
   21.1044   16.5114   23.1641 H   0  0  0  0  0  0  0  0  0  0  0  0
   22.6455   17.1226   21.7614 C   0  0  0  0  0  0  0  0  0  0  0  0
   22.7370   17.5453   20.7524 H   0  0  0  0  0  0  0  0  0  0  0  0
   23.1528   16.1492   21.7661 H   0  0  0  0  0  0  0  0  0  0  0  0
   23.1777   17.7831   22.4584 H   0  0  0  0  0  0  0  0  0  0  0  0
  1  2  1  0  0  0  0
  1  3  1  0  0  0  0
  1  4  1  0  0  0  0
  1  5  1  0  0  0  0
  5  6  1  0  0  0  0
  5  7  1  0  0  0  0
  5  8  1  0  0  0  0
  8  9  1  0  0  0  0
  8 10  1  0  0  0  0
  8 11  1  0  0  0  0
 11 12  1  0  0  0  0
 11 13  1  0  0  0  0
 11 14  1  0  0  0  0
 14 15  1  0  0  0  0
 14 16  1  0  0  0  0
 14 17  1  0  0  0  0
 17 18  1  0  0  0  0
 17 19  1  0  0  0  0
 17 20  1  0  0  0  0
 20 21  1  0  0  0  0
 20 22  1  0  0  0  0
 20 23  1  0  0  0  0
M  END
> <VConfSearch Rank>
596

> <Conf_Id>
42

> <Delta U+W>
0.365

> <U+W>
-8.017

> <U>
47.375

> <W>
-55.392

> <W(PB)>
-57.543

> <W(SA)>
2.152

> <Valence>
2.032

> <Coulomb>
44.843

> <VdW>
0.499

> <VdW6>
-5.218

> <VdW12>
5.717

> <Bond>
0.135

> <Angle>
0.514

> <Pdih>
1.383

> <Idih>
0.000

> <Tether>
0.000

$$$$
VeraChem MOL file


 23 22  0  0  0  0  0  0  0  0999 V2000     
   18.6207   16.6792   24.4837 N   0  3  0  0  0  0  0  0  0  0  0  0
   18.4908   17.3076   25.2830 H   0  0  0  0  0  0  0  0  0  0  0  0
   18.5866   15.7212   24.8483 H   0  0  0  0  0  0  0  0  0  0  0  0
   17.8073   16.7953   23.8719 H   0  0  0  0  0  0  0  0  0  0  0  0
   19.9201   16.9573   23.7532 C   0  0  0  0  0  0  0  0  0  0  0  0
   20.0085   16.2415   22.9315 H   0  0  0  0  0  0  0  0  0  0  0  0
   20.7387   16.7731   24.4543 H   0  0  0  0  0  0  0  0  0  0  0  0
   20.0325   18.3933   23.2050 C   0  0  0  0  0  0  0  0  0  0  0  0
   19.9159   19.1109   24.0279 H   0  0  0  0  0  0  0  0  0  0  0  0
   21.0472   18.5222   22.8089 H   0  0  0  0  0  0  0  0  0  0  0  0
   19.0025   18.6899   22.0879 C   0  0  0  0  0  0  0  0  0  0  0  0
   17.9925   18.4608   22.4521 H   0  0  0  0  0  0  0  0  0  0  0  0
   19.1816   18.0151   21.2394 H   0  0  0  0  0  0  0  0  0  0  0  0
   19.0068   20.1578   21.5876 C   0  0  0  0  0  0  0  0  0  0  0  0
   18.2109   20.2524   20.8358 H   0  0  0  0  0  0  0  0  0  0  0  0
   18.7229   20.8359   22.4043 H   0  0  0  0  0  0  0  0  0  0  0  0
   20.3373   20.6235   20.9416 C   0  0  0  0  0  0  0  0  0  0  0  0
   20.1036   21.3040   20.1108 H   0  0  0  0  0  0  0  0  0  0  0  0
   20.8641   19.7698   20.4930 H   0  0  0  0  0  0  0  0  0  0  0  0
   21.2668   21.3739   21.9240 C   0  0  0  0  0  0  0  0  0  0  0  0
   20.7749   22.2718   22.3199 H   0  0  0  0  0  0  0  0  0  0  0  0
   22.1847   21.6949   21.4147 H   0  0  0  0  0  0  0  0  0  0  0  0
   21.5605   20.7486   22.7743 H   0  0  0  0  0  0  0  0  0  0  0  0
  1  2  1  0  0  0  0
  1  3  1  0  0  0  0
  1  4  1  0  0  0  0
  1  5  1  0  0  0  0
  5  6  1  0  0  0  0
  5  7  1  0  0  0  0
  5  8  1  0  0  0  0
  8  9  1  0  0  0  0
  8 10  1  0  0  0  0
  8 11  1  0  0  0  0
 11 12  1  0  0  0  0
 11 13  1  0  0  0  0
 11 14  1  0  0  0  0
 14 15  1  0  0  0  0
 14 16  1  0  0  0  0
 14 17  1  0  0  0  0
 17 18  1  0  0  0  0
 17 19  1  0  0  0  0
 17 20  1  0  0  0  0
 20 21  1  0  0  0  0
 20 22  1  0  0  0  0
 20 23  1  0  0  0  0
M  END
> <VConfSearch Rank>
597

> <Conf_Id>
3

> <Delta U+W>
3.283

> <U+W>
-5.099

> <U>
50.701

> <W>
-55.800

> <W(PB)>
-57.867

> <W(SA)>
2.067

> <Valence>
4.880

> <Coulomb>
45.095

> <VdW>
0.726

> <VdW6>
-6.620

> <VdW12>
7.346

> <Bond>
0.222

> <Angle>
1.260

> <Pdih>
3.398

> <Idih>
0.000

> <Tether>
0.000

$$$$
VeraChem MOL file


 23 22  0  0  0  0  0  0  0  0999 V2000     
   17.7010   18.6595   20.6082 N   0  3  0  0  0  0  0  0  0  0  0  0
   16.9149   18.1006   20.9547 H   0  0  0  0  0  0  0  0  0  0  0  0
   17.4677   18.9429   19.6505 H   0  0  0  0  0  0  0  0  0  0  0  0
   17.7390   19.5130   21.1737 H   0  0  0  0  0  0  0  0  0  0  0  0
   19.0068   17.8914   20.6662 C   0  0  0  0  0  0  0  0  0  0  0  0
   19.7940   18.5292   20.2562 H   0  0  0  0  0  0  0  0  0  0  0  0
   18.9075   17.0173   20.0169 H   0  0  0  0  0  0  0  0  0  0  0  0
   19.3930   17.4313   22.0869 C   0  0  0  0  0  0  0  0  0  0  0  0
   18.6187   16.7509   22.4654 H   0  0  0  0  0  0  0  0  0  0  0  0
   20.3163   16.8399   22.0268 H   0  0  0  0  0  0  0  0  0  0  0  0
   19.5936   18.5895   23.0969 C   0  0  0  0  0  0  0  0  0  0  0  0
   19.8228   18.1501   24.0764 H   0  0  0  0  0  0  0  0  0  0  0  0
   18.6537   19.1431   23.2227 H   0  0  0  0  0  0  0  0  0  0  0  0
   20.7266   19.5653   22.6890 C   0  0  0  0  0  0  0  0  0  0  0  0
   21.6721   19.0144   22.5905 H   0  0  0  0  0  0  0  0  0  0  0  0
   20.5103   19.9868   21.6986 H   0  0  0  0  0  0  0  0  0  0  0  0
   20.9147   20.7397   23.6799 C   0  0  0  0  0  0  0  0  0  0  0  0
   19.9747   21.3012   23.7742 H   0  0  0  0  0  0  0  0  0  0  0  0
   21.6497   21.4402   23.2594 H   0  0  0  0  0  0  0  0  0  0  0  0
   21.3976   20.2949   25.0793 C   0  0  0  0  0  0  0  0  0  0  0  0
   22.3191   19.7025   25.0093 H   0  0  0  0  0  0  0  0  0  0  0  0
   20.6398   19.6932   25.5959 H   0  0  0  0  0  0  0  0  0  0  0  0
   21.6082   21.1694   25.7084 H   0  0  0  0  0  0  0  0  0  0  0  0
  1  2  1  0  0  0  0
  1  3  1  0  0  0  0
  1  4  1  0  0  0  0
  1  5  1  0  0  0  0
  5  6  1  0  0  0  0
  5  7  1  0  0  0  0
  5  8  1  0  0  0  0
  8  9  1  0  0  0  0
  8 10  1  0  0  0  0
  8 11  1  0  0  0  0
 11 12  1  0  0  0  0
 11 13  1  0  0  0  0
 11 14  1  0  0  0  0
 14 15  1  0  0  0  0
 14 16  1  0  0  0  0
 14 17  1  0  0  0  0
 17 18  1  0  0  0  0
 17 19  1  0  0  0  0
 17 20  1  0  0  0  0
 20 21  1  0  0  0  0
 20 22  1  0  0  0  0
 20 23  1  0  0  0  0
M  END
> <VConfSearch Rank>
598

> <Conf_Id>
83

> <Delta U+W>
1.229

> <U+W>
-7.154

> <U>
48.727

> <W>
-55.880

> <W(PB)>
-57.960

> <W(SA)>
2.080

> <Valence>
2.671

> <Coulomb>
45.371

> <VdW>
0.684

> <VdW6>
-6.511

> <VdW12>
7.195

> <Bond>
0.203

> <Angle>
0.915

> <Pdih>
1.554

> <Idih>
0.000

> <Tether>
0.000

$$$$
VeraChem MOL file


 23 22  0  0  0  0  0  0  0  0999 V2000     
   16.8866   19.6845   22.7324 N   0  3  0  0  0  0  0  0  0  0  0  0
   16.5726   20.3198   21.9919 H   0  0  0  0  0  0  0  0  0  0  0  0
   17.5791   20.1906   23.2927 H   0  0  0  0  0  0  0  0  0  0  0  0
   16.0784   19.5093   23.3390 H   0  0  0  0  0  0  0  0  0  0  0  0
   17.4562   18.3984   22.1670 C   0  0  0  0  0  0  0  0  0  0  0  0
   16.6581   17.8964   21.6133 H   0  0  0  0  0  0  0  0  0  0  0  0
   17.7417   17.7569   23.0045 H   0  0  0  0  0  0  0  0  0  0  0  0
   18.6671   18.6131   21.2358 C   0  0  0  0  0  0  0  0  0  0  0  0
   18.9776   17.6403   20.8319 H   0  0  0  0  0  0  0  0  0  0  0  0
   18.3526   19.2155   20.3733 H   0  0  0  0  0  0  0  0  0  0  0  0
   19.8807   19.2931   21.9188 C   0  0  0  0  0  0  0  0  0  0  0  0
   19.6026   20.2989   22.2603 H   0  0  0  0  0  0  0  0  0  0  0  0
   20.6624   19.4331   21.1610 H   0  0  0  0  0  0  0  0  0  0  0  0
   20.4503   18.4749   23.1056 C   0  0  0  0  0  0  0  0  0  0  0  0
   19.6624   18.3135   23.8529 H   0  0  0  0  0  0  0  0  0  0  0  0
   20.7538   17.4783   22.7564 H   0  0  0  0  0  0  0  0  0  0  0  0
   21.6461   19.1613   23.8094 C   0  0  0  0  0  0  0  0  0  0  0  0
   21.9109   18.5776   24.7022 H   0  0  0  0  0  0  0  0  0  0  0  0
   21.3452   20.1547   24.1704 H   0  0  0  0  0  0  0  0  0  0  0  0
   22.8983   19.2910   22.9124 C   0  0  0  0  0  0  0  0  0  0  0  0
   23.2000   18.3146   22.5116 H   0  0  0  0  0  0  0  0  0  0  0  0
   23.7425   19.6925   23.4877 H   0  0  0  0  0  0  0  0  0  0  0  0
   22.7227   19.9701   22.0690 H   0  0  0  0  0  0  0  0  0  0  0  0
  1  2  1  0  0  0  0
  1  3  1  0  0  0  0
  1  4  1  0  0  0  0
  1  5  1  0  0  0  0
  5  6  1  0  0  0  0
  5  7  1  0  0  0  0
  5  8  1  0  0  0  0
  8  9  1  0  0  0  0
  8 10  1  0  0  0  0
  8 11  1  0  0  0  0
 11 12  1  0  0  0  0
 11 13  1  0  0  0  0
 11 14  1  0  0  0  0
 14 15  1  0  0  0  0
 14 16  1  0  0  0  0
 14 17  1  0  0  0  0
 17 18  1  0  0  0  0
 17 19  1  0  0  0  0
 17 20  1  0  0  0  0
 20 21  1  0  0  0  0
 20 22  1  0  0  0  0
 20 23  1  0  0  0  0
M  END
> <VConfSearch Rank>
599

> <Conf_Id>
50

> <Delta U+W>
1.252

> <U+W>
-7.130

> <U>
48.727

> <W>
-55.857

> <W(PB)>
-57.937

> <W(SA)>
2.080

> <Valence>
2.671

> <Coulomb>
45.371

> <VdW>
0.684

> <VdW6>
-6.511

> <VdW12>
7.196

> <Bond>
0.203

> <Angle>
0.915

> <Pdih>
1.554

> <Idih>
0.000

> <Tether>
0.000

$$$$
VeraChem MOL file


 23 22  0  0  0  0  0  0  0  0999 V2000     
   21.5809   20.7996   20.6675 N   0  3  0  0  0  0  0  0  0  0  0  0
   20.9704   21.5014   21.0968 H   0  0  0  0  0  0  0  0  0  0  0  0
   21.7507   21.1009   19.7019 H   0  0  0  0  0  0  0  0  0  0  0  0
   22.4810   20.8410   21.1560 H   0  0  0  0  0  0  0  0  0  0  0  0
   20.9713   19.4124   20.7252 C   0  0  0  0  0  0  0  0  0  0  0  0
   21.6552   18.7286   20.2151 H   0  0  0  0  0  0  0  0  0  0  0  0
   20.0307   19.4316   20.1681 H   0  0  0  0  0  0  0  0  0  0  0  0
   20.7151   18.9042   22.1573 C   0  0  0  0  0  0  0  0  0  0  0  0
   20.3811   17.8624   22.0965 H   0  0  0  0  0  0  0  0  0  0  0  0
   21.6614   18.8917   22.7141 H   0  0  0  0  0  0  0  0  0  0  0  0
   19.6688   19.7598   22.9163 C   0  0  0  0  0  0  0  0  0  0  0  0
   18.7500   19.8568   22.3216 H   0  0  0  0  0  0  0  0  0  0  0  0
   20.0667   20.7770   23.0303 H   0  0  0  0  0  0  0  0  0  0  0  0
   19.3329   19.2113   24.3278 C   0  0  0  0  0  0  0  0  0  0  0  0
   20.1972   18.6766   24.7453 H   0  0  0  0  0  0  0  0  0  0  0  0
   19.1639   20.0670   24.9962 H   0  0  0  0  0  0  0  0  0  0  0  0
   18.0698   18.3148   24.3911 C   0  0  0  0  0  0  0  0  0  0  0  0
   17.1922   18.8915   24.0673 H   0  0  0  0  0  0  0  0  0  0  0  0
   17.8858   18.0456   25.4407 H   0  0  0  0  0  0  0  0  0  0  0  0
   18.1664   17.0183   23.5575 C   0  0  0  0  0  0  0  0  0  0  0  0
   19.0668   16.4466   23.8169 H   0  0  0  0  0  0  0  0  0  0  0  0
   18.1871   17.2361   22.4826 H   0  0  0  0  0  0  0  0  0  0  0  0
   17.2959   16.3765   23.7447 H   0  0  0  0  0  0  0  0  0  0  0  0
  1  2  1  0  0  0  0
  1  3  1  0  0  0  0
  1  4  1  0  0  0  0
  1  5  1  0  0  0  0
  5  6  1  0  0  0  0
  5  7  1  0  0  0  0
  5  8  1  0  0  0  0
  8  9  1  0  0  0  0
  8 10  1  0  0  0  0
  8 11  1  0  0  0  0
 11 12  1  0  0  0  0
 11 13  1  0  0  0  0
 11 14  1  0  0  0  0
 14 15  1  0  0  0  0
 14 16  1  0  0  0  0
 14 17  1  0  0  0  0
 17 18  1  0  0  0  0
 17 19  1  0  0  0  0
 17 20  1  0  0  0  0
 20 21  1  0  0  0  0
 20 22  1  0  0  0  0
 20 23  1  0  0  0  0
M  END
> <VConfSearch Rank>
600

> <Conf_Id>
55

> <Delta U+W>
3.232

> <U+W>
-5.150

> <U>
50.625

> <W>
-55.776

> <W(PB)>
-57.839

> <W(SA)>
2.064

> <Valence>
4.837

> <Coulomb>
45.097

> <VdW>
0.692

> <VdW6>
-6.655

> <VdW12>
7.347

> <Bond>
0.223

> <Angle>
1.167

> <Pdih>
3.447

> <Idih>
0.000

> <Tether>
0.000

$$$$
VeraChem MOL file


 23 22  0  0  0  0  0  0  0  0999 V2000     
   17.7114   17.2496   21.1411 N   0  3  0  0  0  0  0  0  0  0  0  0
   16.7044   17.3855   21.2759 H   0  0  0  0  0  0  0  0  0  0  0  0
   17.8623   16.2423   21.0201 H   0  0  0  0  0  0  0  0  0  0  0  0
   17.9595   17.6970   20.2528 H   0  0  0  0  0  0  0  0  0  0  0  0
   18.5165   17.8047   22.2984 C   0  0  0  0  0  0  0  0  0  0  0  0
   19.5694   17.5928   22.1040 H   0  0  0  0  0  0  0  0  0  0  0  0
   18.2217   17.2648   23.2023 H   0  0  0  0  0  0  0  0  0  0  0  0
   18.3046   19.3168   22.5092 C   0  0  0  0  0  0  0  0  0  0  0  0
   18.5528   19.8689   21.5930 H   0  0  0  0  0  0  0  0  0  0  0  0
   17.2358   19.4880   22.6943 H   0  0  0  0  0  0  0  0  0  0  0  0
   19.1090   19.8826   23.7068 C   0  0  0  0  0  0  0  0  0  0  0  0
   19.1263   19.1519   24.5274 H   0  0  0  0  0  0  0  0  0  0  0  0
   18.5692   20.7559   24.0985 H   0  0  0  0  0  0  0  0  0  0  0  0
   20.5522   20.3389   23.3687 C   0  0  0  0  0  0  0  0  0  0  0  0
   20.5159   21.1440   22.6218 H   0  0  0  0  0  0  0  0  0  0  0  0
   20.9908   20.7827   24.2732 H   0  0  0  0  0  0  0  0  0  0  0  0
   21.4822   19.2120   22.8628 C   0  0  0  0  0  0  0  0  0  0  0  0
   21.1449   18.8626   21.8784 H   0  0  0  0  0  0  0  0  0  0  0  0
   21.4361   18.3536   23.5474 H   0  0  0  0  0  0  0  0  0  0  0  0
   22.9442   19.6921   22.7415 C   0  0  0  0  0  0  0  0  0  0  0  0
   23.3364   20.0153   23.7146 H   0  0  0  0  0  0  0  0  0  0  0  0
   23.0259   20.5350   22.0428 H   0  0  0  0  0  0  0  0  0  0  0  0
   23.5880   18.8839   22.3711 H   0  0  0  0  0  0  0  0  0  0  0  0
  1  2  1  0  0  0  0
  1  3  1  0  0  0  0
  1  4  1  0  0  0  0
  1  5  1  0  0  0  0
  5  6  1  0  0  0  0
  5  7  1  0  0  0  0
  5  8  1  0  0  0  0
  8  9  1  0  0  0  0
  8 10  1  0  0  0  0
  8 11  1  0  0  0  0
 11 12  1  0  0  0  0
 11 13  1  0  0  0  0
 11 14  1  0  0  0  0
 14 15  1  0  0  0  0
 14 16  1  0  0  0  0
 14 17  1  0  0  0  0
 17 18  1  0  0  0  0
 17 19  1  0  0  0  0
 17 20  1  0  0  0  0
 20 21  1  0  0  0  0
 20 22  1  0  0  0  0
 20 23  1  0  0  0  0
M  END
> <VConfSearch Rank>
601

> <Conf_Id>
93

> <Delta U+W>
2.589

> <U+W>
-5.793

> <U>
50.122

> <W>
-55.915

> <W(PB)>
-58.031

> <W(SA)>
2.115

> <Valence>
4.132

> <Coulomb>
45.536

> <VdW>
0.454

> <VdW6>
-6.262

> <VdW12>
6.715

> <Bond>
0.182

> <Angle>
1.157

> <Pdih>
2.794

> <Idih>
0.000

> <Tether>
0.000

$$$$
VeraChem MOL file


 23 22  0  0  0  0  0  0  0  0999 V2000     
   19.4160   16.0641   21.4419 N   0  3  0  0  0  0  0  0  0  0  0  0
   20.2270   15.7707   21.9959 H   0  0  0  0  0  0  0  0  0  0  0  0
   19.6381   15.8665   20.4603 H   0  0  0  0  0  0  0  0  0  0  0  0
   18.6368   15.4501   21.7000 H   0  0  0  0  0  0  0  0  0  0  0  0
   19.0803   17.5254   21.6604 C   0  0  0  0  0  0  0  0  0  0  0  0
   18.2294   17.7739   21.0204 H   0  0  0  0  0  0  0  0  0  0  0  0
   19.9369   18.1168   21.3321 H   0  0  0  0  0  0  0  0  0  0  0  0
   18.7349   17.8514   23.1267 C   0  0  0  0  0  0  0  0  0  0  0  0
   17.8758   17.2331   23.4195 H   0  0  0  0  0  0  0  0  0  0  0  0
   19.5633   17.5637   23.7877 H   0  0  0  0  0  0  0  0  0  0  0  0
   18.3685   19.3406   23.3487 C   0  0  0  0  0  0  0  0  0  0  0  0
   17.6890   19.4004   24.2102 H   0  0  0  0  0  0  0  0  0  0  0  0
   17.7946   19.7189   22.4913 H   0  0  0  0  0  0  0  0  0  0  0  0
   19.5725   20.2746   23.6381 C   0  0  0  0  0  0  0  0  0  0  0  0
   19.1820   21.2803   23.8467 H   0  0  0  0  0  0  0  0  0  0  0  0
   20.0767   19.9473   24.5578 H   0  0  0  0  0  0  0  0  0  0  0  0
   20.6061   20.3670   22.4920 C   0  0  0  0  0  0  0  0  0  0  0  0
   20.0945   20.5820   21.5434 H   0  0  0  0  0  0  0  0  0  0  0  0
   21.1208   19.4047   22.3742 H   0  0  0  0  0  0  0  0  0  0  0  0
   21.6611   21.4605   22.7638 C   0  0  0  0  0  0  0  0  0  0  0  0
   22.3925   21.5051   21.9464 H   0  0  0  0  0  0  0  0  0  0  0  0
   22.2075   21.2589   23.6944 H   0  0  0  0  0  0  0  0  0  0  0  0
   21.1925   22.4496   22.8498 H   0  0  0  0  0  0  0  0  0  0  0  0
  1  2  1  0  0  0  0
  1  3  1  0  0  0  0
  1  4  1  0  0  0  0
  1  5  1  0  0  0  0
  5  6  1  0  0  0  0
  5  7  1  0  0  0  0
  5  8  1  0  0  0  0
  8  9  1  0  0  0  0
  8 10  1  0  0  0  0
  8 11  1  0  0  0  0
 11 12  1  0  0  0  0
 11 13  1  0  0  0  0
 11 14  1  0  0  0  0
 14 15  1  0  0  0  0
 14 16  1  0  0  0  0
 14 17  1  0  0  0  0
 17 18  1  0  0  0  0
 17 19  1  0  0  0  0
 17 20  1  0  0  0  0
 20 21  1  0  0  0  0
 20 22  1  0  0  0  0
 20 23  1  0  0  0  0
M  END
> <VConfSearch Rank>
602

> <Conf_Id>
70

> <Delta U+W>
2.599

> <U+W>
-5.783

> <U>
50.122

> <W>
-55.906

> <W(PB)>
-58.010

> <W(SA)>
2.105

> <Valence>
4.132

> <Coulomb>
45.536

> <VdW>
0.454

> <VdW6>
-6.262

> <VdW12>
6.715

> <Bond>
0.182

> <Angle>
1.157

> <Pdih>
2.794

> <Idih>
0.000

> <Tether>
0.000

$$$$
VeraChem MOL file


 23 22  0  0  0  0  0  0  0  0999 V2000     
   21.3103   17.0374   24.0167 N   0  3  0  0  0  0  0  0  0  0  0  0
   21.3801   16.0494   23.7533 H   0  0  0  0  0  0  0  0  0  0  0  0
   21.6926   17.1222   24.9646 H   0  0  0  0  0  0  0  0  0  0  0  0
   21.9316   17.5617   23.3933 H   0  0  0  0  0  0  0  0  0  0  0  0
   19.8828   17.5416   23.9373 C   0  0  0  0  0  0  0  0  0  0  0  0
   19.8727   18.5855   24.2612 H   0  0  0  0  0  0  0  0  0  0  0  0
   19.2846   16.9607   24.6446 H   0  0  0  0  0  0  0  0  0  0  0  0
   19.2648   17.4279   22.5291 C   0  0  0  0  0  0  0  0  0  0  0  0
   19.2485   16.3719   22.2285 H   0  0  0  0  0  0  0  0  0  0  0  0
   18.2140   17.7409   22.5772 H   0  0  0  0  0  0  0  0  0  0  0  0
   20.0072   18.2546   21.4463 C   0  0  0  0  0  0  0  0  0  0  0  0
   19.4754   18.1450   20.4911 H   0  0  0  0  0  0  0  0  0  0  0  0
   21.0038   17.8234   21.2817 H   0  0  0  0  0  0  0  0  0  0  0  0
   20.1620   19.7635   21.7688 C   0  0  0  0  0  0  0  0  0  0  0  0
   20.7729   19.8953   22.6718 H   0  0  0  0  0  0  0  0  0  0  0  0
   20.7243   20.2361   20.9517 H   0  0  0  0  0  0  0  0  0  0  0  0
   18.8127   20.5001   21.9411 C   0  0  0  0  0  0  0  0  0  0  0  0
   18.2638   20.0897   22.7992 H   0  0  0  0  0  0  0  0  0  0  0  0
   18.1852   20.3373   21.0537 H   0  0  0  0  0  0  0  0  0  0  0  0
   19.0147   22.0154   22.1543 C   0  0  0  0  0  0  0  0  0  0  0  0
   18.0485   22.5218   22.2772 H   0  0  0  0  0  0  0  0  0  0  0  0
   19.5263   22.4705   21.2963 H   0  0  0  0  0  0  0  0  0  0  0  0
   19.6142   22.2109   23.0530 H   0  0  0  0  0  0  0  0  0  0  0  0
  1  2  1  0  0  0  0
  1  3  1  0  0  0  0
  1  4  1  0  0  0  0
  1  5  1  0  0  0  0
  5  6  1  0  0  0  0
  5  7  1  0  0  0  0
  5  8  1  0  0  0  0
  8  9  1  0  0  0  0
  8 10  1  0  0  0  0
  8 11  1  0  0  0  0
 11 12  1  0  0  0  0
 11 13  1  0  0  0  0
 11 14  1  0  0  0  0
 14 15  1  0  0  0  0
 14 16  1  0  0  0  0
 14 17  1  0  0  0  0
 17 18  1  0  0  0  0
 17 19  1  0  0  0  0
 17 20  1  0  0  0  0
 20 21  1  0  0  0  0
 20 22  1  0  0  0  0
 20 23  1  0  0  0  0
M  END
> <VConfSearch Rank>
603

> <Conf_Id>
72

> <Delta U+W>
1.051

> <U+W>
-7.331

> <U>
48.590

> <W>
-55.922

> <W(PB)>
-58.012

> <W(SA)>
2.090

> <Valence>
2.601

> <Coulomb>
45.520

> <VdW>
0.469

> <VdW6>
-6.867

> <VdW12>
7.336

> <Bond>
0.205

> <Angle>
0.962

> <Pdih>
1.434

> <Idih>
0.000

> <Tether>
0.000

$$$$
VeraChem MOL file


 23 22  0  0  0  0  0  0  0  0999 V2000     
   19.4917   18.0655   19.6225 N   0  3  0  0  0  0  0  0  0  0  0  0
   19.4920   17.1242   19.2152 H   0  0  0  0  0  0  0  0  0  0  0  0
   19.9442   18.6844   18.9421 H   0  0  0  0  0  0  0  0  0  0  0  0
   18.5123   18.3595   19.6931 H   0  0  0  0  0  0  0  0  0  0  0  0
   20.1902   18.0972   20.9667 C   0  0  0  0  0  0  0  0  0  0  0  0
   21.2158   17.7464   20.8231 H   0  0  0  0  0  0  0  0  0  0  0  0
   19.6761   17.3959   21.6291 H   0  0  0  0  0  0  0  0  0  0  0  0
   20.2069   19.4982   21.6060 C   0  0  0  0  0  0  0  0  0  0  0  0
   20.6919   20.2019   20.9166 H   0  0  0  0  0  0  0  0  0  0  0  0
   19.1782   19.8568   21.7387 H   0  0  0  0  0  0  0  0  0  0  0  0
   20.9572   19.5281   22.9607 C   0  0  0  0  0  0  0  0  0  0  0  0
   20.9524   20.5545   23.3511 H   0  0  0  0  0  0  0  0  0  0  0  0
   22.0140   19.2831   22.7862 H   0  0  0  0  0  0  0  0  0  0  0  0
   20.3962   18.5606   24.0377 C   0  0  0  0  0  0  0  0  0  0  0  0
   20.5540   17.5231   23.7138 H   0  0  0  0  0  0  0  0  0  0  0  0
   20.9891   18.6762   24.9555 H   0  0  0  0  0  0  0  0  0  0  0  0
   18.8979   18.7556   24.3830 C   0  0  0  0  0  0  0  0  0  0  0  0
   18.6137   18.0124   25.1410 H   0  0  0  0  0  0  0  0  0  0  0  0
   18.2746   18.5417   23.5043 H   0  0  0  0  0  0  0  0  0  0  0  0
   18.5719   20.1664   24.9232 C   0  0  0  0  0  0  0  0  0  0  0  0
   19.1928   20.4077   25.7957 H   0  0  0  0  0  0  0  0  0  0  0  0
   17.5204   20.2265   25.2323 H   0  0  0  0  0  0  0  0  0  0  0  0
   18.7367   20.9373   24.1602 H   0  0  0  0  0  0  0  0  0  0  0  0
  1  2  1  0  0  0  0
  1  3  1  0  0  0  0
  1  4  1  0  0  0  0
  1  5  1  0  0  0  0
  5  6  1  0  0  0  0
  5  7  1  0  0  0  0
  5  8  1  0  0  0  0
  8  9  1  0  0  0  0
  8 10  1  0  0  0  0
  8 11  1  0  0  0  0
 11 12  1  0  0  0  0
 11 13  1  0  0  0  0
 11 14  1  0  0  0  0
 14 15  1  0  0  0  0
 14 16  1  0  0  0  0
 14 17  1  0  0  0  0
 17 18  1  0  0  0  0
 17 19  1  0  0  0  0
 17 20  1  0  0  0  0
 20 21  1  0  0  0  0
 20 22  1  0  0  0  0
 20 23  1  0  0  0  0
M  END
> <VConfSearch Rank>
604

> <Conf_Id>
26

> <Delta U+W>
1.076

> <U+W>
-7.306

> <U>
48.641

> <W>
-55.947

> <W(PB)>
-58.031

> <W(SA)>
2.084

> <Valence>
2.922

> <Coulomb>
45.269

> <VdW>
0.449

> <VdW6>
-7.045

> <VdW12>
7.494

> <Bond>
0.220

> <Angle>
1.205

> <Pdih>
1.497

> <Idih>
0.000

> <Tether>
0.000

$$$$
VeraChem MOL file


 23 22  0  0  0  0  0  0  0  0999 V2000     
   22.8014   19.7336   22.0233 N   0  3  0  0  0  0  0  0  0  0  0  0
   23.2008   20.4508   22.6371 H   0  0  0  0  0  0  0  0  0  0  0  0
   23.3001   19.7956   21.1292 H   0  0  0  0  0  0  0  0  0  0  0  0
   23.0343   18.8229   22.4321 H   0  0  0  0  0  0  0  0  0  0  0  0
   21.3068   19.9092   21.8474 C   0  0  0  0  0  0  0  0  0  0  0  0
   20.9558   19.1337   21.1615 H   0  0  0  0  0  0  0  0  0  0  0  0
   21.1332   20.8837   21.3831 H   0  0  0  0  0  0  0  0  0  0  0  0
   20.5280   19.8210   23.1731 C   0  0  0  0  0  0  0  0  0  0  0  0
   20.7119   18.8481   23.6465 H   0  0  0  0  0  0  0  0  0  0  0  0
   20.9136   20.5793   23.8674 H   0  0  0  0  0  0  0  0  0  0  0  0
   19.0060   20.0408   22.9879 C   0  0  0  0  0  0  0  0  0  0  0  0
   18.8369   21.0647   22.6269 H   0  0  0  0  0  0  0  0  0  0  0  0
   18.5137   19.9880   23.9682 H   0  0  0  0  0  0  0  0  0  0  0  0
   18.3192   19.0510   22.0084 C   0  0  0  0  0  0  0  0  0  0  0  0
   17.2470   19.2870   21.9663 H   0  0  0  0  0  0  0  0  0  0  0  0
   18.6984   19.2216   20.9918 H   0  0  0  0  0  0  0  0  0  0  0  0
   18.4872   17.5511   22.3610 C   0  0  0  0  0  0  0  0  0  0  0  0
   19.5459   17.2643   22.3064 H   0  0  0  0  0  0  0  0  0  0  0  0
   17.9737   16.9521   21.5960 H   0  0  0  0  0  0  0  0  0  0  0  0
   17.9169   17.1801   23.7487 C   0  0  0  0  0  0  0  0  0  0  0  0
   18.4725   17.6723   24.5566 H   0  0  0  0  0  0  0  0  0  0  0  0
   17.9824   16.0970   23.9144 H   0  0  0  0  0  0  0  0  0  0  0  0
   16.8613   17.4694   23.8313 H   0  0  0  0  0  0  0  0  0  0  0  0
  1  2  1  0  0  0  0
  1  3  1  0  0  0  0
  1  4  1  0  0  0  0
  1  5  1  0  0  0  0
  5  6  1  0  0  0  0
  5  7  1  0  0  0  0
  5  8  1  0  0  0  0
  8  9  1  0  0  0  0
  8 10  1  0  0  0  0
  8 11  1  0  0  0  0
 11 12  1  0  0  0  0
 11 13  1  0  0  0  0
 11 14  1  0  0  0  0
 14 15  1  0  0  0  0
 14 16  1  0  0  0  0
 14 17  1  0  0  0  0
 17 18  1  0  0  0  0
 17 19  1  0  0  0  0
 17 20  1  0  0  0  0
 20 21  1  0  0  0  0
 20 22  1  0  0  0  0
 20 23  1  0  0  0  0
M  END
> <VConfSearch Rank>
605

> <Conf_Id>
90

> <Delta U+W>
1.131

> <U+W>
-7.251

> <U>
48.641

> <W>
-55.892

> <W(PB)>
-57.962

> <W(SA)>
2.070

> <Valence>
2.922

> <Coulomb>
45.269

> <VdW>
0.450

> <VdW6>
-7.045

> <VdW12>
7.495

> <Bond>
0.220

> <Angle>
1.205

> <Pdih>
1.497

> <Idih>
0.000

> <Tether>
0.000

$$$$
VeraChem MOL file


 23 22  0  0  0  0  0  0  0  0999 V2000     
   19.0563   20.5856   24.5212 N   0  3  0  0  0  0  0  0  0  0  0  0
   18.3071   21.2710   24.6655 H   0  0  0  0  0  0  0  0  0  0  0  0
   19.5365   20.8424   23.6533 H   0  0  0  0  0  0  0  0  0  0  0  0
   19.7263   20.7090   25.2870 H   0  0  0  0  0  0  0  0  0  0  0  0
   18.5203   19.1686   24.4652 C   0  0  0  0  0  0  0  0  0  0  0  0
   17.7926   19.1135   23.6514 H   0  0  0  0  0  0  0  0  0  0  0  0
   17.9943   18.9742   25.4038 H   0  0  0  0  0  0  0  0  0  0  0  0
   19.6136   18.1001   24.2604 C   0  0  0  0  0  0  0  0  0  0  0  0
   20.3119   18.1331   25.1072 H   0  0  0  0  0  0  0  0  0  0  0  0
   19.1452   17.1073   24.2890 H   0  0  0  0  0  0  0  0  0  0  0  0
   20.4048   18.2541   22.9372 C   0  0  0  0  0  0  0  0  0  0  0  0
   21.1650   17.4624   22.8899 H   0  0  0  0  0  0  0  0  0  0  0  0
   20.9532   19.2045   22.9472 H   0  0  0  0  0  0  0  0  0  0  0  0
   19.5045   18.1696   21.6787 C   0  0  0  0  0  0  0  0  0  0  0  0
   18.9016   17.2525   21.7304 H   0  0  0  0  0  0  0  0  0  0  0  0
   18.7939   19.0068   21.6640 H   0  0  0  0  0  0  0  0  0  0  0  0
   20.3029   18.1589   20.3529 C   0  0  0  0  0  0  0  0  0  0  0  0
   19.6041   17.9902   19.5216 H   0  0  0  0  0  0  0  0  0  0  0  0
   21.0001   17.3094   20.3451 H   0  0  0  0  0  0  0  0  0  0  0  0
   21.0784   19.4705   20.0932 C   0  0  0  0  0  0  0  0  0  0  0  0
   20.4072   20.3387   20.1222 H   0  0  0  0  0  0  0  0  0  0  0  0
   21.5527   19.4465   19.1036 H   0  0  0  0  0  0  0  0  0  0  0  0
   21.8720   19.6236   20.8349 H   0  0  0  0  0  0  0  0  0  0  0  0
  1  2  1  0  0  0  0
  1  3  1  0  0  0  0
  1  4  1  0  0  0  0
  1  5  1  0  0  0  0
  5  6  1  0  0  0  0
  5  7  1  0  0  0  0
  5  8  1  0  0  0  0
  8  9  1  0  0  0  0
  8 10  1  0  0  0  0
  8 11  1  0  0  0  0
 11 12  1  0  0  0  0
 11 13  1  0  0  0  0
 11 14  1  0  0  0  0
 14 15  1  0  0  0  0
 14 16  1  0  0  0  0
 14 17  1  0  0  0  0
 17 18  1  0  0  0  0
 17 19  1  0  0  0  0
 17 20  1  0  0  0  0
 20 21  1  0  0  0  0
 20 22  1  0  0  0  0
 20 23  1  0  0  0  0
M  END
> <VConfSearch Rank>
606

> <Conf_Id>
85

> <Delta U+W>
1.193

> <U+W>
-7.189

> <U>
48.775

> <W>
-55.965

> <W(PB)>
-58.038

> <W(SA)>
2.073

> <Valence>
2.602

> <Coulomb>
45.581

> <VdW>
0.592

> <VdW6>
-6.616

> <VdW12>
7.208

> <Bond>
0.196

> <Angle>
0.832

> <Pdih>
1.574

> <Idih>
0.000

> <Tether>
0.000

$$$$
VeraChem MOL file


 23 22  0  0  0  0  0  0  0  0999 V2000     
   19.7979   20.8186   23.3981 N   0  3  0  0  0  0  0  0  0  0  0  0
   19.6078   20.4393   22.4650 H   0  0  0  0  0  0  0  0  0  0  0  0
   20.4505   21.6019   23.2845 H   0  0  0  0  0  0  0  0  0  0  0  0
   18.9199   21.2106   23.7538 H   0  0  0  0  0  0  0  0  0  0  0  0
   20.3524   19.7536   24.3243 C   0  0  0  0  0  0  0  0  0  0  0  0
   20.5266   20.2314   25.2922 H   0  0  0  0  0  0  0  0  0  0  0  0
   21.3166   19.4172   23.9338 H   0  0  0  0  0  0  0  0  0  0  0  0
   19.4159   18.5441   24.5213 C   0  0  0  0  0  0  0  0  0  0  0  0
   19.6950   18.0561   25.4645 H   0  0  0  0  0  0  0  0  0  0  0  0
   18.3838   18.8927   24.6598 H   0  0  0  0  0  0  0  0  0  0  0  0
   19.4723   17.4730   23.3990 C   0  0  0  0  0  0  0  0  0  0  0  0
   18.8044   16.6521   23.6948 H   0  0  0  0  0  0  0  0  0  0  0  0
   20.4773   17.0310   23.3526 H   0  0  0  0  0  0  0  0  0  0  0  0
   19.0384   17.9618   21.9933 C   0  0  0  0  0  0  0  0  0  0  0  0
   18.5052   17.1439   21.4888 H   0  0  0  0  0  0  0  0  0  0  0  0
   18.3092   18.7778   22.0839 H   0  0  0  0  0  0  0  0  0  0  0  0
   20.2309   18.3754   21.0967 C   0  0  0  0  0  0  0  0  0  0  0  0
   20.8511   17.4920   20.8890 H   0  0  0  0  0  0  0  0  0  0  0  0
   20.8848   19.0885   21.6127 H   0  0  0  0  0  0  0  0  0  0  0  0
   19.7561   18.9866   19.7615 C   0  0  0  0  0  0  0  0  0  0  0  0
   19.1416   18.2722   19.1981 H   0  0  0  0  0  0  0  0  0  0  0  0
   20.6141   19.2597   19.1336 H   0  0  0  0  0  0  0  0  0  0  0  0
   19.1590   19.8924   19.9279 H   0  0  0  0  0  0  0  0  0  0  0  0
  1  2  1  0  0  0  0
  1  3  1  0  0  0  0
  1  4  1  0  0  0  0
  1  5  1  0  0  0  0
  5  6  1  0  0  0  0
  5  7  1  0  0  0  0
  5  8  1  0  0  0  0
  8  9  1  0  0  0  0
  8 10  1  0  0  0  0
  8 11  1  0  0  0  0
 11 12  1  0  0  0  0
 11 13  1  0  0  0  0
 11 14  1  0  0  0  0
 14 15  1  0  0  0  0
 14 16  1  0  0  0  0
 14 17  1  0  0  0  0
 17 18  1  0  0  0  0
 17 19  1  0  0  0  0
 17 20  1  0  0  0  0
 20 21  1  0  0  0  0
 20 22  1  0  0  0  0
 20 23  1  0  0  0  0
M  END
> <VConfSearch Rank>
607

> <Conf_Id>
82

> <Delta U+W>
5.994

> <U+W>
-2.388

> <U>
52.836

> <W>
-55.224

> <W(PB)>
-57.261

> <W(SA)>
2.037

> <Valence>
5.785

> <Coulomb>
46.744

> <VdW>
0.307

> <VdW6>
-7.672

> <VdW12>
7.979

> <Bond>
0.217

> <Angle>
1.470

> <Pdih>
4.098

> <Idih>
0.000

> <Tether>
0.000

$$$$
VeraChem MOL file


 23 22  0  0  0  0  0  0  0  0999 V2000     
   19.6191   18.9666   24.6159 N   0  3  0  0  0  0  0  0  0  0  0  0
   18.9487   19.6295   25.0185 H   0  0  0  0  0  0  0  0  0  0  0  0
   19.7878   18.2446   25.3248 H   0  0  0  0  0  0  0  0  0  0  0  0
   19.1604   18.5135   23.8190 H   0  0  0  0  0  0  0  0  0  0  0  0
   20.9038   19.6538   24.1955 C   0  0  0  0  0  0  0  0  0  0  0  0
   21.6048   18.8962   23.8354 H   0  0  0  0  0  0  0  0  0  0  0  0
   21.3298   20.1109   25.0928 H   0  0  0  0  0  0  0  0  0  0  0  0
   20.7101   20.7420   23.1199 C   0  0  0  0  0  0  0  0  0  0  0  0
   19.8292   21.3511   23.3627 H   0  0  0  0  0  0  0  0  0  0  0  0
   21.5690   21.4239   23.1765 H   0  0  0  0  0  0  0  0  0  0  0  0
   20.6142   20.2212   21.6605 C   0  0  0  0  0  0  0  0  0  0  0  0
   21.5530   19.7258   21.3767 H   0  0  0  0  0  0  0  0  0  0  0  0
   20.5353   21.0985   21.0034 H   0  0  0  0  0  0  0  0  0  0  0  0
   19.4093   19.2913   21.3661 C   0  0  0  0  0  0  0  0  0  0  0  0
   18.5702   19.5359   22.0308 H   0  0  0  0  0  0  0  0  0  0  0  0
   19.0498   19.4979   20.3483 H   0  0  0  0  0  0  0  0  0  0  0  0
   19.7663   17.7870   21.4474 C   0  0  0  0  0  0  0  0  0  0  0  0
   20.2662   17.5498   22.3940 H   0  0  0  0  0  0  0  0  0  0  0  0
   20.4876   17.5427   20.6549 H   0  0  0  0  0  0  0  0  0  0  0  0
   18.5171   16.8947   21.2883 C   0  0  0  0  0  0  0  0  0  0  0  0
   17.7857   17.0874   22.0836 H   0  0  0  0  0  0  0  0  0  0  0  0
   18.7914   15.8326   21.3334 H   0  0  0  0  0  0  0  0  0  0  0  0
   18.0258   17.0738   20.3229 H   0  0  0  0  0  0  0  0  0  0  0  0
  1  2  1  0  0  0  0
  1  3  1  0  0  0  0
  1  4  1  0  0  0  0
  1  5  1  0  0  0  0
  5  6  1  0  0  0  0
  5  7  1  0  0  0  0
  5  8  1  0  0  0  0
  8  9  1  0  0  0  0
  8 10  1  0  0  0  0
  8 11  1  0  0  0  0
 11 12  1  0  0  0  0
 11 13  1  0  0  0  0
 11 14  1  0  0  0  0
 14 15  1  0  0  0  0
 14 16  1  0  0  0  0
 14 17  1  0  0  0  0
 17 18  1  0  0  0  0
 17 19  1  0  0  0  0
 17 20  1  0  0  0  0
 20 21  1  0  0  0  0
 20 22  1  0  0  0  0
 20 23  1  0  0  0  0
M  END
> <VConfSearch Rank>
608

> <Conf_Id>
5

> <Delta U+W>
6.087

> <U+W>
-2.295

> <U>
52.836

> <W>
-55.131

> <W(PB)>
-57.202

> <W(SA)>
2.071

> <Valence>
5.785

> <Coulomb>
46.744

> <VdW>
0.307

> <VdW6>
-7.672

> <VdW12>
7.980

> <Bond>
0.217

> <Angle>
1.470

> <Pdih>
4.098

> <Idih>
0.000

> <Tether>
0.000

$$$$
VeraChem MOL file


 23 22  0  0  0  0  0  0  0  0999 V2000     
   18.3974   21.1639   19.7330 N   0  3  0  0  0  0  0  0  0  0  0  0
   17.6225   21.5779   20.2612 H   0  0  0  0  0  0  0  0  0  0  0  0
   18.0786   21.0675   18.7628 H   0  0  0  0  0  0  0  0  0  0  0  0
   19.1598   21.8492   19.7290 H   0  0  0  0  0  0  0  0  0  0  0  0
   18.8340   19.8355   20.3166 C   0  0  0  0  0  0  0  0  0  0  0  0
   19.6380   19.4396   19.6902 H   0  0  0  0  0  0  0  0  0  0  0  0
   17.9856   19.1479   20.2622 H   0  0  0  0  0  0  0  0  0  0  0  0
   19.3186   19.9460   21.7731 C   0  0  0  0  0  0  0  0  0  0  0  0
   20.1600   20.6499   21.8254 H   0  0  0  0  0  0  0  0  0  0  0  0
   18.5135   20.3593   22.3953 H   0  0  0  0  0  0  0  0  0  0  0  0
   19.7538   18.5725   22.3300 C   0  0  0  0  0  0  0  0  0  0  0  0
   20.5556   18.1600   21.7018 H   0  0  0  0  0  0  0  0  0  0  0  0
   18.9109   17.8698   22.2711 H   0  0  0  0  0  0  0  0  0  0  0  0
   20.2427   18.6718   23.7930 C   0  0  0  0  0  0  0  0  0  0  0  0
   21.0856   19.3743   23.8520 H   0  0  0  0  0  0  0  0  0  0  0  0
   19.4410   19.0842   24.4213 H   0  0  0  0  0  0  0  0  0  0  0  0
   20.6777   17.2979   24.3497 C   0  0  0  0  0  0  0  0  0  0  0  0
   21.4814   16.8822   23.7258 H   0  0  0  0  0  0  0  0  0  0  0  0
   19.8370   16.5921   24.2951 H   0  0  0  0  0  0  0  0  0  0  0  0
   21.1652   17.4011   25.8106 C   0  0  0  0  0  0  0  0  0  0  0  0
   21.4697   16.4163   26.1881 H   0  0  0  0  0  0  0  0  0  0  0  0
   20.3711   17.7822   26.4658 H   0  0  0  0  0  0  0  0  0  0  0  0
   22.0284   18.0746   25.8921 H   0  0  0  0  0  0  0  0  0  0  0  0
  1  2  1  0  0  0  0
  1  3  1  0  0  0  0
  1  4  1  0  0  0  0
  1  5  1  0  0  0  0
  5  6  1  0  0  0  0
  5  7  1  0  0  0  0
  5  8  1  0  0  0  0
  8  9  1  0  0  0  0
  8 10  1  0  0  0  0
  8 11  1  0  0  0  0
 11 12  1  0  0  0  0
 11 13  1  0  0  0  0
 11 14  1  0  0  0  0
 14 15  1  0  0  0  0
 14 16  1  0  0  0  0
 14 17  1  0  0  0  0
 17 18  1  0  0  0  0
 17 19  1  0  0  0  0
 17 20  1  0  0  0  0
 20 21  1  0  0  0  0
 20 22  1  0  0  0  0
 20 23  1  0  0  0  0
M  END
> <VConfSearch Rank>
609

> <Conf_Id>
40

> <Delta U+W>
0.000

> <U+W>
-8.382

> <U>
46.604

> <W>
-54.986

> <W(PB)>
-57.162

> <W(SA)>
2.176

> <Valence>
1.727

> <Coulomb>
44.434

> <VdW>
0.443

> <VdW6>
-4.623

> <VdW12>
5.066

> <Bond>
0.112

> <Angle>
0.386

> <Pdih>
1.228

> <Idih>
0.000

> <Tether>
0.000

$$$$
VeraChem MOL file


 23 22  0  0  0  0  0  0  0  0999 V2000     
   21.8143   18.5755   25.5054 N   0  3  0  0  0  0  0  0  0  0  0  0
   22.3065   17.6774   25.4590 H   0  0  0  0  0  0  0  0  0  0  0  0
   21.0524   18.4670   26.1826 H   0  0  0  0  0  0  0  0  0  0  0  0
   22.4717   19.2552   25.9027 H   0  0  0  0  0  0  0  0  0  0  0  0
   21.3053   19.0122   24.1467 C   0  0  0  0  0  0  0  0  0  0  0  0
   22.1683   19.1354   23.4867 H   0  0  0  0  0  0  0  0  0  0  0  0
   20.8224   19.9852   24.2672 H   0  0  0  0  0  0  0  0  0  0  0  0
   20.3149   18.0107   23.5230 C   0  0  0  0  0  0  0  0  0  0  0  0
   20.7982   17.0271   23.4524 H   0  0  0  0  0  0  0  0  0  0  0  0
   19.4474   17.8875   24.1849 H   0  0  0  0  0  0  0  0  0  0  0  0
   19.8378   18.4364   22.1142 C   0  0  0  0  0  0  0  0  0  0  0  0
   19.2318   17.6220   21.6964 H   0  0  0  0  0  0  0  0  0  0  0  0
   20.7071   18.5495   21.4517 H   0  0  0  0  0  0  0  0  0  0  0  0
   19.0115   19.7478   22.1224 C   0  0  0  0  0  0  0  0  0  0  0  0
   18.1312   19.6271   22.7687 H   0  0  0  0  0  0  0  0  0  0  0  0
   19.6097   20.5562   22.5630 H   0  0  0  0  0  0  0  0  0  0  0  0
   18.5582   20.1989   20.7126 C   0  0  0  0  0  0  0  0  0  0  0  0
   19.4358   20.3315   20.0644 H   0  0  0  0  0  0  0  0  0  0  0  0
   18.0854   21.1876   20.7948 H   0  0  0  0  0  0  0  0  0  0  0  0
   17.5602   19.2258   20.0446 C   0  0  0  0  0  0  0  0  0  0  0  0
   18.0258   18.2572   19.8246 H   0  0  0  0  0  0  0  0  0  0  0  0
   17.1980   19.6398   19.0947 H   0  0  0  0  0  0  0  0  0  0  0  0
   16.6882   19.0507   20.6881 H   0  0  0  0  0  0  0  0  0  0  0  0
  1  2  1  0  0  0  0
  1  3  1  0  0  0  0
  1  4  1  0  0  0  0
  1  5  1  0  0  0  0
  5  6  1  0  0  0  0
  5  7  1  0  0  0  0
  5  8  1  0  0  0  0
  8  9  1  0  0  0  0
  8 10  1  0  0  0  0
  8 11  1  0  0  0  0
 11 12  1  0  0  0  0
 11 13  1  0  0  0  0
 11 14  1  0  0  0  0
 14 15  1  0  0  0  0
 14 16  1  0  0  0  0
 14 17  1  0  0  0  0
 17 18  1  0  0  0  0
 17 19  1  0  0  0  0
 17 20  1  0  0  0  0
 20 21  1  0  0  0  0
 20 22  1  0  0  0  0
 20 23  1  0  0  0  0
M  END
> <VConfSearch Rank>
610

> <Conf_Id>
65

> <Delta U+W>
1.004

> <U+W>
-7.378

> <U>
48.047

> <W>
-55.425

> <W(PB)>
-57.542

> <W(SA)>
2.116

> <Valence>
2.583

> <Coulomb>
44.791

> <VdW>
0.673

> <VdW6>
-5.788

> <VdW12>
6.462

> <Bond>
0.177

> <Angle>
0.787

> <Pdih>
1.619

> <Idih>
0.000

> <Tether>
0.000

$$$$
VeraChem MOL file


 23 22  0  0  0  0  0  0  0  0999 V2000     
   16.9844   16.7817   22.4701 N   0  3  0  0  0  0  0  0  0  0  0  0
   17.1508   16.0502   21.7715 H   0  0  0  0  0  0  0  0  0  0  0  0
   15.9933   17.0371   22.4036 H   0  0  0  0  0  0  0  0  0  0  0  0
   17.1209   16.3548   23.3920 H   0  0  0  0  0  0  0  0  0  0  0  0
   17.8896   17.9788   22.2617 C   0  0  0  0  0  0  0  0  0  0  0  0
   17.6361   18.7258   23.0183 H   0  0  0  0  0  0  0  0  0  0  0  0
   17.6718   18.3992   21.2762 H   0  0  0  0  0  0  0  0  0  0  0  0
   19.3864   17.6269   22.3555 C   0  0  0  0  0  0  0  0  0  0  0  0
   19.6060   17.2058   23.3456 H   0  0  0  0  0  0  0  0  0  0  0  0
   19.6155   16.8420   21.6225 H   0  0  0  0  0  0  0  0  0  0  0  0
   20.3066   18.8424   22.0916 C   0  0  0  0  0  0  0  0  0  0  0  0
   20.0914   19.2555   21.0964 H   0  0  0  0  0  0  0  0  0  0  0  0
   21.3448   18.4871   22.0634 H   0  0  0  0  0  0  0  0  0  0  0  0
   20.1667   19.9548   23.1618 C   0  0  0  0  0  0  0  0  0  0  0  0
   19.1229   20.2924   23.2067 H   0  0  0  0  0  0  0  0  0  0  0  0
   20.4022   19.5461   24.1541 H   0  0  0  0  0  0  0  0  0  0  0  0
   21.0597   21.1893   22.8874 C   0  0  0  0  0  0  0  0  0  0  0  0
   20.8144   21.9707   23.6203 H   0  0  0  0  0  0  0  0  0  0  0  0
   20.8210   21.6088   21.9001 H   0  0  0  0  0  0  0  0  0  0  0  0
   22.5732   20.8870   22.9724 C   0  0  0  0  0  0  0  0  0  0  0  0
   22.8942   20.2041   22.1762 H   0  0  0  0  0  0  0  0  0  0  0  0
   22.8323   20.4357   23.9389 H   0  0  0  0  0  0  0  0  0  0  0  0
   23.1556   21.8115   22.8673 H   0  0  0  0  0  0  0  0  0  0  0  0
  1  2  1  0  0  0  0
  1  3  1  0  0  0  0
  1  4  1  0  0  0  0
  1  5  1  0  0  0  0
  5  6  1  0  0  0  0
  5  7  1  0  0  0  0
  5  8  1  0  0  0  0
  8  9  1  0  0  0  0
  8 10  1  0  0  0  0
  8 11  1  0  0  0  0
 11 12  1  0  0  0  0
 11 13  1  0  0  0  0
 11 14  1  0  0  0  0
 14 15  1  0  0  0  0
 14 16  1  0  0  0  0
 14 17  1  0  0  0  0
 17 18  1  0  0  0  0
 17 19  1  0  0  0  0
 17 20  1  0  0  0  0
 20 21  1  0  0  0  0
 20 22  1  0  0  0  0
 20 23  1  0  0  0  0
M  END
> <VConfSearch Rank>
611

> <Conf_Id>
92

> <Delta U+W>
0.973

> <U+W>
-7.409

> <U>
48.047

> <W>
-55.456

> <W(PB)>
-57.595

> <W(SA)>
2.138

> <Valence>
2.583

> <Coulomb>
44.791

> <VdW>
0.674

> <VdW6>
-5.789

> <VdW12>
6.462

> <Bond>
0.177

> <Angle>
0.787

> <Pdih>
1.619

> <Idih>
0.000

> <Tether>
0.000

$$$$
VeraChem MOL file


 23 22  0  0  0  0  0  0  0  0999 V2000     
   18.5428   21.6695   24.5398 N   0  3  0  0  0  0  0  0  0  0  0  0
   18.3176   22.5735   24.1106 H   0  0  0  0  0  0  0  0  0  0  0  0
   19.0527   21.8700   25.4061 H   0  0  0  0  0  0  0  0  0  0  0  0
   17.6527   21.2367   24.8071 H   0  0  0  0  0  0  0  0  0  0  0  0
   19.3428   20.7859   23.6044 C   0  0  0  0  0  0  0  0  0  0  0  0
   20.2601   21.3185   23.3390 H   0  0  0  0  0  0  0  0  0  0  0  0
   18.7539   20.6404   22.6952 H   0  0  0  0  0  0  0  0  0  0  0  0
   19.6971   19.4194   24.2209 C   0  0  0  0  0  0  0  0  0  0  0  0
   20.2497   19.5803   25.1561 H   0  0  0  0  0  0  0  0  0  0  0  0
   18.7758   18.8848   24.4882 H   0  0  0  0  0  0  0  0  0  0  0  0
   20.5526   18.5413   23.2773 C   0  0  0  0  0  0  0  0  0  0  0  0
   20.8439   17.6279   23.8142 H   0  0  0  0  0  0  0  0  0  0  0  0
   21.4853   19.0681   23.0322 H   0  0  0  0  0  0  0  0  0  0  0  0
   19.8146   18.1517   21.9738 C   0  0  0  0  0  0  0  0  0  0  0  0
   18.8668   17.6547   22.2229 H   0  0  0  0  0  0  0  0  0  0  0  0
   19.5602   19.0542   21.4021 H   0  0  0  0  0  0  0  0  0  0  0  0
   20.6681   17.2161   21.0891 C   0  0  0  0  0  0  0  0  0  0  0  0
   20.9219   16.3048   21.6487 H   0  0  0  0  0  0  0  0  0  0  0  0
   21.6181   17.7082   20.8374 H   0  0  0  0  0  0  0  0  0  0  0  0
   19.9318   16.8293   19.7888 C   0  0  0  0  0  0  0  0  0  0  0  0
   18.9926   16.3047   20.0081 H   0  0  0  0  0  0  0  0  0  0  0  0
   20.5531   16.1648   19.1744 H   0  0  0  0  0  0  0  0  0  0  0  0
   19.6951   17.7182   19.1896 H   0  0  0  0  0  0  0  0  0  0  0  0
  1  2  1  0  0  0  0
  1  3  1  0  0  0  0
  1  4  1  0  0  0  0
  1  5  1  0  0  0  0
  5  6  1  0  0  0  0
  5  7  1  0  0  0  0
  5  8  1  0  0  0  0
  8  9  1  0  0  0  0
  8 10  1  0  0  0  0
  8 11  1  0  0  0  0
 11 12  1  0  0  0  0
 11 13  1  0  0  0  0
 11 14  1  0  0  0  0
 14 15  1  0  0  0  0
 14 16  1  0  0  0  0
 14 17  1  0  0  0  0
 17 18  1  0  0  0  0
 17 19  1  0  0  0  0
 17 20  1  0  0  0  0
 20 21  1  0  0  0  0
 20 22  1  0  0  0  0
 20 23  1  0  0  0  0
M  END
> <VConfSearch Rank>
612

> <Conf_Id>
42

> <Delta U+W>
0.365

> <U+W>
-8.017

> <U>
47.375

> <W>
-55.392

> <W(PB)>
-57.543

> <W(SA)>
2.152

> <Valence>
2.032

> <Coulomb>
44.843

> <VdW>
0.499

> <VdW6>
-5.218

> <VdW12>
5.717

> <Bond>
0.135

> <Angle>
0.514

> <Pdih>
1.383

> <Idih>
0.000

> <Tether>
0.000

$$$$
VeraChem MOL file


 23 22  0  0  0  0  0  0  0  0999 V2000     
   16.7229   18.9817   23.5636 N   0  3  0  0  0  0  0  0  0  0  0  0
   16.6247   17.9689   23.4407 H   0  0  0  0  0  0  0  0  0  0  0  0
   15.7749   19.3687   23.6233 H   0  0  0  0  0  0  0  0  0  0  0  0
   17.1661   19.1347   24.4744 H   0  0  0  0  0  0  0  0  0  0  0  0
   17.5179   19.6120   22.4366 C   0  0  0  0  0  0  0  0  0  0  0  0
   17.5648   20.6897   22.6145 H   0  0  0  0  0  0  0  0  0  0  0  0
   16.9645   19.4442   21.5085 H   0  0  0  0  0  0  0  0  0  0  0  0
   18.9443   19.0478   22.2880 C   0  0  0  0  0  0  0  0  0  0  0  0
   18.8958   17.9613   22.1370 H   0  0  0  0  0  0  0  0  0  0  0  0
   19.3820   19.4784   21.3791 H   0  0  0  0  0  0  0  0  0  0  0  0
   19.8481   19.3784   23.5008 C   0  0  0  0  0  0  0  0  0  0  0  0
   19.3597   19.0390   24.4236 H   0  0  0  0  0  0  0  0  0  0  0  0
   19.9497   20.4687   23.5921 H   0  0  0  0  0  0  0  0  0  0  0  0
   21.2573   18.7335   23.4427 C   0  0  0  0  0  0  0  0  0  0  0  0
   21.7817   19.0026   24.3701 H   0  0  0  0  0  0  0  0  0  0  0  0
   21.1722   17.6382   23.4594 H   0  0  0  0  0  0  0  0  0  0  0  0
   22.1332   19.1853   22.2456 C   0  0  0  0  0  0  0  0  0  0  0  0
   23.1783   19.2469   22.5802 H   0  0  0  0  0  0  0  0  0  0  0  0
   21.8569   20.2015   21.9315 H   0  0  0  0  0  0  0  0  0  0  0  0
   22.0754   18.2153   21.0422 C   0  0  0  0  0  0  0  0  0  0  0  0
   22.4224   17.2143   21.3294 H   0  0  0  0  0  0  0  0  0  0  0  0
   22.7230   18.5715   20.2306 H   0  0  0  0  0  0  0  0  0  0  0  0
   21.0615   18.1172   20.6390 H   0  0  0  0  0  0  0  0  0  0  0  0
  1  2  1  0  0  0  0
  1  3  1  0  0  0  0
  1  4  1  0  0  0  0
  1  5  1  0  0  0  0
  5  6  1  0  0  0  0
  5  7  1  0  0  0  0
  5  8  1  0  0  0  0
  8  9  1  0  0  0  0
  8 10  1  0  0  0  0
  8 11  1  0  0  0  0
 11 12  1  0  0  0  0
 11 13  1  0  0  0  0
 11 14  1  0  0  0  0
 14 15  1  0  0  0  0
 14 16  1  0  0  0  0
 14 17  1  0  0  0  0
 17 18  1  0  0  0  0
 17 19  1  0  0  0  0
 17 20  1  0  0  0  0
 20 21  1  0  0  0  0
 20 22  1  0  0  0  0
 20 23  1  0  0  0  0
M  END
> <VConfSearch Rank>
613

> <Conf_Id>
3

> <Delta U+W>
3.283

> <U+W>
-5.099

> <U>
50.701

> <W>
-55.800

> <W(PB)>
-57.867

> <W(SA)>
2.067

> <Valence>
4.880

> <Coulomb>
45.095

> <VdW>
0.726

> <VdW6>
-6.620

> <VdW12>
7.346

> <Bond>
0.222

> <Angle>
1.260

> <Pdih>
3.398

> <Idih>
0.000

> <Tether>
0.000

$$$$
VeraChem MOL file


 23 22  0  0  0  0  0  0  0  0999 V2000     
   19.5558   17.9000   19.9284 N   0  3  0  0  0  0  0  0  0  0  0  0
   19.0043   18.4708   19.2798 H   0  0  0  0  0  0  0  0  0  0  0  0
   19.8936   17.0885   19.4000 H   0  0  0  0  0  0  0  0  0  0  0  0
   20.3784   18.4505   20.1927 H   0  0  0  0  0  0  0  0  0  0  0  0
   18.7466   17.4855   21.1415 C   0  0  0  0  0  0  0  0  0  0  0  0
   19.3800   16.8577   21.7733 H   0  0  0  0  0  0  0  0  0  0  0  0
   17.9094   16.8762   20.7905 H   0  0  0  0  0  0  0  0  0  0  0  0
   18.2048   18.6745   21.9613 C   0  0  0  0  0  0  0  0  0  0  0  0
   17.5300   19.2669   21.3291 H   0  0  0  0  0  0  0  0  0  0  0  0
   17.5895   18.2846   22.7830 H   0  0  0  0  0  0  0  0  0  0  0  0
   19.3045   19.5994   22.5416 C   0  0  0  0  0  0  0  0  0  0  0  0
   18.8101   20.4272   23.0663 H   0  0  0  0  0  0  0  0  0  0  0  0
   19.8792   20.0554   21.7247 H   0  0  0  0  0  0  0  0  0  0  0  0
   20.2647   18.8692   23.5148 C   0  0  0  0  0  0  0  0  0  0  0  0
   19.6911   18.4371   24.3463 H   0  0  0  0  0  0  0  0  0  0  0  0
   20.7415   18.0262   22.9977 H   0  0  0  0  0  0  0  0  0  0  0  0
   21.3820   19.7810   24.0777 C   0  0  0  0  0  0  0  0  0  0  0  0
   21.9663   20.2076   23.2505 H   0  0  0  0  0  0  0  0  0  0  0  0
   22.0801   19.1631   24.6597 H   0  0  0  0  0  0  0  0  0  0  0  0
   20.8535   20.9178   24.9819 C   0  0  0  0  0  0  0  0  0  0  0  0
   20.2378   20.5191   25.7986 H   0  0  0  0  0  0  0  0  0  0  0  0
   20.2500   21.6374   24.4153 H   0  0  0  0  0  0  0  0  0  0  0  0
   21.6888   21.4707   25.4310 H   0  0  0  0  0  0  0  0  0  0  0  0
  1  2  1  0  0  0  0
  1  3  1  0  0  0  0
  1  4  1  0  0  0  0
  1  5  1  0  0  0  0
  5  6  1  0  0  0  0
  5  7  1  0  0  0  0
  5  8  1  0  0  0  0
  8  9  1  0  0  0  0
  8 10  1  0  0  0  0
  8 11  1  0  0  0  0
 11 12  1  0  0  0  0
 11 13  1  0  0  0  0
 11 14  1  0  0  0  0
 14 15  1  0  0  0  0
 14 16  1  0  0  0  0
 14 17  1  0  0  0  0
 17 18  1  0  0  0  0
 17 19  1  0  0  0  0
 17 20  1  0  0  0  0
 20 21  1  0  0  0  0
 20 22  1  0  0  0  0
 20 23  1  0  0  0  0
M  END
> <VConfSearch Rank>
614

> <Conf_Id>
83

> <Delta U+W>
1.229

> <U+W>
-7.154

> <U>
48.727

> <W>
-55.880

> <W(PB)>
-57.960

> <W(SA)>
2.080

> <Valence>
2.671

> <Coulomb>
45.371

> <VdW>
0.684

> <VdW6>
-6.511

> <VdW12>
7.195

> <Bond>
0.203

> <Angle>
0.915

> <Pdih>
1.554

> <Idih>
0.000

> <Tether>
0.000

$$$$
VeraChem MOL file


 23 22  0  0  0  0  0  0  0  0999 V2000     
   20.5176   20.2859   25.0744 N   0  3  0  0  0  0  0  0  0  0  0  0
   20.0841   19.8650   25.9024 H   0  0  0  0  0  0  0  0  0  0  0  0
   19.7629   20.6773   24.5027 H   0  0  0  0  0  0  0  0  0  0  0  0
   21.0867   21.0736   25.4023 H   0  0  0  0  0  0  0  0  0  0  0  0
   21.3432   19.2791   24.2979 C   0  0  0  0  0  0  0  0  0  0  0  0
   22.1458   18.9306   24.9536 H   0  0  0  0  0  0  0  0  0  0  0  0
   21.8000   19.7965   23.4504 H   0  0  0  0  0  0  0  0  0  0  0  0
   20.5317   18.0674   23.7954 C   0  0  0  0  0  0  0  0  0  0  0  0
   21.2153   17.3685   23.2952 H   0  0  0  0  0  0  0  0  0  0  0  0
   20.1221   17.5279   24.6597 H   0  0  0  0  0  0  0  0  0  0  0  0
   19.3777   18.4331   22.8277 C   0  0  0  0  0  0  0  0  0  0  0  0
   18.6470   19.0716   23.3414 H   0  0  0  0  0  0  0  0  0  0  0  0
   18.8462   17.5085   22.5681 H   0  0  0  0  0  0  0  0  0  0  0  0
   19.8657   19.1311   21.5327 C   0  0  0  0  0  0  0  0  0  0  0  0
   20.4185   20.0434   21.7924 H   0  0  0  0  0  0  0  0  0  0  0  0
   20.5757   18.4791   21.0056 H   0  0  0  0  0  0  0  0  0  0  0  0
   18.7156   19.5234   20.5735 C   0  0  0  0  0  0  0  0  0  0  0  0
   19.1341   20.1117   19.7449 H   0  0  0  0  0  0  0  0  0  0  0  0
   18.0075   20.1847   21.0923 H   0  0  0  0  0  0  0  0  0  0  0  0
   17.9597   18.3091   19.9875 C   0  0  0  0  0  0  0  0  0  0  0  0
   18.6509   17.6153   19.4917 H   0  0  0  0  0  0  0  0  0  0  0  0
   17.2236   18.6383   19.2427 H   0  0  0  0  0  0  0  0  0  0  0  0
   17.4167   17.7575   20.7648 H   0  0  0  0  0  0  0  0  0  0  0  0
  1  2  1  0  0  0  0
  1  3  1  0  0  0  0
  1  4  1  0  0  0  0
  1  5  1  0  0  0  0
  5  6  1  0  0  0  0
  5  7  1  0  0  0  0
  5  8  1  0  0  0  0
  8  9  1  0  0  0  0
  8 10  1  0  0  0  0
  8 11  1  0  0  0  0
 11 12  1  0  0  0  0
 11 13  1  0  0  0  0
 11 14  1  0  0  0  0
 14 15  1  0  0  0  0
 14 16  1  0  0  0  0
 14 17  1  0  0  0  0
 17 18  1  0  0  0  0
 17 19  1  0  0  0  0
 17 20  1  0  0  0  0
 20 21  1  0  0  0  0
 20 22  1  0  0  0  0
 20 23  1  0  0  0  0
M  END
> <VConfSearch Rank>
615

> <Conf_Id>
50

> <Delta U+W>
1.252

> <U+W>
-7.130

> <U>
48.727

> <W>
-55.857

> <W(PB)>
-57.937

> <W(SA)>
2.080

> <Valence>
2.671

> <Coulomb>
45.371

> <VdW>
0.684

> <VdW6>
-6.511

> <VdW12>
7.196

> <Bond>
0.203

> <Angle>
0.915

> <Pdih>
1.554

> <Idih>
0.000

> <Tether>
0.000

$$$$
VeraChem MOL file


 23 22  0  0  0  0  0  0  0  0999 V2000     
   20.3727   19.9811   25.6176 N   0  3  0  0  0  0  0  0  0  0  0  0
   21.2720   19.5834   25.3303 H   0  0  0  0  0  0  0  0  0  0  0  0
   20.2606   19.7774   26.6165 H   0  0  0  0  0  0  0  0  0  0  0  0
   20.4487   20.9993   25.5272 H   0  0  0  0  0  0  0  0  0  0  0  0
   19.2242   19.4263   24.7977 C   0  0  0  0  0  0  0  0  0  0  0  0
   18.2994   19.8618   25.1859 H   0  0  0  0  0  0  0  0  0  0  0  0
   19.1845   18.3454   24.9571 H   0  0  0  0  0  0  0  0  0  0  0  0
   19.3350   19.7240   23.2898 C   0  0  0  0  0  0  0  0  0  0  0  0
   18.4137   19.3828   22.8046 H   0  0  0  0  0  0  0  0  0  0  0  0
   19.3798   20.8102   23.1353 H   0  0  0  0  0  0  0  0  0  0  0  0
   20.5676   19.0481   22.6367 C   0  0  0  0  0  0  0  0  0  0  0  0
   20.5816   17.9738   22.8669 H   0  0  0  0  0  0  0  0  0  0  0  0
   21.4760   19.4683   23.0887 H   0  0  0  0  0  0  0  0  0  0  0  0
   20.6468   19.2639   21.1027 C   0  0  0  0  0  0  0  0  0  0  0  0
   20.1755   20.2172   20.8264 H   0  0  0  0  0  0  0  0  0  0  0  0
   21.7052   19.3664   20.8256 H   0  0  0  0  0  0  0  0  0  0  0  0
   20.0534   18.1100   20.2543 C   0  0  0  0  0  0  0  0  0  0  0  0
   20.6002   17.1800   20.4638 H   0  0  0  0  0  0  0  0  0  0  0  0
   20.2284   18.3326   19.1924 H   0  0  0  0  0  0  0  0  0  0  0  0
   18.5421   17.8745   20.4679 C   0  0  0  0  0  0  0  0  0  0  0  0
   17.9722   18.8013   20.3230 H   0  0  0  0  0  0  0  0  0  0  0  0
   18.3368   17.4906   21.4748 H   0  0  0  0  0  0  0  0  0  0  0  0
   18.1648   17.1331   19.7518 H   0  0  0  0  0  0  0  0  0  0  0  0
  1  2  1  0  0  0  0
  1  3  1  0  0  0  0
  1  4  1  0  0  0  0
  1  5  1  0  0  0  0
  5  6  1  0  0  0  0
  5  7  1  0  0  0  0
  5  8  1  0  0  0  0
  8  9  1  0  0  0  0
  8 10  1  0  0  0  0
  8 11  1  0  0  0  0
 11 12  1  0  0  0  0
 11 13  1  0  0  0  0
 11 14  1  0  0  0  0
 14 15  1  0  0  0  0
 14 16  1  0  0  0  0
 14 17  1  0  0  0  0
 17 18  1  0  0  0  0
 17 19  1  0  0  0  0
 17 20  1  0  0  0  0
 20 21  1  0  0  0  0
 20 22  1  0  0  0  0
 20 23  1  0  0  0  0
M  END
> <VConfSearch Rank>
616

> <Conf_Id>
55

> <Delta U+W>
3.232

> <U+W>
-5.150

> <U>
50.625

> <W>
-55.776

> <W(PB)>
-57.839

> <W(SA)>
2.064

> <Valence>
4.837

> <Coulomb>
45.097

> <VdW>
0.692

> <VdW6>
-6.655

> <VdW12>
7.347

> <Bond>
0.223

> <Angle>
1.167

> <Pdih>
3.447

> <Idih>
0.000

> <Tether>
0.000

$$$$
VeraChem MOL file


 23 22  0  0  0  0  0  0  0  0999 V2000     
   17.7485   21.0470   23.7583 N   0  3  0  0  0  0  0  0  0  0  0  0
   16.8911   20.7366   24.2267 H   0  0  0  0  0  0  0  0  0  0  0  0
   17.5151   21.9064   23.2494 H   0  0  0  0  0  0  0  0  0  0  0  0
   18.4156   21.3067   24.4919 H   0  0  0  0  0  0  0  0  0  0  0  0
   18.3068   19.9811   22.8375 C   0  0  0  0  0  0  0  0  0  0  0  0
   19.1919   20.3928   22.3491 H   0  0  0  0  0  0  0  0  0  0  0  0
   17.5577   19.7759   22.0680 H   0  0  0  0  0  0  0  0  0  0  0  0
   18.6606   18.6740   23.5738 C   0  0  0  0  0  0  0  0  0  0  0  0
   19.3781   18.8723   24.3811 H   0  0  0  0  0  0  0  0  0  0  0  0
   17.7485   18.2972   24.0555 H   0  0  0  0  0  0  0  0  0  0  0  0
   19.2102   17.5741   22.6306 C   0  0  0  0  0  0  0  0  0  0  0  0
   18.6805   17.6044   21.6682 H   0  0  0  0  0  0  0  0  0  0  0  0
   18.9705   16.5961   23.0705 H   0  0  0  0  0  0  0  0  0  0  0  0
   20.7428   17.6181   22.3971 C   0  0  0  0  0  0  0  0  0  0  0  0
   21.2630   17.4818   23.3553 H   0  0  0  0  0  0  0  0  0  0  0  0
   21.0185   16.7546   21.7760 H   0  0  0  0  0  0  0  0  0  0  0  0
   21.2538   18.9083   21.7154 C   0  0  0  0  0  0  0  0  0  0  0  0
   21.1279   19.7636   22.3919 H   0  0  0  0  0  0  0  0  0  0  0  0
   20.6606   19.1150   20.8138 H   0  0  0  0  0  0  0  0  0  0  0  0
   22.7451   18.7976   21.3327 C   0  0  0  0  0  0  0  0  0  0  0  0
   22.9115   17.9761   20.6238 H   0  0  0  0  0  0  0  0  0  0  0  0
   23.3673   18.6160   22.2188 H   0  0  0  0  0  0  0  0  0  0  0  0
   23.0939   19.7251   20.8604 H   0  0  0  0  0  0  0  0  0  0  0  0
  1  2  1  0  0  0  0
  1  3  1  0  0  0  0
  1  4  1  0  0  0  0
  1  5  1  0  0  0  0
  5  6  1  0  0  0  0
  5  7  1  0  0  0  0
  5  8  1  0  0  0  0
  8  9  1  0  0  0  0
  8 10  1  0  0  0  0
  8 11  1  0  0  0  0
 11 12  1  0  0  0  0
 11 13  1  0  0  0  0
 11 14  1  0  0  0  0
 14 15  1  0  0  0  0
 14 16  1  0  0  0  0
 14 17  1  0  0  0  0
 17 18  1  0  0  0  0
 17 19  1  0  0  0  0
 17 20  1  0  0  0  0
 20 21  1  0  0  0  0
 20 22  1  0  0  0  0
 20 23  1  0  0  0  0
M  END
> <VConfSearch Rank>
617

> <Conf_Id>
93

> <Delta U+W>
2.589

> <U+W>
-5.793

> <U>
50.122

> <W>
-55.915

> <W(PB)>
-58.031

> <W(SA)>
2.115

> <Valence>
4.132

> <Coulomb>
45.536

> <VdW>
0.454

> <VdW6>
-6.262

> <VdW12>
6.715

> <Bond>
0.182

> <Angle>
1.157

> <Pdih>
2.794

> <Idih>
0.000

> <Tether>
0.000

$$$$
VeraChem MOL file


 23 22  0  0  0  0  0  0  0  0999 V2000     
   22.0145   21.0631   22.2532 N   0  3  0  0  0  0  0  0  0  0  0  0
   21.4495   21.7544   22.7568 H   0  0  0  0  0  0  0  0  0  0  0  0
   22.2251   21.4635   21.3327 H   0  0  0  0  0  0  0  0  0  0  0  0
   22.9058   20.9808   22.7528 H   0  0  0  0  0  0  0  0  0  0  0  0
   21.3059   19.7288   22.1383 C   0  0  0  0  0  0  0  0  0  0  0  0
   21.9504   19.0541   21.5684 H   0  0  0  0  0  0  0  0  0  0  0  0
   20.3891   19.8863   21.5672 H   0  0  0  0  0  0  0  0  0  0  0  0
   20.9824   19.0986   23.5072 C   0  0  0  0  0  0  0  0  0  0  0  0
   21.9268   18.9633   24.0512 H   0  0  0  0  0  0  0  0  0  0  0  0
   20.3733   19.7855   24.1099 H   0  0  0  0  0  0  0  0  0  0  0  0
   20.2784   17.7229   23.3924 C   0  0  0  0  0  0  0  0  0  0  0  0
   20.5239   17.1378   24.2896 H   0  0  0  0  0  0  0  0  0  0  0  0
   20.6932   17.1572   22.5466 H   0  0  0  0  0  0  0  0  0  0  0  0
   18.7325   17.7859   23.2847 C   0  0  0  0  0  0  0  0  0  0  0  0
   18.3482   16.7564   23.2816 H   0  0  0  0  0  0  0  0  0  0  0  0
   18.3218   18.2609   24.1864 H   0  0  0  0  0  0  0  0  0  0  0  0
   18.2035   18.5212   22.0318 C   0  0  0  0  0  0  0  0  0  0  0  0
   18.6963   18.1282   21.1316 H   0  0  0  0  0  0  0  0  0  0  0  0
   18.4452   19.5901   22.0956 H   0  0  0  0  0  0  0  0  0  0  0  0
   16.6743   18.3693   21.8858 C   0  0  0  0  0  0  0  0  0  0  0  0
   16.3145   18.9059   20.9983 H   0  0  0  0  0  0  0  0  0  0  0  0
   16.1520   18.7772   22.7610 H   0  0  0  0  0  0  0  0  0  0  0  0
   16.3901   17.3143   21.7789 H   0  0  0  0  0  0  0  0  0  0  0  0
  1  2  1  0  0  0  0
  1  3  1  0  0  0  0
  1  4  1  0  0  0  0
  1  5  1  0  0  0  0
  5  6  1  0  0  0  0
  5  7  1  0  0  0  0
  5  8  1  0  0  0  0
  8  9  1  0  0  0  0
  8 10  1  0  0  0  0
  8 11  1  0  0  0  0
 11 12  1  0  0  0  0
 11 13  1  0  0  0  0
 11 14  1  0  0  0  0
 14 15  1  0  0  0  0
 14 16  1  0  0  0  0
 14 17  1  0  0  0  0
 17 18  1  0  0  0  0
 17 19  1  0  0  0  0
 17 20  1  0  0  0  0
 20 21  1  0  0  0  0
 20 22  1  0  0  0  0
 20 23  1  0  0  0  0
M  END
> <VConfSearch Rank>
618

> <Conf_Id>
70

> <Delta U+W>
2.599

> <U+W>
-5.783

> <U>
50.122

> <W>
-55.906

> <W(PB)>
-58.010

> <W(SA)>
2.105

> <Valence>
4.132

> <Coulomb>
45.536

> <VdW>
0.454

> <VdW6>
-6.262

> <VdW12>
6.715

> <Bond>
0.182

> <Angle>
1.157

> <Pdih>
2.794

> <Idih>
0.000

> <Tether>
0.000

$$$$
VeraChem MOL file


 23 22  0  0  0  0  0  0  0  0999 V2000     
   19.8905   19.9977   19.9312 N   0  3  0  0  0  0  0  0  0  0  0  0
   20.2316   19.4736   19.1191 H   0  0  0  0  0  0  0  0  0  0  0  0
   19.7936   20.9754   19.6372 H   0  0  0  0  0  0  0  0  0  0  0  0
   18.9496   19.6515   20.1416 H   0  0  0  0  0  0  0  0  0  0  0  0
   20.8179   19.8564   21.1221 C   0  0  0  0  0  0  0  0  0  0  0  0
   20.4170   20.4627   21.9386 H   0  0  0  0  0  0  0  0  0  0  0  0
   21.7898   20.2689   20.8382 H   0  0  0  0  0  0  0  0  0  0  0  0
   20.9979   18.4000   21.5956 C   0  0  0  0  0  0  0  0  0  0  0  0
   21.4330   17.8083   20.7793 H   0  0  0  0  0  0  0  0  0  0  0  0
   21.7377   18.3799   22.4061 H   0  0  0  0  0  0  0  0  0  0  0  0
   19.6844   17.7246   22.0706 C   0  0  0  0  0  0  0  0  0  0  0  0
   19.9158   16.7106   22.4248 H   0  0  0  0  0  0  0  0  0  0  0  0
   19.0140   17.5923   21.2108 H   0  0  0  0  0  0  0  0  0  0  0  0
   18.9235   18.4883   23.1854 C   0  0  0  0  0  0  0  0  0  0  0  0
   18.6010   19.4711   22.8164 H   0  0  0  0  0  0  0  0  0  0  0  0
   18.0027   17.9354   23.4172 H   0  0  0  0  0  0  0  0  0  0  0  0
   19.7441   18.6638   24.4849 C   0  0  0  0  0  0  0  0  0  0  0  0
   20.6352   19.2755   24.2905 H   0  0  0  0  0  0  0  0  0  0  0  0
   20.0996   17.6844   24.8342 H   0  0  0  0  0  0  0  0  0  0  0  0
   18.9106   19.3330   25.5984 C   0  0  0  0  0  0  0  0  0  0  0  0
   19.5083   19.4521   26.5114 H   0  0  0  0  0  0  0  0  0  0  0  0
   18.0292   18.7288   25.8495 H   0  0  0  0  0  0  0  0  0  0  0  0
   18.5660   20.3284   25.2890 H   0  0  0  0  0  0  0  0  0  0  0  0
  1  2  1  0  0  0  0
  1  3  1  0  0  0  0
  1  4  1  0  0  0  0
  1  5  1  0  0  0  0
  5  6  1  0  0  0  0
  5  7  1  0  0  0  0
  5  8  1  0  0  0  0
  8  9  1  0  0  0  0
  8 10  1  0  0  0  0
  8 11  1  0  0  0  0
 11 12  1  0  0  0  0
 11 13  1  0  0  0  0
 11 14  1  0  0  0  0
 14 15  1  0  0  0  0
 14 16  1  0  0  0  0
 14 17  1  0  0  0  0
 17 18  1  0  0  0  0
 17 19  1  0  0  0  0
 17 20  1  0  0  0  0
 20 21  1  0  0  0  0
 20 22  1  0  0  0  0
 20 23  1  0  0  0  0
M  END
> <VConfSearch Rank>
619

> <Conf_Id>
72

> <Delta U+W>
1.051

> <U+W>
-7.331

> <U>
48.590

> <W>
-55.922

> <W(PB)>
-58.012

> <W(SA)>
2.090

> <Valence>
2.601

> <Coulomb>
45.520

> <VdW>
0.469

> <VdW6>
-6.867

> <VdW12>
7.336

> <Bond>
0.205

> <Angle>
0.962

> <Pdih>
1.434

> <Idih>
0.000

> <Tether>
0.000

$$$$
VeraChem MOL file


 23 22  0  0  0  0  0  0  0  0999 V2000     
   20.9741   17.2517   24.9338 N   0  3  0  0  0  0  0  0  0  0  0  0
   21.6834   17.4988   25.6323 H   0  0  0  0  0  0  0  0  0  0  0  0
   21.1018   16.2576   24.7189 H   0  0  0  0  0  0  0  0  0  0  0  0
   20.0610   17.3468   25.3897 H   0  0  0  0  0  0  0  0  0  0  0  0
   21.0802   18.1160   23.6939 C   0  0  0  0  0  0  0  0  0  0  0  0
   22.0830   17.9883   23.2775 H   0  0  0  0  0  0  0  0  0  0  0  0
   20.9650   19.1589   24.0005 H   0  0  0  0  0  0  0  0  0  0  0  0
   20.0274   17.7699   22.6244 C   0  0  0  0  0  0  0  0  0  0  0  0
   20.1277   16.7111   22.3511 H   0  0  0  0  0  0  0  0  0  0  0  0
   19.0204   17.8852   23.0452 H   0  0  0  0  0  0  0  0  0  0  0  0
   20.1691   18.6319   21.3454 C   0  0  0  0  0  0  0  0  0  0  0  0
   19.4075   18.3219   20.6174 H   0  0  0  0  0  0  0  0  0  0  0  0
   21.1364   18.4104   20.8738 H   0  0  0  0  0  0  0  0  0  0  0  0
   20.0714   20.1639   21.5781 C   0  0  0  0  0  0  0  0  0  0  0  0
   20.9318   20.4981   22.1733 H   0  0  0  0  0  0  0  0  0  0  0  0
   20.1683   20.6724   20.6090 H   0  0  0  0  0  0  0  0  0  0  0  0
   18.7686   20.6446   22.2665 C   0  0  0  0  0  0  0  0  0  0  0  0
   18.8191   21.7355   22.3885 H   0  0  0  0  0  0  0  0  0  0  0  0
   18.7008   20.2316   23.2818 H   0  0  0  0  0  0  0  0  0  0  0  0
   17.4901   20.2917   21.4731 C   0  0  0  0  0  0  0  0  0  0  0  0
   17.5405   20.6840   20.4491 H   0  0  0  0  0  0  0  0  0  0  0  0
   16.6054   20.7263   21.9561 H   0  0  0  0  0  0  0  0  0  0  0  0
   17.3372   19.2067   21.4183 H   0  0  0  0  0  0  0  0  0  0  0  0
  1  2  1  0  0  0  0
  1  3  1  0  0  0  0
  1  4  1  0  0  0  0
  1  5  1  0  0  0  0
  5  6  1  0  0  0  0
  5  7  1  0  0  0  0
  5  8  1  0  0  0  0
  8  9  1  0  0  0  0
  8 10  1  0  0  0  0
  8 11  1  0  0  0  0
 11 12  1  0  0  0  0
 11 13  1  0  0  0  0
 11 14  1  0  0  0  0
 14 15  1  0  0  0  0
 14 16  1  0  0  0  0
 14 17  1  0  0  0  0
 17 18  1  0  0  0  0
 17 19  1  0  0  0  0
 17 20  1  0  0  0  0
 20 21  1  0  0  0  0
 20 22  1  0  0  0  0
 20 23  1  0  0  0  0
M  END
> <VConfSearch Rank>
620

> <Conf_Id>
26

> <Delta U+W>
1.076

> <U+W>
-7.306

> <U>
48.641

> <W>
-55.947

> <W(PB)>
-58.031

> <W(SA)>
2.084

> <Valence>
2.922

> <Coulomb>
45.269

> <VdW>
0.449

> <VdW6>
-7.045

> <VdW12>
7.494

> <Bond>
0.220

> <Angle>
1.205

> <Pdih>
1.497

> <Idih>
0.000

> <Tether>
0.000

$$$$
VeraChem MOL file


 23 22  0  0  0  0  0  0  0  0999 V2000     
   20.5419   16.6222   20.6990 N   0  3  0  0  0  0  0  0  0  0  0  0
   20.3156   15.6888   21.0572 H   0  0  0  0  0  0  0  0  0  0  0  0
   21.3366   16.5113   20.0601 H   0  0  0  0  0  0  0  0  0  0  0  0
   19.7447   16.9294   20.1327 H   0  0  0  0  0  0  0  0  0  0  0  0
   20.8506   17.5968   21.8173 C   0  0  0  0  0  0  0  0  0  0  0  0
   21.1110   18.5568   21.3639 H   0  0  0  0  0  0  0  0  0  0  0  0
   21.7237   17.2239   22.3594 H   0  0  0  0  0  0  0  0  0  0  0  0
   19.6759   17.7860   22.7951 C   0  0  0  0  0  0  0  0  0  0  0  0
   18.7949   18.1480   22.2498 H   0  0  0  0  0  0  0  0  0  0  0  0
   19.3983   16.8107   23.2162 H   0  0  0  0  0  0  0  0  0  0  0  0
   20.0147   18.7536   23.9561 C   0  0  0  0  0  0  0  0  0  0  0  0
   20.8195   18.3137   24.5611 H   0  0  0  0  0  0  0  0  0  0  0  0
   19.1479   18.8276   24.6263 H   0  0  0  0  0  0  0  0  0  0  0  0
   20.4505   20.1763   23.5125 C   0  0  0  0  0  0  0  0  0  0  0  0
   20.6490   20.7779   24.4102 H   0  0  0  0  0  0  0  0  0  0  0  0
   21.4097   20.1150   22.9810 H   0  0  0  0  0  0  0  0  0  0  0  0
   19.4310   20.9303   22.6212 C   0  0  0  0  0  0  0  0  0  0  0  0
   19.2948   20.4010   21.6686 H   0  0  0  0  0  0  0  0  0  0  0  0
   19.8513   21.9121   22.3621 H   0  0  0  0  0  0  0  0  0  0  0  0
   18.0596   21.1407   23.3021 C   0  0  0  0  0  0  0  0  0  0  0  0
   17.5493   20.1864   23.4823 H   0  0  0  0  0  0  0  0  0  0  0  0
   17.4045   21.7512   22.6672 H   0  0  0  0  0  0  0  0  0  0  0  0
   18.1720   21.6576   24.2639 H   0  0  0  0  0  0  0  0  0  0  0  0
  1  2  1  0  0  0  0
  1  3  1  0  0  0  0
  1  4  1  0  0  0  0
  1  5  1  0  0  0  0
  5  6  1  0  0  0  0
  5  7  1  0  0  0  0
  5  8  1  0  0  0  0
  8  9  1  0  0  0  0
  8 10  1  0  0  0  0
  8 11  1  0  0  0  0
 11 12  1  0  0  0  0
 11 13  1  0  0  0  0
 11 14  1  0  0  0  0
 14 15  1  0  0  0  0
 14 16  1  0  0  0  0
 14 17  1  0  0  0  0
 17 18  1  0  0  0  0
 17 19  1  0  0  0  0
 17 20  1  0  0  0  0
 20 21  1  0  0  0  0
 20 22  1  0  0  0  0
 20 23  1  0  0  0  0
M  END
> <VConfSearch Rank>
621

> <Conf_Id>
90

> <Delta U+W>
1.131

> <U+W>
-7.251

> <U>
48.641

> <W>
-55.892

> <W(PB)>
-57.962

> <W(SA)>
2.070

> <Valence>
2.922

> <Coulomb>
45.269

> <VdW>
0.450

> <VdW6>
-7.045

> <VdW12>
7.495

> <Bond>
0.220

> <Angle>
1.205

> <Pdih>
1.497

> <Idih>
0.000

> <Tether>
0.000

$$$$
VeraChem MOL file


 23 22  0  0  0  0  0  0  0  0999 V2000     
   21.5154   17.1280   23.4719 N   0  3  0  0  0  0  0  0  0  0  0  0
   22.1738   17.0453   24.2539 H   0  0  0  0  0  0  0  0  0  0  0  0
   21.7462   17.9932   22.9740 H   0  0  0  0  0  0  0  0  0  0  0  0
   21.7093   16.3495   22.8340 H   0  0  0  0  0  0  0  0  0  0  0  0
   20.0752   17.1227   23.9452 C   0  0  0  0  0  0  0  0  0  0  0  0
   19.9443   17.9546   24.6419 H   0  0  0  0  0  0  0  0  0  0  0  0
   19.9084   16.1917   24.4938 H   0  0  0  0  0  0  0  0  0  0  0  0
   19.0465   17.2337   22.8013 C   0  0  0  0  0  0  0  0  0  0  0  0
   19.1558   16.3685   22.1340 H   0  0  0  0  0  0  0  0  0  0  0  0
   18.0370   17.1652   23.2278 H   0  0  0  0  0  0  0  0  0  0  0  0
   19.1641   18.5379   21.9730 C   0  0  0  0  0  0  0  0  0  0  0  0
   18.4053   18.5176   21.1787 H   0  0  0  0  0  0  0  0  0  0  0  0
   20.1369   18.5631   21.4661 H   0  0  0  0  0  0  0  0  0  0  0  0
   18.9725   19.8175   22.8258 C   0  0  0  0  0  0  0  0  0  0  0  0
   18.0337   19.7343   23.3907 H   0  0  0  0  0  0  0  0  0  0  0  0
   19.7754   19.9007   23.5704 H   0  0  0  0  0  0  0  0  0  0  0  0
   18.9258   21.1150   21.9833 C   0  0  0  0  0  0  0  0  0  0  0  0
   18.6820   21.9572   22.6459 H   0  0  0  0  0  0  0  0  0  0  0  0
   18.1087   21.0540   21.2509 H   0  0  0  0  0  0  0  0  0  0  0  0
   20.2546   21.4220   21.2558 C   0  0  0  0  0  0  0  0  0  0  0  0
   21.0926   21.4621   21.9638 H   0  0  0  0  0  0  0  0  0  0  0  0
   20.1984   22.3934   20.7477 H   0  0  0  0  0  0  0  0  0  0  0  0
   20.4821   20.6652   20.4949 H   0  0  0  0  0  0  0  0  0  0  0  0
  1  2  1  0  0  0  0
  1  3  1  0  0  0  0
  1  4  1  0  0  0  0
  1  5  1  0  0  0  0
  5  6  1  0  0  0  0
  5  7  1  0  0  0  0
  5  8  1  0  0  0  0
  8  9  1  0  0  0  0
  8 10  1  0  0  0  0
  8 11  1  0  0  0  0
 11 12  1  0  0  0  0
 11 13  1  0  0  0  0
 11 14  1  0  0  0  0
 14 15  1  0  0  0  0
 14 16  1  0  0  0  0
 14 17  1  0  0  0  0
 17 18  1  0  0  0  0
 17 19  1  0  0  0  0
 17 20  1  0  0  0  0
 20 21  1  0  0  0  0
 20 22  1  0  0  0  0
 20 23  1  0  0  0  0
M  END
> <VConfSearch Rank>
622

> <Conf_Id>
85

> <Delta U+W>
1.193

> <U+W>
-7.189

> <U>
48.775

> <W>
-55.965

> <W(PB)>
-58.038

> <W(SA)>
2.073

> <Valence>
2.602

> <Coulomb>
45.581

> <VdW>
0.592

> <VdW6>
-6.616

> <VdW12>
7.208

> <Bond>
0.196

> <Angle>
0.832

> <Pdih>
1.574

> <Idih>
0.000

> <Tether>
0.000

$$$$
VeraChem MOL file


 23 22  0  0  0  0  0  0  0  0999 V2000     
   21.6885   18.2748   22.4498 N   0  3  0  0  0  0  0  0  0  0  0  0
   21.1281   18.8083   23.1221 H   0  0  0  0  0  0  0  0  0  0  0  0
   22.5771   18.7724   22.3268 H   0  0  0  0  0  0  0  0  0  0  0  0
   21.9092   17.3723   22.8832 H   0  0  0  0  0  0  0  0  0  0  0  0
   20.9542   18.1006   21.1344 C   0  0  0  0  0  0  0  0  0  0  0  0
   21.6106   17.5252   20.4760 H   0  0  0  0  0  0  0  0  0  0  0  0
   20.8020   19.0855   20.6851 H   0  0  0  0  0  0  0  0  0  0  0  0
   19.6028   17.3685   21.2627 C   0  0  0  0  0  0  0  0  0  0  0  0
   19.3567   16.9475   20.2788 H   0  0  0  0  0  0  0  0  0  0  0  0
   19.7093   16.5083   21.9370 H   0  0  0  0  0  0  0  0  0  0  0  0
   18.4094   18.2545   21.7108 C   0  0  0  0  0  0  0  0  0  0  0  0
   17.5107   17.6222   21.7049 H   0  0  0  0  0  0  0  0  0  0  0  0
   18.2220   19.0374   20.9629 H   0  0  0  0  0  0  0  0  0  0  0  0
   18.5437   18.8842   23.1210 C   0  0  0  0  0  0  0  0  0  0  0  0
   17.5505   18.9025   23.5910 H   0  0  0  0  0  0  0  0  0  0  0  0
   19.1628   18.2449   23.7643 H   0  0  0  0  0  0  0  0  0  0  0  0
   19.0820   20.3356   23.0917 C   0  0  0  0  0  0  0  0  0  0  0  0
   18.3530   20.9818   22.5827 H   0  0  0  0  0  0  0  0  0  0  0  0
   20.0060   20.4028   22.5053 H   0  0  0  0  0  0  0  0  0  0  0  0
   19.3350   20.8792   24.5138 C   0  0  0  0  0  0  0  0  0  0  0  0
   18.4115   20.8732   25.1075 H   0  0  0  0  0  0  0  0  0  0  0  0
   19.7016   21.9132   24.4737 H   0  0  0  0  0  0  0  0  0  0  0  0
   20.0843   20.2768   25.0433 H   0  0  0  0  0  0  0  0  0  0  0  0
  1  2  1  0  0  0  0
  1  3  1  0  0  0  0
  1  4  1  0  0  0  0
  1  5  1  0  0  0  0
  5  6  1  0  0  0  0
  5  7  1  0  0  0  0
  5  8  1  0  0  0  0
  8  9  1  0  0  0  0
  8 10  1  0  0  0  0
  8 11  1  0  0  0  0
 11 12  1  0  0  0  0
 11 13  1  0  0  0  0
 11 14  1  0  0  0  0
 14 15  1  0  0  0  0
 14 16  1  0  0  0  0
 14 17  1  0  0  0  0
 17 18  1  0  0  0  0
 17 19  1  0  0  0  0
 17 20  1  0  0  0  0
 20 21  1  0  0  0  0
 20 22  1  0  0  0  0
 20 23  1  0  0  0  0
M  END
> <VConfSearch Rank>
623

> <Conf_Id>
82

> <Delta U+W>
5.994

> <U+W>
-2.388

> <U>
52.836

> <W>
-55.224

> <W(PB)>
-57.261

> <W(SA)>
2.037

> <Valence>
5.785

> <Coulomb>
46.744

> <VdW>
0.307

> <VdW6>
-7.672

> <VdW12>
7.979

> <Bond>
0.217

> <Angle>
1.470

> <Pdih>
4.098

> <Idih>
0.000

> <Tether>
0.000

$$$$
VeraChem MOL file


 23 22  0  0  0  0  0  0  0  0999 V2000     
   18.5667   20.5876   22.7671 N   0  3  0  0  0  0  0  0  0  0  0  0
   17.6360   20.5000   22.3463 H   0  0  0  0  0  0  0  0  0  0  0  0
   18.5146   21.3497   23.4517 H   0  0  0  0  0  0  0  0  0  0  0  0
   18.7513   19.7220   23.2842 H   0  0  0  0  0  0  0  0  0  0  0  0
   19.6337   20.8432   21.7202 C   0  0  0  0  0  0  0  0  0  0  0  0
   20.5915   20.9928   22.2255 H   0  0  0  0  0  0  0  0  0  0  0  0
   19.3678   21.7753   21.2144 H   0  0  0  0  0  0  0  0  0  0  0  0
   19.7644   19.7206   20.6708 C   0  0  0  0  0  0  0  0  0  0  0  0
   18.7661   19.3926   20.3519 H   0  0  0  0  0  0  0  0  0  0  0  0
   20.2361   20.1518   19.7778 H   0  0  0  0  0  0  0  0  0  0  0  0
   20.6136   18.4978   21.1112 C   0  0  0  0  0  0  0  0  0  0  0  0
   21.6496   18.8100   21.3025 H   0  0  0  0  0  0  0  0  0  0  0  0
   20.6677   17.8104   20.2556 H   0  0  0  0  0  0  0  0  0  0  0  0
   20.0604   17.7092   22.3259 C   0  0  0  0  0  0  0  0  0  0  0  0
   18.9667   17.7968   22.3686 H   0  0  0  0  0  0  0  0  0  0  0  0
   20.2653   16.6407   22.1707 H   0  0  0  0  0  0  0  0  0  0  0  0
   20.7072   18.1265   23.6692 C   0  0  0  0  0  0  0  0  0  0  0  0
   20.6611   19.2130   23.8097 H   0  0  0  0  0  0  0  0  0  0  0  0
   21.7756   17.8689   23.6521 H   0  0  0  0  0  0  0  0  0  0  0  0
   20.0358   17.4243   24.8683 C   0  0  0  0  0  0  0  0  0  0  0  0
   18.9717   17.6843   24.9378 H   0  0  0  0  0  0  0  0  0  0  0  0
   20.5168   17.7203   25.8097 H   0  0  0  0  0  0  0  0  0  0  0  0
   20.1146   16.3328   24.7799 H   0  0  0  0  0  0  0  0  0  0  0  0
  1  2  1  0  0  0  0
  1  3  1  0  0  0  0
  1  4  1  0  0  0  0
  1  5  1  0  0  0  0
  5  6  1  0  0  0  0
  5  7  1  0  0  0  0
  5  8  1  0  0  0  0
  8  9  1  0  0  0  0
  8 10  1  0  0  0  0
  8 11  1  0  0  0  0
 11 12  1  0  0  0  0
 11 13  1  0  0  0  0
 11 14  1  0  0  0  0
 14 15  1  0  0  0  0
 14 16  1  0  0  0  0
 14 17  1  0  0  0  0
 17 18  1  0  0  0  0
 17 19  1  0  0  0  0
 17 20  1  0  0  0  0
 20 21  1  0  0  0  0
 20 22  1  0  0  0  0
 20 23  1  0  0  0  0
M  END
> <VConfSearch Rank>
624

> <Conf_Id>
5

> <Delta U+W>
6.087

> <U+W>
-2.295

> <U>
52.836

> <W>
-55.131

> <W(PB)>
-57.202

> <W(SA)>
2.071

> <Valence>
5.785

> <Coulomb>
46.744

> <VdW>
0.307

> <VdW6>
-7.672

> <VdW12>
7.980

> <Bond>
0.217

> <Angle>
1.470

> <Pdih>
4.098

> <Idih>
0.000

> <Tether>
0.000

$$$$
VeraChem MOL file


 23 22  0  0  0  0  0  0  0  0999 V2000     
   17.1800   17.7975   20.0371 N   0  3  0  0  0  0  0  0  0  0  0  0
   16.5823   17.2993   20.7045 H   0  0  0  0  0  0  0  0  0  0  0  0
   17.1346   17.2801   19.1526 H   0  0  0  0  0  0  0  0  0  0  0  0
   16.7480   18.7119   19.8695 H   0  0  0  0  0  0  0  0  0  0  0  0
   18.6033   17.9279   20.5403 C   0  0  0  0  0  0  0  0  0  0  0  0
   19.1878   18.4393   19.7707 H   0  0  0  0  0  0  0  0  0  0  0  0
   19.0097   16.9210   20.6681 H   0  0  0  0  0  0  0  0  0  0  0  0
   18.7060   18.7003   21.8675 C   0  0  0  0  0  0  0  0  0  0  0  0
   18.2820   19.7052   21.7388 H   0  0  0  0  0  0  0  0  0  0  0  0
   18.1044   18.1922   22.6330 H   0  0  0  0  0  0  0  0  0  0  0  0
   20.1707   18.8109   22.3455 C   0  0  0  0  0  0  0  0  0  0  0  0
   20.7704   19.3150   21.5747 H   0  0  0  0  0  0  0  0  0  0  0  0
   20.5929   17.8036   22.4680 H   0  0  0  0  0  0  0  0  0  0  0  0
   20.2857   19.5851   23.6783 C   0  0  0  0  0  0  0  0  0  0  0  0
   19.8637   20.5924   23.5559 H   0  0  0  0  0  0  0  0  0  0  0  0
   19.6861   19.0812   24.4491 H   0  0  0  0  0  0  0  0  0  0  0  0
   21.7507   19.6955   24.1562 C   0  0  0  0  0  0  0  0  0  0  0  0
   22.3542   20.2012   23.3893 H   0  0  0  0  0  0  0  0  0  0  0  0
   22.1766   18.6902   24.2825 H   0  0  0  0  0  0  0  0  0  0  0  0
   21.8614   20.4692   25.4872 C   0  0  0  0  0  0  0  0  0  0  0  0
   22.9084   20.5371   25.8101 H   0  0  0  0  0  0  0  0  0  0  0  0
   21.2952   19.9683   26.2833 H   0  0  0  0  0  0  0  0  0  0  0  0
   21.4741   21.4911   25.3832 H   0  0  0  0  0  0  0  0  0  0  0  0
  1  2  1  0  0  0  0
  1  3  1  0  0  0  0
  1  4  1  0  0  0  0
  1  5  1  0  0  0  0
  5  6  1  0  0  0  0
  5  7  1  0  0  0  0
  5  8  1  0  0  0  0
  8  9  1  0  0  0  0
  8 10  1  0  0  0  0
  8 11  1  0  0  0  0
 11 12  1  0  0  0  0
 11 13  1  0  0  0  0
 11 14  1  0  0  0  0
 14 15  1  0  0  0  0
 14 16  1  0  0  0  0
 14 17  1  0  0  0  0
 17 18  1  0  0  0  0
 17 19  1  0  0  0  0
 17 20  1  0  0  0  0
 20 21  1  0  0  0  0
 20 22  1  0  0  0  0
 20 23  1  0  0  0  0
M  END
> <VConfSearch Rank>
625

> <Conf_Id>
40

> <Delta U+W>
0.000

> <U+W>
-8.382

> <U>
46.604

> <W>
-54.986

> <W(PB)>
-57.162

> <W(SA)>
2.176

> <Valence>
1.727

> <Coulomb>
44.434

> <VdW>
0.443

> <VdW6>
-4.623

> <VdW12>
5.066

> <Bond>
0.112

> <Angle>
0.386

> <Pdih>
1.228

> <Idih>
0.000

> <Tether>
0.000

$$$$
VeraChem MOL file


 23 22  0  0  0  0  0  0  0  0999 V2000     
   19.2804   15.5964   21.7047 N   0  3  0  0  0  0  0  0  0  0  0  0
   20.1463   15.0654   21.8427 H   0  0  0  0  0  0  0  0  0  0  0  0
   19.1769   15.7475   20.6960 H   0  0  0  0  0  0  0  0  0  0  0  0
   18.5080   14.9874   21.9956 H   0  0  0  0  0  0  0  0  0  0  0  0
   19.2887   16.9016   22.4741 C   0  0  0  0  0  0  0  0  0  0  0  0
   19.3724   16.6654   23.5384 H   0  0  0  0  0  0  0  0  0  0  0  0
   18.3285   17.3957   22.3055 H   0  0  0  0  0  0  0  0  0  0  0  0
   20.4388   17.8390   22.0596 C   0  0  0  0  0  0  0  0  0  0  0  0
   21.3936   17.3122   22.1895 H   0  0  0  0  0  0  0  0  0  0  0  0
   20.3546   18.0775   20.9910 H   0  0  0  0  0  0  0  0  0  0  0  0
   20.4731   19.1480   22.8835 C   0  0  0  0  0  0  0  0  0  0  0  0
   21.3796   19.7028   22.6088 H   0  0  0  0  0  0  0  0  0  0  0  0
   20.5671   18.9064   23.9513 H   0  0  0  0  0  0  0  0  0  0  0  0
   19.2276   20.0423   22.6566 C   0  0  0  0  0  0  0  0  0  0  0  0
   19.1459   20.3006   21.5918 H   0  0  0  0  0  0  0  0  0  0  0  0
   18.3197   19.4784   22.9081 H   0  0  0  0  0  0  0  0  0  0  0  0
   19.2379   21.3388   23.5025 C   0  0  0  0  0  0  0  0  0  0  0  0
   19.3089   21.0860   24.5697 H   0  0  0  0  0  0  0  0  0  0  0  0
   18.2746   21.8515   23.3721 H   0  0  0  0  0  0  0  0  0  0  0  0
   20.3748   22.3146   23.1221 C   0  0  0  0  0  0  0  0  0  0  0  0
   21.3616   21.8952   23.3534 H   0  0  0  0  0  0  0  0  0  0  0  0
   20.2774   23.2540   23.6816 H   0  0  0  0  0  0  0  0  0  0  0  0
   20.3455   22.5573   22.0520 H   0  0  0  0  0  0  0  0  0  0  0  0
  1  2  1  0  0  0  0
  1  3  1  0  0  0  0
  1  4  1  0  0  0  0
  1  5  1  0  0  0  0
  5  6  1  0  0  0  0
  5  7  1  0  0  0  0
  5  8  1  0  0  0  0
  8  9  1  0  0  0  0
  8 10  1  0  0  0  0
  8 11  1  0  0  0  0
 11 12  1  0  0  0  0
 11 13  1  0  0  0  0
 11 14  1  0  0  0  0
 14 15  1  0  0  0  0
 14 16  1  0  0  0  0
 14 17  1  0  0  0  0
 17 18  1  0  0  0  0
 17 19  1  0  0  0  0
 17 20  1  0  0  0  0
 20 21  1  0  0  0  0
 20 22  1  0  0  0  0
 20 23  1  0  0  0  0
M  END
> <VConfSearch Rank>
626

> <Conf_Id>
65

> <Delta U+W>
1.004

> <U+W>
-7.378

> <U>
48.047

> <W>
-55.425

> <W(PB)>
-57.542

> <W(SA)>
2.116

> <Valence>
2.583

> <Coulomb>
44.791

> <VdW>
0.673

> <VdW6>
-5.788

> <VdW12>
6.462

> <Bond>
0.177

> <Angle>
0.787

> <Pdih>
1.619

> <Idih>
0.000

> <Tether>
0.000

$$$$
VeraChem MOL file


 23 22  0  0  0  0  0  0  0  0999 V2000     
   20.5489   15.9345   20.9867 N   0  3  0  0  0  0  0  0  0  0  0  0
   19.8924   15.7594   20.2191 H   0  0  0  0  0  0  0  0  0  0  0  0
   20.7271   15.0309   21.4381 H   0  0  0  0  0  0  0  0  0  0  0  0
   21.4330   16.2360   20.5643 H   0  0  0  0  0  0  0  0  0  0  0  0
   20.0126   16.9577   21.9671 C   0  0  0  0  0  0  0  0  0  0  0  0
   20.7466   17.0696   22.7691 H   0  0  0  0  0  0  0  0  0  0  0  0
   19.0895   16.5607   22.3981 H   0  0  0  0  0  0  0  0  0  0  0  0
   19.7344   18.3269   21.3184 C   0  0  0  0  0  0  0  0  0  0  0  0
   20.6615   18.7267   20.8864 H   0  0  0  0  0  0  0  0  0  0  0  0
   19.0324   18.1913   20.4848 H   0  0  0  0  0  0  0  0  0  0  0  0
   19.1392   19.3524   22.3122 C   0  0  0  0  0  0  0  0  0  0  0  0
   18.2068   18.9539   22.7353 H   0  0  0  0  0  0  0  0  0  0  0  0
   18.8656   20.2553   21.7511 H   0  0  0  0  0  0  0  0  0  0  0  0
   20.1152   19.7274   23.4565 C   0  0  0  0  0  0  0  0  0  0  0  0
   20.4077   18.8204   24.0019 H   0  0  0  0  0  0  0  0  0  0  0  0
   21.0392   20.1451   23.0335 H   0  0  0  0  0  0  0  0  0  0  0  0
   19.5156   20.7279   24.4743 C   0  0  0  0  0  0  0  0  0  0  0  0
   20.2220   20.8476   25.3078 H   0  0  0  0  0  0  0  0  0  0  0  0
   18.5964   20.3106   24.9087 H   0  0  0  0  0  0  0  0  0  0  0  0
   19.2205   22.1199   23.8705 C   0  0  0  0  0  0  0  0  0  0  0  0
   18.4254   22.0729   23.1163 H   0  0  0  0  0  0  0  0  0  0  0  0
   20.1169   22.5447   23.4003 H   0  0  0  0  0  0  0  0  0  0  0  0
   18.8909   22.8156   24.6530 H   0  0  0  0  0  0  0  0  0  0  0  0
  1  2  1  0  0  0  0
  1  3  1  0  0  0  0
  1  4  1  0  0  0  0
  1  5  1  0  0  0  0
  5  6  1  0  0  0  0
  5  7  1  0  0  0  0
  5  8  1  0  0  0  0
  8  9  1  0  0  0  0
  8 10  1  0  0  0  0
  8 11  1  0  0  0  0
 11 12  1  0  0  0  0
 11 13  1  0  0  0  0
 11 14  1  0  0  0  0
 14 15  1  0  0  0  0
 14 16  1  0  0  0  0
 14 17  1  0  0  0  0
 17 18  1  0  0  0  0
 17 19  1  0  0  0  0
 17 20  1  0  0  0  0
 20 21  1  0  0  0  0
 20 22  1  0  0  0  0
 20 23  1  0  0  0  0
M  END
> <VConfSearch Rank>
627

> <Conf_Id>
92

> <Delta U+W>
0.973

> <U+W>
-7.409

> <U>
48.047

> <W>
-55.456

> <W(PB)>
-57.595

> <W(SA)>
2.138

> <Valence>
2.583

> <Coulomb>
44.791

> <VdW>
0.674

> <VdW6>
-5.789

> <VdW12>
6.462

> <Bond>
0.177

> <Angle>
0.787

> <Pdih>
1.619

> <Idih>
0.000

> <Tether>
0.000

$$$$
VeraChem MOL file


 23 22  0  0  0  0  0  0  0  0999 V2000     
   21.1138   16.0672   21.1219 N   0  3  0  0  0  0  0  0  0  0  0  0
   20.5178   15.2781   20.8495 H   0  0  0  0  0  0  0  0  0  0  0  0
   21.9418   15.6712   21.5784 H   0  0  0  0  0  0  0  0  0  0  0  0
   21.4316   16.5135   20.2555 H   0  0  0  0  0  0  0  0  0  0  0  0
   20.3821   17.0403   22.0238 C   0  0  0  0  0  0  0  0  0  0  0  0
   20.0483   16.4937   22.9100 H   0  0  0  0  0  0  0  0  0  0  0  0
   19.4995   17.3966   21.4864 H   0  0  0  0  0  0  0  0  0  0  0  0
   21.2516   18.2380   22.4509 C   0  0  0  0  0  0  0  0  0  0  0  0
   22.1559   17.8648   22.9498 H   0  0  0  0  0  0  0  0  0  0  0  0
   21.5875   18.7865   21.5607 H   0  0  0  0  0  0  0  0  0  0  0  0
   20.5124   19.2027   23.4079 C   0  0  0  0  0  0  0  0  0  0  0  0
   21.2178   19.9761   23.7423 H   0  0  0  0  0  0  0  0  0  0  0  0
   20.2001   18.6569   24.3090 H   0  0  0  0  0  0  0  0  0  0  0  0
   19.2837   19.8823   22.7567 C   0  0  0  0  0  0  0  0  0  0  0  0
   19.5940   20.3994   21.8381 H   0  0  0  0  0  0  0  0  0  0  0  0
   18.5472   19.1231   22.4613 H   0  0  0  0  0  0  0  0  0  0  0  0
   18.6129   20.8928   23.7135 C   0  0  0  0  0  0  0  0  0  0  0  0
   19.3392   21.6629   24.0094 H   0  0  0  0  0  0  0  0  0  0  0  0
   18.3011   20.3808   24.6347 H   0  0  0  0  0  0  0  0  0  0  0  0
   17.3869   21.5689   23.0636 C   0  0  0  0  0  0  0  0  0  0  0  0
   17.6732   22.1179   22.1570 H   0  0  0  0  0  0  0  0  0  0  0  0
   16.9246   22.2828   23.7577 H   0  0  0  0  0  0  0  0  0  0  0  0
   16.6264   20.8267   22.7880 H   0  0  0  0  0  0  0  0  0  0  0  0
  1  2  1  0  0  0  0
  1  3  1  0  0  0  0
  1  4  1  0  0  0  0
  1  5  1  0  0  0  0
  5  6  1  0  0  0  0
  5  7  1  0  0  0  0
  5  8  1  0  0  0  0
  8  9  1  0  0  0  0
  8 10  1  0  0  0  0
  8 11  1  0  0  0  0
 11 12  1  0  0  0  0
 11 13  1  0  0  0  0
 11 14  1  0  0  0  0
 14 15  1  0  0  0  0
 14 16  1  0  0  0  0
 14 17  1  0  0  0  0
 17 18  1  0  0  0  0
 17 19  1  0  0  0  0
 17 20  1  0  0  0  0
 20 21  1  0  0  0  0
 20 22  1  0  0  0  0
 20 23  1  0  0  0  0
M  END
> <VConfSearch Rank>
628

> <Conf_Id>
42

> <Delta U+W>
0.365

> <U+W>
-8.017

> <U>
47.375

> <W>
-55.392

> <W(PB)>
-57.543

> <W(SA)>
2.152

> <Valence>
2.032

> <Coulomb>
44.843

> <VdW>
0.499

> <VdW6>
-5.218

> <VdW12>
5.717

> <Bond>
0.135

> <Angle>
0.514

> <Pdih>
1.383

> <Idih>
0.000

> <Tether>
0.000

$$$$
VeraChem MOL file


 23 22  0  0  0  0  0  0  0  0999 V2000     
   18.1088   21.6897   22.3523 N   0  3  0  0  0  0  0  0  0  0  0  0
   17.2684   21.2893   22.7812 H   0  0  0  0  0  0  0  0  0  0  0  0
   17.8195   22.5499   21.8745 H   0  0  0  0  0  0  0  0  0  0  0  0
   18.7349   21.9670   23.1141 H   0  0  0  0  0  0  0  0  0  0  0  0
   18.7754   20.7148   21.4010 C   0  0  0  0  0  0  0  0  0  0  0  0
   19.6462   21.2093   20.9620 H   0  0  0  0  0  0  0  0  0  0  0  0
   18.0653   20.4998   20.5978 H   0  0  0  0  0  0  0  0  0  0  0  0
   19.2088   19.3932   22.0649 C   0  0  0  0  0  0  0  0  0  0  0  0
   18.3377   18.9122   22.5289 H   0  0  0  0  0  0  0  0  0  0  0  0
   19.5624   18.7210   21.2735 H   0  0  0  0  0  0  0  0  0  0  0  0
   20.3315   19.5897   23.1127 C   0  0  0  0  0  0  0  0  0  0  0  0
   20.0172   20.3420   23.8480 H   0  0  0  0  0  0  0  0  0  0  0  0
   21.2229   19.9998   22.6182 H   0  0  0  0  0  0  0  0  0  0  0  0
   20.7181   18.3015   23.8847 C   0  0  0  0  0  0  0  0  0  0  0  0
   21.4848   18.5765   24.6223 H   0  0  0  0  0  0  0  0  0  0  0  0
   19.8614   17.9409   24.4706 H   0  0  0  0  0  0  0  0  0  0  0  0
   21.2852   17.1580   23.0042 C   0  0  0  0  0  0  0  0  0  0  0  0
   22.0687   16.6355   23.5709 H   0  0  0  0  0  0  0  0  0  0  0  0
   21.7811   17.5704   22.1144 H   0  0  0  0  0  0  0  0  0  0  0  0
   20.2202   16.1149   22.5921 C   0  0  0  0  0  0  0  0  0  0  0  0
   19.7725   15.6425   23.4761 H   0  0  0  0  0  0  0  0  0  0  0  0
   20.6749   15.3211   21.9854 H   0  0  0  0  0  0  0  0  0  0  0  0
   19.4114   16.5608   22.0030 H   0  0  0  0  0  0  0  0  0  0  0  0
  1  2  1  0  0  0  0
  1  3  1  0  0  0  0
  1  4  1  0  0  0  0
  1  5  1  0  0  0  0
  5  6  1  0  0  0  0
  5  7  1  0  0  0  0
  5  8  1  0  0  0  0
  8  9  1  0  0  0  0
  8 10  1  0  0  0  0
  8 11  1  0  0  0  0
 11 12  1  0  0  0  0
 11 13  1  0  0  0  0
 11 14  1  0  0  0  0
 14 15  1  0  0  0  0
 14 16  1  0  0  0  0
 14 17  1  0  0  0  0
 17 18  1  0  0  0  0
 17 19  1  0  0  0  0
 17 20  1  0  0  0  0
 20 21  1  0  0  0  0
 20 22  1  0  0  0  0
 20 23  1  0  0  0  0
M  END
> <VConfSearch Rank>
629

> <Conf_Id>
3

> <Delta U+W>
3.283

> <U+W>
-5.099

> <U>
50.701

> <W>
-55.800

> <W(PB)>
-57.867

> <W(SA)>
2.067

> <Valence>
4.880

> <Coulomb>
45.095

> <VdW>
0.726

> <VdW6>
-6.620

> <VdW12>
7.346

> <Bond>
0.222

> <Angle>
1.260

> <Pdih>
3.398

> <Idih>
0.000

> <Tether>
0.000

$$$$
VeraChem MOL file


 23 22  0  0  0  0  0  0  0  0999 V2000     
   19.4354   21.9065   22.0899 N   0  3  0  0  0  0  0  0  0  0  0  0
   19.1946   22.4401   22.9313 H   0  0  0  0  0  0  0  0  0  0  0  0
   19.5148   22.5802   21.3207 H   0  0  0  0  0  0  0  0  0  0  0  0
   20.3678   21.5091   22.2393 H   0  0  0  0  0  0  0  0  0  0  0  0
   18.4096   20.8305   21.7929 C   0  0  0  0  0  0  0  0  0  0  0  0
   18.7078   20.3225   20.8723 H   0  0  0  0  0  0  0  0  0  0  0  0
   17.4517   21.3253   21.6110 H   0  0  0  0  0  0  0  0  0  0  0  0
   18.2448   19.8002   22.9290 C   0  0  0  0  0  0  0  0  0  0  0  0
   17.8957   20.3171   23.8327 H   0  0  0  0  0  0  0  0  0  0  0  0
   17.4487   19.0960   22.6532 H   0  0  0  0  0  0  0  0  0  0  0  0
   19.5350   19.0079   23.2599 C   0  0  0  0  0  0  0  0  0  0  0  0
   19.3163   18.3393   24.1025 H   0  0  0  0  0  0  0  0  0  0  0  0
   20.3165   19.6952   23.6101 H   0  0  0  0  0  0  0  0  0  0  0  0
   20.0645   18.1772   22.0633 C   0  0  0  0  0  0  0  0  0  0  0  0
   19.2910   17.4707   21.7319 H   0  0  0  0  0  0  0  0  0  0  0  0
   20.2606   18.8420   21.2119 H   0  0  0  0  0  0  0  0  0  0  0  0
   21.3680   17.4041   22.3789 C   0  0  0  0  0  0  0  0  0  0  0  0
   22.1490   18.1072   22.7006 H   0  0  0  0  0  0  0  0  0  0  0  0
   21.7351   16.9408   21.4524 H   0  0  0  0  0  0  0  0  0  0  0  0
   21.1883   16.3016   23.4473 C   0  0  0  0  0  0  0  0  0  0  0  0
   20.3892   15.6041   23.1646 H   0  0  0  0  0  0  0  0  0  0  0  0
   20.9437   16.7260   24.4288 H   0  0  0  0  0  0  0  0  0  0  0  0
   22.1140   15.7227   23.5608 H   0  0  0  0  0  0  0  0  0  0  0  0
  1  2  1  0  0  0  0
  1  3  1  0  0  0  0
  1  4  1  0  0  0  0
  1  5  1  0  0  0  0
  5  6  1  0  0  0  0
  5  7  1  0  0  0  0
  5  8  1  0  0  0  0
  8  9  1  0  0  0  0
  8 10  1  0  0  0  0
  8 11  1  0  0  0  0
 11 12  1  0  0  0  0
 11 13  1  0  0  0  0
 11 14  1  0  0  0  0
 14 15  1  0  0  0  0
 14 16  1  0  0  0  0
 14 17  1  0  0  0  0
 17 18  1  0  0  0  0
 17 19  1  0  0  0  0
 17 20  1  0  0  0  0
 20 21  1  0  0  0  0
 20 22  1  0  0  0  0
 20 23  1  0  0  0  0
M  END
> <VConfSearch Rank>
630

> <Conf_Id>
83

> <Delta U+W>
1.229

> <U+W>
-7.154

> <U>
48.727

> <W>
-55.880

> <W(PB)>
-57.960

> <W(SA)>
2.080

> <Valence>
2.671

> <Coulomb>
45.371

> <VdW>
0.684

> <VdW6>
-6.511

> <VdW12>
7.195

> <Bond>
0.203

> <Angle>
0.915

> <Pdih>
1.554

> <Idih>
0.000

> <Tether>
0.000

$$$$
VeraChem MOL file


 23 22  0  0  0  0  0  0  0  0999 V2000     
   17.6064   19.4736   20.6264 N   0  3  0  0  0  0  0  0  0  0  0  0
   17.1458   18.6114   20.3182 H   0  0  0  0  0  0  0  0  0  0  0  0
   18.5884   19.4116   20.3410 H   0  0  0  0  0  0  0  0  0  0  0  0
   17.1863   20.2437   20.0952 H   0  0  0  0  0  0  0  0  0  0  0  0
   17.4706   19.6808   22.1221 C   0  0  0  0  0  0  0  0  0  0  0  0
   16.4051   19.7723   22.3498 H   0  0  0  0  0  0  0  0  0  0  0  0
   17.9535   20.6271   22.3786 H   0  0  0  0  0  0  0  0  0  0  0  0
   18.0766   18.5391   22.9638 C   0  0  0  0  0  0  0  0  0  0  0  0
   17.8855   18.7445   24.0255 H   0  0  0  0  0  0  0  0  0  0  0  0
   17.5473   17.6050   22.7335 H   0  0  0  0  0  0  0  0  0  0  0  0
   19.5973   18.3307   22.7501 C   0  0  0  0  0  0  0  0  0  0  0  0
   19.7934   18.0498   21.7068 H   0  0  0  0  0  0  0  0  0  0  0  0
   19.9121   17.4748   23.3610 H   0  0  0  0  0  0  0  0  0  0  0  0
   20.4424   19.5743   23.1263 C   0  0  0  0  0  0  0  0  0  0  0  0
   20.1119   20.4369   22.5330 H   0  0  0  0  0  0  0  0  0  0  0  0
   20.2661   19.8372   24.1784 H   0  0  0  0  0  0  0  0  0  0  0  0
   21.9602   19.3823   22.8898 C   0  0  0  0  0  0  0  0  0  0  0  0
   22.4678   20.3405   23.0684 H   0  0  0  0  0  0  0  0  0  0  0  0
   22.1436   19.1296   21.8362 H   0  0  0  0  0  0  0  0  0  0  0  0
   22.5954   18.3072   23.8009 C   0  0  0  0  0  0  0  0  0  0  0  0
   22.3975   18.5194   24.8596 H   0  0  0  0  0  0  0  0  0  0  0  0
   23.6840   18.2810   23.6621 H   0  0  0  0  0  0  0  0  0  0  0  0
   22.2108   17.3056   23.5727 H   0  0  0  0  0  0  0  0  0  0  0  0
  1  2  1  0  0  0  0
  1  3  1  0  0  0  0
  1  4  1  0  0  0  0
  1  5  1  0  0  0  0
  5  6  1  0  0  0  0
  5  7  1  0  0  0  0
  5  8  1  0  0  0  0
  8  9  1  0  0  0  0
  8 10  1  0  0  0  0
  8 11  1  0  0  0  0
 11 12  1  0  0  0  0
 11 13  1  0  0  0  0
 11 14  1  0  0  0  0
 14 15  1  0  0  0  0
 14 16  1  0  0  0  0
 14 17  1  0  0  0  0
 17 18  1  0  0  0  0
 17 19  1  0  0  0  0
 17 20  1  0  0  0  0
 20 21  1  0  0  0  0
 20 22  1  0  0  0  0
 20 23  1  0  0  0  0
M  END
> <VConfSearch Rank>
631

> <Conf_Id>
50

> <Delta U+W>
1.252

> <U+W>
-7.130

> <U>
48.727

> <W>
-55.857

> <W(PB)>
-57.937

> <W(SA)>
2.080

> <Valence>
2.671

> <Coulomb>
45.371

> <VdW>
0.684

> <VdW6>
-6.511

> <VdW12>
7.196

> <Bond>
0.203

> <Angle>
0.915

> <Pdih>
1.554

> <Idih>
0.000

> <Tether>
0.000

$$$$
VeraChem MOL file


 23 22  0  0  0  0  0  0  0  0999 V2000     
   18.9875   15.9827   22.3895 N   0  3  0  0  0  0  0  0  0  0  0  0
   18.5847   16.2475   23.2935 H   0  0  0  0  0  0  0  0  0  0  0  0
   19.2924   15.0069   22.4718 H   0  0  0  0  0  0  0  0  0  0  0  0
   18.2277   16.0013   21.7018 H   0  0  0  0  0  0  0  0  0  0  0  0
   20.1298   16.8976   21.9926 C   0  0  0  0  0  0  0  0  0  0  0  0
   20.5336   16.5312   21.0449 H   0  0  0  0  0  0  0  0  0  0  0  0
   20.9121   16.8125   22.7516 H   0  0  0  0  0  0  0  0  0  0  0  0
   19.7186   18.3744   21.8354 C   0  0  0  0  0  0  0  0  0  0  0  0
   20.5782   18.9295   21.4436 H   0  0  0  0  0  0  0  0  0  0  0  0
   18.9293   18.4539   21.0761 H   0  0  0  0  0  0  0  0  0  0  0  0
   19.2342   19.0043   23.1663 C   0  0  0  0  0  0  0  0  0  0  0  0
   19.9791   18.8454   23.9582 H   0  0  0  0  0  0  0  0  0  0  0  0
   18.3270   18.4778   23.4914 H   0  0  0  0  0  0  0  0  0  0  0  0
   18.8998   20.5143   23.0465 C   0  0  0  0  0  0  0  0  0  0  0  0
   18.5649   20.7514   22.0273 H   0  0  0  0  0  0  0  0  0  0  0  0
   18.0402   20.7272   23.6969 H   0  0  0  0  0  0  0  0  0  0  0  0
   20.0481   21.4676   23.4659 C   0  0  0  0  0  0  0  0  0  0  0  0
   20.3067   21.2915   24.5193 H   0  0  0  0  0  0  0  0  0  0  0  0
   19.6795   22.5016   23.4125 H   0  0  0  0  0  0  0  0  0  0  0  0
   21.3213   21.3509   22.5997 C   0  0  0  0  0  0  0  0  0  0  0  0
   21.0870   21.4642   21.5333 H   0  0  0  0  0  0  0  0  0  0  0  0
   21.8176   20.3841   22.7486 H   0  0  0  0  0  0  0  0  0  0  0  0
   22.0418   22.1337   22.8699 H   0  0  0  0  0  0  0  0  0  0  0  0
  1  2  1  0  0  0  0
  1  3  1  0  0  0  0
  1  4  1  0  0  0  0
  1  5  1  0  0  0  0
  5  6  1  0  0  0  0
  5  7  1  0  0  0  0
  5  8  1  0  0  0  0
  8  9  1  0  0  0  0
  8 10  1  0  0  0  0
  8 11  1  0  0  0  0
 11 12  1  0  0  0  0
 11 13  1  0  0  0  0
 11 14  1  0  0  0  0
 14 15  1  0  0  0  0
 14 16  1  0  0  0  0
 14 17  1  0  0  0  0
 17 18  1  0  0  0  0
 17 19  1  0  0  0  0
 17 20  1  0  0  0  0
 20 21  1  0  0  0  0
 20 22  1  0  0  0  0
 20 23  1  0  0  0  0
M  END
> <VConfSearch Rank>
632

> <Conf_Id>
55

> <Delta U+W>
3.232

> <U+W>
-5.150

> <U>
50.625

> <W>
-55.776

> <W(PB)>
-57.839

> <W(SA)>
2.064

> <Valence>
4.837

> <Coulomb>
45.097

> <VdW>
0.692

> <VdW6>
-6.655

> <VdW12>
7.347

> <Bond>
0.223

> <Angle>
1.167

> <Pdih>
3.447

> <Idih>
0.000

> <Tether>
0.000

$$$$
VeraChem MOL file


 23 22  0  0  0  0  0  0  0  0999 V2000     
   18.2900   21.4919   21.4548 N   0  3  0  0  0  0  0  0  0  0  0  0
   18.2991   22.4062   21.9182 H   0  0  0  0  0  0  0  0  0  0  0  0
   17.3584   21.3772   21.0412 H   0  0  0  0  0  0  0  0  0  0  0  0
   18.9570   21.5412   20.6780 H   0  0  0  0  0  0  0  0  0  0  0  0
   18.6221   20.3682   22.4153 C   0  0  0  0  0  0  0  0  0  0  0  0
   18.5578   19.4284   21.8639 H   0  0  0  0  0  0  0  0  0  0  0  0
   17.8577   20.3574   23.1969 H   0  0  0  0  0  0  0  0  0  0  0  0
   20.0148   20.5174   23.0585 C   0  0  0  0  0  0  0  0  0  0  0  0
   20.7898   20.5765   22.2828 H   0  0  0  0  0  0  0  0  0  0  0  0
   20.0406   21.4748   23.5959 H   0  0  0  0  0  0  0  0  0  0  0  0
   20.3476   19.3817   24.0590 C   0  0  0  0  0  0  0  0  0  0  0  0
   19.4465   19.0992   24.6210 H   0  0  0  0  0  0  0  0  0  0  0  0
   21.0502   19.7788   24.8049 H   0  0  0  0  0  0  0  0  0  0  0  0
   20.9987   18.1235   23.4278 C   0  0  0  0  0  0  0  0  0  0  0  0
   21.9524   18.4014   22.9583 H   0  0  0  0  0  0  0  0  0  0  0  0
   21.2508   17.4262   24.2388 H   0  0  0  0  0  0  0  0  0  0  0  0
   20.1132   17.3898   22.3943 C   0  0  0  0  0  0  0  0  0  0  0  0
   19.9804   18.0170   21.5034 H   0  0  0  0  0  0  0  0  0  0  0  0
   19.1154   17.2090   22.8181 H   0  0  0  0  0  0  0  0  0  0  0  0
   20.7371   16.0455   21.9626 C   0  0  0  0  0  0  0  0  0  0  0  0
   20.8520   15.3694   22.8198 H   0  0  0  0  0  0  0  0  0  0  0  0
   21.7263   16.1966   21.5112 H   0  0  0  0  0  0  0  0  0  0  0  0
   20.1016   15.5436   21.2214 H   0  0  0  0  0  0  0  0  0  0  0  0
  1  2  1  0  0  0  0
  1  3  1  0  0  0  0
  1  4  1  0  0  0  0
  1  5  1  0  0  0  0
  5  6  1  0  0  0  0
  5  7  1  0  0  0  0
  5  8  1  0  0  0  0
  8  9  1  0  0  0  0
  8 10  1  0  0  0  0
  8 11  1  0  0  0  0
 11 12  1  0  0  0  0
 11 13  1  0  0  0  0
 11 14  1  0  0  0  0
 14 15  1  0  0  0  0
 14 16  1  0  0  0  0
 14 17  1  0  0  0  0
 17 18  1  0  0  0  0
 17 19  1  0  0  0  0
 17 20  1  0  0  0  0
 20 21  1  0  0  0  0
 20 22  1  0  0  0  0
 20 23  1  0  0  0  0
M  END
> <VConfSearch Rank>
633

> <Conf_Id>
93

> <Delta U+W>
2.589

> <U+W>
-5.793

> <U>
50.122

> <W>
-55.915

> <W(PB)>
-58.031

> <W(SA)>
2.115

> <Valence>
4.132

> <Coulomb>
45.536

> <VdW>
0.454

> <VdW6>
-6.262

> <VdW12>
6.715

> <Bond>
0.182

> <Angle>
1.157

> <Pdih>
2.794

> <Idih>
0.000

> <Tether>
0.000

$$$$
VeraChem MOL file


 23 22  0  0  0  0  0  0  0  0999 V2000     
   17.5949   19.3115   24.8864 N   0  3  0  0  0  0  0  0  0  0  0  0
   16.9014   19.6056   24.1911 H   0  0  0  0  0  0  0  0  0  0  0  0
   17.6793   20.0758   25.5652 H   0  0  0  0  0  0  0  0  0  0  0  0
   17.1977   18.5107   25.3881 H   0  0  0  0  0  0  0  0  0  0  0  0
   18.9274   18.9745   24.2490 C   0  0  0  0  0  0  0  0  0  0  0  0
   19.6217   18.6992   25.0474 H   0  0  0  0  0  0  0  0  0  0  0  0
   19.3046   19.8784   23.7672 H   0  0  0  0  0  0  0  0  0  0  0  0
   18.8330   17.8234   23.2284 C   0  0  0  0  0  0  0  0  0  0  0  0
   18.4447   16.9379   23.7491 H   0  0  0  0  0  0  0  0  0  0  0  0
   18.1036   18.0665   22.4443 H   0  0  0  0  0  0  0  0  0  0  0  0
   20.1988   17.4611   22.5920 C   0  0  0  0  0  0  0  0  0  0  0  0
   20.1705   16.4012   22.3032 H   0  0  0  0  0  0  0  0  0  0  0  0
   20.9973   17.5430   23.3425 H   0  0  0  0  0  0  0  0  0  0  0  0
   20.5693   18.2796   21.3278 C   0  0  0  0  0  0  0  0  0  0  0  0
   21.5154   17.8859   20.9313 H   0  0  0  0  0  0  0  0  0  0  0  0
   19.8166   18.1067   20.5462 H   0  0  0  0  0  0  0  0  0  0  0  0
   20.7208   19.7997   21.5662 C   0  0  0  0  0  0  0  0  0  0  0  0
   21.3852   19.9796   22.4229 H   0  0  0  0  0  0  0  0  0  0  0  0
   19.7453   20.2387   21.8122 H   0  0  0  0  0  0  0  0  0  0  0  0
   21.2849   20.5177   20.3216 C   0  0  0  0  0  0  0  0  0  0  0  0
   21.3756   21.5963   20.5042 H   0  0  0  0  0  0  0  0  0  0  0  0
   20.6279   20.3770   19.4534 H   0  0  0  0  0  0  0  0  0  0  0  0
   22.2809   20.1357   20.0621 H   0  0  0  0  0  0  0  0  0  0  0  0
  1  2  1  0  0  0  0
  1  3  1  0  0  0  0
  1  4  1  0  0  0  0
  1  5  1  0  0  0  0
  5  6  1  0  0  0  0
  5  7  1  0  0  0  0
  5  8  1  0  0  0  0
  8  9  1  0  0  0  0
  8 10  1  0  0  0  0
  8 11  1  0  0  0  0
 11 12  1  0  0  0  0
 11 13  1  0  0  0  0
 11 14  1  0  0  0  0
 14 15  1  0  0  0  0
 14 16  1  0  0  0  0
 14 17  1  0  0  0  0
 17 18  1  0  0  0  0
 17 19  1  0  0  0  0
 17 20  1  0  0  0  0
 20 21  1  0  0  0  0
 20 22  1  0  0  0  0
 20 23  1  0  0  0  0
M  END
> <VConfSearch Rank>
634

> <Conf_Id>
70

> <Delta U+W>
2.599

> <U+W>
-5.783

> <U>
50.122

> <W>
-55.906

> <W(PB)>
-58.010

> <W(SA)>
2.105

> <Valence>
4.132

> <Coulomb>
45.536

> <VdW>
0.454

> <VdW6>
-6.262

> <VdW12>
6.715

> <Bond>
0.182

> <Angle>
1.157

> <Pdih>
2.794

> <Idih>
0.000

> <Tether>
0.000

$$$$
VeraChem MOL file


 23 22  0  0  0  0  0  0  0  0999 V2000     
   21.6852   18.4501   24.6578 N   0  3  0  0  0  0  0  0  0  0  0  0
   21.4376   18.1018   25.5894 H   0  0  0  0  0  0  0  0  0  0  0  0
   22.6646   18.7513   24.7014 H   0  0  0  0  0  0  0  0  0  0  0  0
   21.6433   17.6532   24.0154 H   0  0  0  0  0  0  0  0  0  0  0  0
   20.7689   19.5740   24.2154 C   0  0  0  0  0  0  0  0  0  0  0  0
   21.1058   19.9210   23.2351 H   0  0  0  0  0  0  0  0  0  0  0  0
   20.8849   20.3973   24.9254 H   0  0  0  0  0  0  0  0  0  0  0  0
   19.2834   19.1670   24.1410 C   0  0  0  0  0  0  0  0  0  0  0  0
   18.9468   18.8534   25.1380 H   0  0  0  0  0  0  0  0  0  0  0  0
   18.6859   20.0524   23.8890 H   0  0  0  0  0  0  0  0  0  0  0  0
   18.9908   18.0326   23.1240 C   0  0  0  0  0  0  0  0  0  0  0  0
   17.9093   17.8394   23.1108 H   0  0  0  0  0  0  0  0  0  0  0  0
   19.4538   17.1014   23.4773 H   0  0  0  0  0  0  0  0  0  0  0  0
   19.4722   18.3128   21.6767 C   0  0  0  0  0  0  0  0  0  0  0  0
   20.5653   18.4153   21.6562 H   0  0  0  0  0  0  0  0  0  0  0  0
   19.2392   17.4349   21.0584 H   0  0  0  0  0  0  0  0  0  0  0  0
   18.8201   19.5625   21.0397 C   0  0  0  0  0  0  0  0  0  0  0  0
   19.0987   20.4636   21.6022 H   0  0  0  0  0  0  0  0  0  0  0  0
   17.7257   19.4784   21.0940 H   0  0  0  0  0  0  0  0  0  0  0  0
   19.2475   19.7395   19.5672 C   0  0  0  0  0  0  0  0  0  0  0  0
   18.7783   20.6313   19.1319 H   0  0  0  0  0  0  0  0  0  0  0  0
   18.9495   18.8732   18.9623 H   0  0  0  0  0  0  0  0  0  0  0  0
   20.3359   19.8567   19.4837 H   0  0  0  0  0  0  0  0  0  0  0  0
  1  2  1  0  0  0  0
  1  3  1  0  0  0  0
  1  4  1  0  0  0  0
  1  5  1  0  0  0  0
  5  6  1  0  0  0  0
  5  7  1  0  0  0  0
  5  8  1  0  0  0  0
  8  9  1  0  0  0  0
  8 10  1  0  0  0  0
  8 11  1  0  0  0  0
 11 12  1  0  0  0  0
 11 13  1  0  0  0  0
 11 14  1  0  0  0  0
 14 15  1  0  0  0  0
 14 16  1  0  0  0  0
 14 17  1  0  0  0  0
 17 18  1  0  0  0  0
 17 19  1  0  0  0  0
 17 20  1  0  0  0  0
 20 21  1  0  0  0  0
 20 22  1  0  0  0  0
 20 23  1  0  0  0  0
M  END
> <VConfSearch Rank>
635

> <Conf_Id>
72

> <Delta U+W>
1.051

> <U+W>
-7.331

> <U>
48.590

> <W>
-55.922

> <W(PB)>
-58.012

> <W(SA)>
2.090

> <Valence>
2.601

> <Coulomb>
45.520

> <VdW>
0.469

> <VdW6>
-6.867

> <VdW12>
7.336

> <Bond>
0.205

> <Angle>
0.962

> <Pdih>
1.434

> <Idih>
0.000

> <Tether>
0.000

$$$$
VeraChem MOL file


 23 22  0  0  0  0  0  0  0  0999 V2000     
   22.0426   19.0557   24.7481 N   0  3  0  0  0  0  0  0  0  0  0  0
   21.9920   19.0116   25.7716 H   0  0  0  0  0  0  0  0  0  0  0  0
   22.8290   19.6706   24.5154 H   0  0  0  0  0  0  0  0  0  0  0  0
   22.2877   18.1157   24.4210 H   0  0  0  0  0  0  0  0  0  0  0  0
   20.7437   19.5453   24.1409 C   0  0  0  0  0  0  0  0  0  0  0  0
   20.5299   20.5352   24.5531 H   0  0  0  0  0  0  0  0  0  0  0  0
   19.9487   18.8632   24.4534 H   0  0  0  0  0  0  0  0  0  0  0  0
   20.7870   19.6228   22.6034 C   0  0  0  0  0  0  0  0  0  0  0  0
   21.6122   20.2806   22.3000 H   0  0  0  0  0  0  0  0  0  0  0  0
   21.0144   18.6323   22.1891 H   0  0  0  0  0  0  0  0  0  0  0  0
   19.4685   20.1616   21.9948 C   0  0  0  0  0  0  0  0  0  0  0  0
   19.5720   20.2133   20.9028 H   0  0  0  0  0  0  0  0  0  0  0  0
   19.3222   21.1986   22.3274 H   0  0  0  0  0  0  0  0  0  0  0  0
   18.2007   19.3421   22.3577 C   0  0  0  0  0  0  0  0  0  0  0  0
   18.0056   19.4296   23.4350 H   0  0  0  0  0  0  0  0  0  0  0  0
   17.3334   19.8008   21.8631 H   0  0  0  0  0  0  0  0  0  0  0  0
   18.2554   17.8402   21.9786 C   0  0  0  0  0  0  0  0  0  0  0  0
   17.3157   17.3652   22.2933 H   0  0  0  0  0  0  0  0  0  0  0  0
   19.0509   17.3349   22.5424 H   0  0  0  0  0  0  0  0  0  0  0  0
   18.4530   17.5970   20.4652 C   0  0  0  0  0  0  0  0  0  0  0  0
   17.6753   18.1040   19.8795 H   0  0  0  0  0  0  0  0  0  0  0  0
   18.3992   16.5245   20.2378 H   0  0  0  0  0  0  0  0  0  0  0  0
   19.4309   17.9585   20.1239 H   0  0  0  0  0  0  0  0  0  0  0  0
  1  2  1  0  0  0  0
  1  3  1  0  0  0  0
  1  4  1  0  0  0  0
  1  5  1  0  0  0  0
  5  6  1  0  0  0  0
  5  7  1  0  0  0  0
  5  8  1  0  0  0  0
  8  9  1  0  0  0  0
  8 10  1  0  0  0  0
  8 11  1  0  0  0  0
 11 12  1  0  0  0  0
 11 13  1  0  0  0  0
 11 14  1  0  0  0  0
 14 15  1  0  0  0  0
 14 16  1  0  0  0  0
 14 17  1  0  0  0  0
 17 18  1  0  0  0  0
 17 19  1  0  0  0  0
 17 20  1  0  0  0  0
 20 21  1  0  0  0  0
 20 22  1  0  0  0  0
 20 23  1  0  0  0  0
M  END
> <VConfSearch Rank>
636

> <Conf_Id>
26

> <Delta U+W>
1.076

> <U+W>
-7.306

> <U>
48.641

> <W>
-55.947

> <W(PB)>
-58.031

> <W(SA)>
2.084

> <Valence>
2.922

> <Coulomb>
45.269

> <VdW>
0.449

> <VdW6>
-7.045

> <VdW12>
7.494

> <Bond>
0.220

> <Angle>
1.205

> <Pdih>
1.497

> <Idih>
0.000

> <Tether>
0.000

$$$$
VeraChem MOL file


 23 22  0  0  0  0  0  0  0  0999 V2000     
   18.5125   21.3171   24.2640 N   0  3  0  0  0  0  0  0  0  0  0  0
   18.6961   22.2596   23.9052 H   0  0  0  0  0  0  0  0  0  0  0  0
   18.3666   21.4067   25.2752 H   0  0  0  0  0  0  0  0  0  0  0  0
   17.6221   21.0089   23.8604 H   0  0  0  0  0  0  0  0  0  0  0  0
   19.6416   20.3598   23.9409 C   0  0  0  0  0  0  0  0  0  0  0  0
   19.3938   19.3886   24.3770 H   0  0  0  0  0  0  0  0  0  0  0  0
   20.5492   20.7324   24.4235 H   0  0  0  0  0  0  0  0  0  0  0  0
   19.8864   20.2027   22.4286 C   0  0  0  0  0  0  0  0  0  0  0  0
   18.9719   19.8412   21.9412 H   0  0  0  0  0  0  0  0  0  0  0  0
   20.0975   21.1890   21.9944 H   0  0  0  0  0  0  0  0  0  0  0  0
   21.0676   19.2529   22.1098 C   0  0  0  0  0  0  0  0  0  0  0  0
   21.9938   19.6945   22.5029 H   0  0  0  0  0  0  0  0  0  0  0  0
   21.2034   19.2017   21.0213 H   0  0  0  0  0  0  0  0  0  0  0  0
   20.9220   17.8172   22.6827 C   0  0  0  0  0  0  0  0  0  0  0  0
   21.8016   17.2301   22.3845 H   0  0  0  0  0  0  0  0  0  0  0  0
   20.9529   17.8573   23.7798 H   0  0  0  0  0  0  0  0  0  0  0  0
   19.6432   17.0589   22.2445 C   0  0  0  0  0  0  0  0  0  0  0  0
   18.7490   17.5720   22.6229 H   0  0  0  0  0  0  0  0  0  0  0  0
   19.6442   16.0676   22.7189 H   0  0  0  0  0  0  0  0  0  0  0  0
   19.5325   16.8775   20.7137 C   0  0  0  0  0  0  0  0  0  0  0  0
   19.4181   17.8410   20.2017 H   0  0  0  0  0  0  0  0  0  0  0  0
   18.6586   16.2631   20.4614 H   0  0  0  0  0  0  0  0  0  0  0  0
   20.4225   16.3772   20.3105 H   0  0  0  0  0  0  0  0  0  0  0  0
  1  2  1  0  0  0  0
  1  3  1  0  0  0  0
  1  4  1  0  0  0  0
  1  5  1  0  0  0  0
  5  6  1  0  0  0  0
  5  7  1  0  0  0  0
  5  8  1  0  0  0  0
  8  9  1  0  0  0  0
  8 10  1  0  0  0  0
  8 11  1  0  0  0  0
 11 12  1  0  0  0  0
 11 13  1  0  0  0  0
 11 14  1  0  0  0  0
 14 15  1  0  0  0  0
 14 16  1  0  0  0  0
 14 17  1  0  0  0  0
 17 18  1  0  0  0  0
 17 19  1  0  0  0  0
 17 20  1  0  0  0  0
 20 21  1  0  0  0  0
 20 22  1  0  0  0  0
 20 23  1  0  0  0  0
M  END
> <VConfSearch Rank>
637

> <Conf_Id>
90

> <Delta U+W>
1.131

> <U+W>
-7.251

> <U>
48.641

> <W>
-55.892

> <W(PB)>
-57.962

> <W(SA)>
2.070

> <Valence>
2.922

> <Coulomb>
45.269

> <VdW>
0.450

> <VdW6>
-7.045

> <VdW12>
7.495

> <Bond>
0.220

> <Angle>
1.205

> <Pdih>
1.497

> <Idih>
0.000

> <Tether>
0.000

$$$$
VeraChem MOL file


 23 22  0  0  0  0  0  0  0  0999 V2000     
   18.2478   17.5827   20.9396 N   0  3  0  0  0  0  0  0  0  0  0  0
   18.2814   17.2885   19.9576 H   0  0  0  0  0  0  0  0  0  0  0  0
   18.3824   18.5982   20.9545 H   0  0  0  0  0  0  0  0  0  0  0  0
   17.2972   17.3973   21.2750 H   0  0  0  0  0  0  0  0  0  0  0  0
   19.2898   16.8684   21.7776 C   0  0  0  0  0  0  0  0  0  0  0  0
   20.2729   17.0818   21.3502 H   0  0  0  0  0  0  0  0  0  0  0  0
   19.1082   15.7938   21.6898 H   0  0  0  0  0  0  0  0  0  0  0  0
   19.2699   17.2708   23.2664 C   0  0  0  0  0  0  0  0  0  0  0  0
   18.2943   17.0086   23.6969 H   0  0  0  0  0  0  0  0  0  0  0  0
   20.0133   16.6674   23.8041 H   0  0  0  0  0  0  0  0  0  0  0  0
   19.5535   18.7733   23.5165 C   0  0  0  0  0  0  0  0  0  0  0  0
   19.5028   18.9638   24.5974 H   0  0  0  0  0  0  0  0  0  0  0  0
   18.7575   19.3766   23.0621 H   0  0  0  0  0  0  0  0  0  0  0  0
   20.9369   19.2263   22.9852 C   0  0  0  0  0  0  0  0  0  0  0  0
   21.7109   18.5566   23.3849 H   0  0  0  0  0  0  0  0  0  0  0  0
   20.9748   19.1256   21.8924 H   0  0  0  0  0  0  0  0  0  0  0  0
   21.2970   20.6806   23.3733 C   0  0  0  0  0  0  0  0  0  0  0  0
   22.3283   20.8859   23.0538 H   0  0  0  0  0  0  0  0  0  0  0  0
   21.2874   20.7872   24.4670 H   0  0  0  0  0  0  0  0  0  0  0  0
   20.3602   21.7343   22.7398 C   0  0  0  0  0  0  0  0  0  0  0  0
   20.3317   21.6316   21.6472 H   0  0  0  0  0  0  0  0  0  0  0  0
   20.7105   22.7484   22.9720 H   0  0  0  0  0  0  0  0  0  0  0  0
   19.3356   21.6446   23.1213 H   0  0  0  0  0  0  0  0  0  0  0  0
  1  2  1  0  0  0  0
  1  3  1  0  0  0  0
  1  4  1  0  0  0  0
  1  5  1  0  0  0  0
  5  6  1  0  0  0  0
  5  7  1  0  0  0  0
  5  8  1  0  0  0  0
  8  9  1  0  0  0  0
  8 10  1  0  0  0  0
  8 11  1  0  0  0  0
 11 12  1  0  0  0  0
 11 13  1  0  0  0  0
 11 14  1  0  0  0  0
 14 15  1  0  0  0  0
 14 16  1  0  0  0  0
 14 17  1  0  0  0  0
 17 18  1  0  0  0  0
 17 19  1  0  0  0  0
 17 20  1  0  0  0  0
 20 21  1  0  0  0  0
 20 22  1  0  0  0  0
 20 23  1  0  0  0  0
M  END
> <VConfSearch Rank>
638

> <Conf_Id>
85

> <Delta U+W>
1.193

> <U+W>
-7.189

> <U>
48.775

> <W>
-55.965

> <W(PB)>
-58.038

> <W(SA)>
2.073

> <Valence>
2.602

> <Coulomb>
45.581

> <VdW>
0.592

> <VdW6>
-6.616

> <VdW12>
7.208

> <Bond>
0.196

> <Angle>
0.832

> <Pdih>
1.574

> <Idih>
0.000

> <Tether>
0.000

$$$$
VeraChem MOL file


 23 22  0  0  0  0  0  0  0  0999 V2000     
   21.7686   18.5885   22.5043 N   0  3  0  0  0  0  0  0  0  0  0  0
   20.9376   18.1186   22.1309 H   0  0  0  0  0  0  0  0  0  0  0  0
   22.3596   17.8702   22.9368 H   0  0  0  0  0  0  0  0  0  0  0  0
   22.2914   18.9651   21.7070 H   0  0  0  0  0  0  0  0  0  0  0  0
   21.3908   19.6759   23.4914 C   0  0  0  0  0  0  0  0  0  0  0  0
   22.3232   20.1276   23.8411 H   0  0  0  0  0  0  0  0  0  0  0  0
   20.8953   19.2137   24.3492 H   0  0  0  0  0  0  0  0  0  0  0  0
   20.4900   20.7776   22.8967 C   0  0  0  0  0  0  0  0  0  0  0  0
   20.6030   21.6740   23.5207 H   0  0  0  0  0  0  0  0  0  0  0  0
   20.8569   21.0593   21.9007 H   0  0  0  0  0  0  0  0  0  0  0  0
   18.9777   20.4332   22.8317 C   0  0  0  0  0  0  0  0  0  0  0  0
   18.4556   21.3190   22.4440 H   0  0  0  0  0  0  0  0  0  0  0  0
   18.5837   20.2813   23.8462 H   0  0  0  0  0  0  0  0  0  0  0  0
   18.6104   19.2269   21.9299 C   0  0  0  0  0  0  0  0  0  0  0  0
   17.6497   19.4377   21.4396 H   0  0  0  0  0  0  0  0  0  0  0  0
   19.3409   19.1253   21.1164 H   0  0  0  0  0  0  0  0  0  0  0  0
   18.4616   17.9013   22.7159 C   0  0  0  0  0  0  0  0  0  0  0  0
   17.6103   17.9833   23.4062 H   0  0  0  0  0  0  0  0  0  0  0  0
   19.3412   17.7124   23.3427 H   0  0  0  0  0  0  0  0  0  0  0  0
   18.2353   16.7009   21.7726 C   0  0  0  0  0  0  0  0  0  0  0  0
   17.3284   16.8398   21.1695 H   0  0  0  0  0  0  0  0  0  0  0  0
   18.1172   15.7733   22.3476 H   0  0  0  0  0  0  0  0  0  0  0  0
   19.0825   16.5669   21.0878 H   0  0  0  0  0  0  0  0  0  0  0  0
  1  2  1  0  0  0  0
  1  3  1  0  0  0  0
  1  4  1  0  0  0  0
  1  5  1  0  0  0  0
  5  6  1  0  0  0  0
  5  7  1  0  0  0  0
  5  8  1  0  0  0  0
  8  9  1  0  0  0  0
  8 10  1  0  0  0  0
  8 11  1  0  0  0  0
 11 12  1  0  0  0  0
 11 13  1  0  0  0  0
 11 14  1  0  0  0  0
 14 15  1  0  0  0  0
 14 16  1  0  0  0  0
 14 17  1  0  0  0  0
 17 18  1  0  0  0  0
 17 19  1  0  0  0  0
 17 20  1  0  0  0  0
 20 21  1  0  0  0  0
 20 22  1  0  0  0  0
 20 23  1  0  0  0  0
M  END
> <VConfSearch Rank>
639

> <Conf_Id>
82

> <Delta U+W>
5.994

> <U+W>
-2.388

> <U>
52.836

> <W>
-55.224

> <W(PB)>
-57.261

> <W(SA)>
2.037

> <Valence>
5.785

> <Coulomb>
46.744

> <VdW>
0.307

> <VdW6>
-7.672

> <VdW12>
7.979

> <Bond>
0.217

> <Angle>
1.470

> <Pdih>
4.098

> <Idih>
0.000

> <Tether>
0.000

$$$$
VeraChem MOL file


 23 22  0  0  0  0  0  0  0  0999 V2000     
   19.8639   21.0087   22.1178 N   0  3  0  0  0  0  0  0  0  0  0  0
   19.8883   21.6643   22.9056 H   0  0  0  0  0  0  0  0  0  0  0  0
   20.1484   21.5334   21.2835 H   0  0  0  0  0  0  0  0  0  0  0  0
   20.5794   20.2955   22.2911 H   0  0  0  0  0  0  0  0  0  0  0  0
   18.4920   20.3847   21.9498 C   0  0  0  0  0  0  0  0  0  0  0  0
   18.5033   19.7476   21.0615 H   0  0  0  0  0  0  0  0  0  0  0  0
   17.7888   21.2028   21.7715 H   0  0  0  0  0  0  0  0  0  0  0  0
   18.0188   19.5717   23.1720 C   0  0  0  0  0  0  0  0  0  0  0  0
   18.2506   20.1200   24.0948 H   0  0  0  0  0  0  0  0  0  0  0  0
   16.9232   19.5108   23.1284 H   0  0  0  0  0  0  0  0  0  0  0  0
   18.5706   18.1232   23.2579 C   0  0  0  0  0  0  0  0  0  0  0  0
   18.2244   17.5382   22.3945 H   0  0  0  0  0  0  0  0  0  0  0  0
   18.1119   17.6487   24.1365 H   0  0  0  0  0  0  0  0  0  0  0  0
   20.1100   18.0072   23.3990 C   0  0  0  0  0  0  0  0  0  0  0  0
   20.5118   18.8926   23.9093 H   0  0  0  0  0  0  0  0  0  0  0  0
   20.3369   17.1579   24.0585 H   0  0  0  0  0  0  0  0  0  0  0  0
   20.8293   17.7659   22.0494 C   0  0  0  0  0  0  0  0  0  0  0  0
   20.5246   18.5069   21.3009 H   0  0  0  0  0  0  0  0  0  0  0  0
   20.5271   16.7884   21.6478 H   0  0  0  0  0  0  0  0  0  0  0  0
   22.3643   17.7962   22.2074 C   0  0  0  0  0  0  0  0  0  0  0  0
   22.7078   18.7711   22.5766 H   0  0  0  0  0  0  0  0  0  0  0  0
   22.8566   17.6084   21.2443 H   0  0  0  0  0  0  0  0  0  0  0  0
   22.7026   17.0263   22.9132 H   0  0  0  0  0  0  0  0  0  0  0  0
  1  2  1  0  0  0  0
  1  3  1  0  0  0  0
  1  4  1  0  0  0  0
  1  5  1  0  0  0  0
  5  6  1  0  0  0  0
  5  7  1  0  0  0  0
  5  8  1  0  0  0  0
  8  9  1  0  0  0  0
  8 10  1  0  0  0  0
  8 11  1  0  0  0  0
 11 12  1  0  0  0  0
 11 13  1  0  0  0  0
 11 14  1  0  0  0  0
 14 15  1  0  0  0  0
 14 16  1  0  0  0  0
 14 17  1  0  0  0  0
 17 18  1  0  0  0  0
 17 19  1  0  0  0  0
 17 20  1  0  0  0  0
 20 21  1  0  0  0  0
 20 22  1  0  0  0  0
 20 23  1  0  0  0  0
M  END
> <VConfSearch Rank>
640

> <Conf_Id>
5

> <Delta U+W>
6.087

> <U+W>
-2.295

> <U>
52.836

> <W>
-55.131

> <W(PB)>
-57.202

> <W(SA)>
2.071

> <Valence>
5.785

> <Coulomb>
46.744

> <VdW>
0.307

> <VdW6>
-7.672

> <VdW12>
7.980

> <Bond>
0.217

> <Angle>
1.470

> <Pdih>
4.098

> <Idih>
0.000

> <Tether>
0.000

$$$$
VeraChem MOL file


 23 22  0  0  0  0  0  0  0  0999 V2000     
   23.4160   19.6872   23.6083 N   0  3  0  0  0  0  0  0  0  0  0  0
   23.2543   20.6188   24.0043 H   0  0  0  0  0  0  0  0  0  0  0  0
   24.3547   19.6980   23.1951 H   0  0  0  0  0  0  0  0  0  0  0  0
   23.4433   19.0270   24.3921 H   0  0  0  0  0  0  0  0  0  0  0  0
   22.3574   19.3136   22.5906 C   0  0  0  0  0  0  0  0  0  0  0  0
   22.6074   18.3274   22.1901 H   0  0  0  0  0  0  0  0  0  0  0  0
   22.4043   20.0384   21.7733 H   0  0  0  0  0  0  0  0  0  0  0  0
   20.9358   19.2883   23.1797 C   0  0  0  0  0  0  0  0  0  0  0  0
   20.8977   18.5711   24.0105 H   0  0  0  0  0  0  0  0  0  0  0  0
   20.6953   20.2760   23.5952 H   0  0  0  0  0  0  0  0  0  0  0  0
   19.8879   18.9039   22.1118 C   0  0  0  0  0  0  0  0  0  0  0  0
   20.1350   17.9176   21.6948 H   0  0  0  0  0  0  0  0  0  0  0  0
   19.9329   19.6207   21.2800 H   0  0  0  0  0  0  0  0  0  0  0  0
   18.4559   18.8754   22.6928 C   0  0  0  0  0  0  0  0  0  0  0  0
   18.4108   18.1586   23.5244 H   0  0  0  0  0  0  0  0  0  0  0  0
   18.2087   19.8615   23.1098 H   0  0  0  0  0  0  0  0  0  0  0  0
   17.4082   18.4909   21.6245 C   0  0  0  0  0  0  0  0  0  0  0  0
   17.6498   17.5038   21.2059 H   0  0  0  0  0  0  0  0  0  0  0  0
   17.4477   19.2067   20.7914 H   0  0  0  0  0  0  0  0  0  0  0  0
   15.9796   18.4635   22.2083 C   0  0  0  0  0  0  0  0  0  0  0  0
   15.2501   18.1888   21.4354 H   0  0  0  0  0  0  0  0  0  0  0  0
   15.6960   19.4473   22.6045 H   0  0  0  0  0  0  0  0  0  0  0  0
   15.8997   17.7312   23.0223 H   0  0  0  0  0  0  0  0  0  0  0  0
  1  2  1  0  0  0  0
  1  3  1  0  0  0  0
  1  4  1  0  0  0  0
  1  5  1  0  0  0  0
  5  6  1  0  0  0  0
  5  7  1  0  0  0  0
  5  8  1  0  0  0  0
  8  9  1  0  0  0  0
  8 10  1  0  0  0  0
  8 11  1  0  0  0  0
 11 12  1  0  0  0  0
 11 13  1  0  0  0  0
 11 14  1  0  0  0  0
 14 15  1  0  0  0  0
 14 16  1  0  0  0  0
 14 17  1  0  0  0  0
 17 18  1  0  0  0  0
 17 19  1  0  0  0  0
 17 20  1  0  0  0  0
 20 21  1  0  0  0  0
 20 22  1  0  0  0  0
 20 23  1  0  0  0  0
M  END
> <VConfSearch Rank>
641

> <Conf_Id>
40

> <Delta U+W>
0.000

> <U+W>
-8.382

> <U>
46.604

> <W>
-54.986

> <W(PB)>
-57.162

> <W(SA)>
2.176

> <Valence>
1.727

> <Coulomb>
44.434

> <VdW>
0.443

> <VdW6>
-4.623

> <VdW12>
5.066

> <Bond>
0.112

> <Angle>
0.386

> <Pdih>
1.228

> <Idih>
0.000

> <Tether>
0.000

$$$$
VeraChem MOL file


 23 22  0  0  0  0  0  0  0  0999 V2000     
   17.5411   16.4544   21.4921 N   0  3  0  0  0  0  0  0  0  0  0  0
   17.4220   15.7434   22.2208 H   0  0  0  0  0  0  0  0  0  0  0  0
   18.1600   16.0548   20.7793 H   0  0  0  0  0  0  0  0  0  0  0  0
   16.6243   16.5855   21.0512 H   0  0  0  0  0  0  0  0  0  0  0  0
   18.0872   17.7521   22.0521 C   0  0  0  0  0  0  0  0  0  0  0  0
   17.3674   18.1347   22.7807 H   0  0  0  0  0  0  0  0  0  0  0  0
   18.1580   18.4681   21.2294 H   0  0  0  0  0  0  0  0  0  0  0  0
   19.4647   17.5877   22.7219 C   0  0  0  0  0  0  0  0  0  0  0  0
   19.3887   16.8311   23.5142 H   0  0  0  0  0  0  0  0  0  0  0  0
   20.1884   17.2046   21.9902 H   0  0  0  0  0  0  0  0  0  0  0  0
   19.9944   18.9050   23.3367 C   0  0  0  0  0  0  0  0  0  0  0  0
   20.9162   18.6798   23.8886 H   0  0  0  0  0  0  0  0  0  0  0  0
   19.2728   19.2807   24.0753 H   0  0  0  0  0  0  0  0  0  0  0  0
   20.2773   20.0002   22.2769 C   0  0  0  0  0  0  0  0  0  0  0  0
   21.0146   19.6313   21.5506 H   0  0  0  0  0  0  0  0  0  0  0  0
   19.3609   20.2071   21.7088 H   0  0  0  0  0  0  0  0  0  0  0  0
   20.7762   21.3328   22.8865 C   0  0  0  0  0  0  0  0  0  0  0  0
   20.0375   21.7121   23.6064 H   0  0  0  0  0  0  0  0  0  0  0  0
   20.8387   22.0839   22.0866 H   0  0  0  0  0  0  0  0  0  0  0  0
   22.1581   21.2197   23.5698 C   0  0  0  0  0  0  0  0  0  0  0  0
   22.1190   20.5751   24.4565 H   0  0  0  0  0  0  0  0  0  0  0  0
   22.5066   22.2079   23.8967 H   0  0  0  0  0  0  0  0  0  0  0  0
   22.9078   20.8113   22.8796 H   0  0  0  0  0  0  0  0  0  0  0  0
  1  2  1  0  0  0  0
  1  3  1  0  0  0  0
  1  4  1  0  0  0  0
  1  5  1  0  0  0  0
  5  6  1  0  0  0  0
  5  7  1  0  0  0  0
  5  8  1  0  0  0  0
  8  9  1  0  0  0  0
  8 10  1  0  0  0  0
  8 11  1  0  0  0  0
 11 12  1  0  0  0  0
 11 13  1  0  0  0  0
 11 14  1  0  0  0  0
 14 15  1  0  0  0  0
 14 16  1  0  0  0  0
 14 17  1  0  0  0  0
 17 18  1  0  0  0  0
 17 19  1  0  0  0  0
 17 20  1  0  0  0  0
 20 21  1  0  0  0  0
 20 22  1  0  0  0  0
 20 23  1  0  0  0  0
M  END
> <VConfSearch Rank>
642

> <Conf_Id>
65

> <Delta U+W>
1.004

> <U+W>
-7.378

> <U>
48.047

> <W>
-55.425

> <W(PB)>
-57.542

> <W(SA)>
2.116

> <Valence>
2.583

> <Coulomb>
44.791

> <VdW>
0.673

> <VdW6>
-5.788

> <VdW12>
6.462

> <Bond>
0.177

> <Angle>
0.787

> <Pdih>
1.619

> <Idih>
0.000

> <Tether>
0.000

$$$$
VeraChem MOL file


 23 22  0  0  0  0  0  0  0  0999 V2000     
   19.4660   21.9522   24.6349 N   0  3  0  0  0  0  0  0  0  0  0  0
   20.2388   22.5981   24.4439 H   0  0  0  0  0  0  0  0  0  0  0  0
   19.2928   21.9857   25.6453 H   0  0  0  0  0  0  0  0  0  0  0  0
   18.6328   22.3353   24.1769 H   0  0  0  0  0  0  0  0  0  0  0  0
   19.7747   20.5459   24.1629 C   0  0  0  0  0  0  0  0  0  0  0  0
   18.9251   19.9106   24.4259 H   0  0  0  0  0  0  0  0  0  0  0  0
   20.6524   20.1913   24.7099 H   0  0  0  0  0  0  0  0  0  0  0  0
   20.0402   20.4628   22.6477 C   0  0  0  0  0  0  0  0  0  0  0  0
   19.1584   20.8177   22.0977 H   0  0  0  0  0  0  0  0  0  0  0  0
   20.8644   21.1417   22.3916 H   0  0  0  0  0  0  0  0  0  0  0  0
   20.4047   19.0339   22.1795 C   0  0  0  0  0  0  0  0  0  0  0  0
   21.2929   18.6853   22.7244 H   0  0  0  0  0  0  0  0  0  0  0  0
   20.6881   19.0817   21.1201 H   0  0  0  0  0  0  0  0  0  0  0  0
   19.2467   18.0200   22.3626 C   0  0  0  0  0  0  0  0  0  0  0  0
   18.9472   17.9910   23.4186 H   0  0  0  0  0  0  0  0  0  0  0  0
   18.3654   18.3586   21.8006 H   0  0  0  0  0  0  0  0  0  0  0  0
   19.6140   16.5804   21.9275 C   0  0  0  0  0  0  0  0  0  0  0  0
   18.7866   15.9094   22.1978 H   0  0  0  0  0  0  0  0  0  0  0  0
   20.4889   16.2324   22.4943 H   0  0  0  0  0  0  0  0  0  0  0  0
   19.8878   16.4448   20.4123 C   0  0  0  0  0  0  0  0  0  0  0  0
   20.7857   16.9992   20.1127 H   0  0  0  0  0  0  0  0  0  0  0  0
   19.0401   16.8173   19.8227 H   0  0  0  0  0  0  0  0  0  0  0  0
   20.0463   15.3923   20.1437 H   0  0  0  0  0  0  0  0  0  0  0  0
  1  2  1  0  0  0  0
  1  3  1  0  0  0  0
  1  4  1  0  0  0  0
  1  5  1  0  0  0  0
  5  6  1  0  0  0  0
  5  7  1  0  0  0  0
  5  8  1  0  0  0  0
  8  9  1  0  0  0  0
  8 10  1  0  0  0  0
  8 11  1  0  0  0  0
 11 12  1  0  0  0  0
 11 13  1  0  0  0  0
 11 14  1  0  0  0  0
 14 15  1  0  0  0  0
 14 16  1  0  0  0  0
 14 17  1  0  0  0  0
 17 18  1  0  0  0  0
 17 19  1  0  0  0  0
 17 20  1  0  0  0  0
 20 21  1  0  0  0  0
 20 22  1  0  0  0  0
 20 23  1  0  0  0  0
M  END
> <VConfSearch Rank>
643

> <Conf_Id>
92

> <Delta U+W>
0.973

> <U+W>
-7.409

> <U>
48.047

> <W>
-55.456

> <W(PB)>
-57.595

> <W(SA)>
2.138

> <Valence>
2.583

> <Coulomb>
44.791

> <VdW>
0.674

> <VdW6>
-5.789

> <VdW12>
6.462

> <Bond>
0.177

> <Angle>
0.787

> <Pdih>
1.619

> <Idih>
0.000

> <Tether>
0.000

$$$$
VeraChem MOL file


 23 22  0  0  0  0  0  0  0  0999 V2000     
   18.5779   15.9021   23.9088 N   0  3  0  0  0  0  0  0  0  0  0  0
   18.2126   15.8363   24.8650 H   0  0  0  0  0  0  0  0  0  0  0  0
   19.1821   15.0867   23.7643 H   0  0  0  0  0  0  0  0  0  0  0  0
   17.7775   15.8000   23.2765 H   0  0  0  0  0  0  0  0  0  0  0  0
   19.3191   17.2032   23.6775 C   0  0  0  0  0  0  0  0  0  0  0  0
   20.1373   17.2587   24.4006 H   0  0  0  0  0  0  0  0  0  0  0  0
   18.6259   18.0240   23.8782 H   0  0  0  0  0  0  0  0  0  0  0  0
   19.8807   17.3320   22.2489 C   0  0  0  0  0  0  0  0  0  0  0  0
   20.5402   16.4780   22.0444 H   0  0  0  0  0  0  0  0  0  0  0  0
   19.0589   17.2753   21.5226 H   0  0  0  0  0  0  0  0  0  0  0  0
   20.6748   18.6421   22.0343 C   0  0  0  0  0  0  0  0  0  0  0  0
   21.1212   18.6228   21.0304 H   0  0  0  0  0  0  0  0  0  0  0  0
   21.5117   18.6838   22.7453 H   0  0  0  0  0  0  0  0  0  0  0  0
   19.8027   19.9125   22.1788 C   0  0  0  0  0  0  0  0  0  0  0  0
   18.9487   19.8520   21.4899 H   0  0  0  0  0  0  0  0  0  0  0  0
   19.3888   19.9704   23.1944 H   0  0  0  0  0  0  0  0  0  0  0  0
   20.6084   21.1978   21.8866 C   0  0  0  0  0  0  0  0  0  0  0  0
   21.0207   21.1545   20.8687 H   0  0  0  0  0  0  0  0  0  0  0  0
   21.4646   21.2630   22.5727 H   0  0  0  0  0  0  0  0  0  0  0  0
   19.7381   22.4642   22.0324 C   0  0  0  0  0  0  0  0  0  0  0  0
   18.8911   22.4436   21.3342 H   0  0  0  0  0  0  0  0  0  0  0  0
   20.3272   23.3659   21.8207 H   0  0  0  0  0  0  0  0  0  0  0  0
   19.3391   22.5541   23.0512 H   0  0  0  0  0  0  0  0  0  0  0  0
  1  2  1  0  0  0  0
  1  3  1  0  0  0  0
  1  4  1  0  0  0  0
  1  5  1  0  0  0  0
  5  6  1  0  0  0  0
  5  7  1  0  0  0  0
  5  8  1  0  0  0  0
  8  9  1  0  0  0  0
  8 10  1  0  0  0  0
  8 11  1  0  0  0  0
 11 12  1  0  0  0  0
 11 13  1  0  0  0  0
 11 14  1  0  0  0  0
 14 15  1  0  0  0  0
 14 16  1  0  0  0  0
 14 17  1  0  0  0  0
 17 18  1  0  0  0  0
 17 19  1  0  0  0  0
 17 20  1  0  0  0  0
 20 21  1  0  0  0  0
 20 22  1  0  0  0  0
 20 23  1  0  0  0  0
M  END
> <VConfSearch Rank>
644

> <Conf_Id>
42

> <Delta U+W>
0.365

> <U+W>
-8.017

> <U>
47.375

> <W>
-55.392

> <W(PB)>
-57.543

> <W(SA)>
2.152

> <Valence>
2.032

> <Coulomb>
44.843

> <VdW>
0.499

> <VdW6>
-5.218

> <VdW12>
5.717

> <Bond>
0.135

> <Angle>
0.514

> <Pdih>
1.383

> <Idih>
0.000

> <Tether>
0.000

$$$$
VeraChem MOL file


 23 22  0  0  0  0  0  0  0  0999 V2000     
   22.0050   16.8064   22.0970 N   0  3  0  0  0  0  0  0  0  0  0  0
   21.3349   16.0308   22.0906 H   0  0  0  0  0  0  0  0  0  0  0  0
   22.9367   16.3952   22.2183 H   0  0  0  0  0  0  0  0  0  0  0  0
   21.9850   17.2316   21.1652 H   0  0  0  0  0  0  0  0  0  0  0  0
   21.6894   17.8153   23.1842 C   0  0  0  0  0  0  0  0  0  0  0  0
   22.4509   18.5993   23.1523 H   0  0  0  0  0  0  0  0  0  0  0  0
   21.7710   17.3007   24.1455 H   0  0  0  0  0  0  0  0  0  0  0  0
   20.2888   18.4467   23.0618 C   0  0  0  0  0  0  0  0  0  0  0  0
   19.5275   17.6555   23.0662 H   0  0  0  0  0  0  0  0  0  0  0  0
   20.1187   19.0601   23.9550 H   0  0  0  0  0  0  0  0  0  0  0  0
   20.1374   19.3264   21.7968 C   0  0  0  0  0  0  0  0  0  0  0  0
   20.4092   18.7400   20.9094 H   0  0  0  0  0  0  0  0  0  0  0  0
   20.8537   20.1583   21.8444 H   0  0  0  0  0  0  0  0  0  0  0  0
   18.7091   19.8892   21.5767 C   0  0  0  0  0  0  0  0  0  0  0  0
   18.7186   20.4536   20.6339 H   0  0  0  0  0  0  0  0  0  0  0  0
   17.9988   19.0657   21.4202 H   0  0  0  0  0  0  0  0  0  0  0  0
   18.1991   20.8319   22.6972 C   0  0  0  0  0  0  0  0  0  0  0  0
   17.5927   21.6254   22.2380 H   0  0  0  0  0  0  0  0  0  0  0  0
   19.0434   21.3407   23.1829 H   0  0  0  0  0  0  0  0  0  0  0  0
   17.3240   20.1146   23.7518 C   0  0  0  0  0  0  0  0  0  0  0  0
   16.4368   19.6671   23.2852 H   0  0  0  0  0  0  0  0  0  0  0  0
   16.9766   20.8270   24.5111 H   0  0  0  0  0  0  0  0  0  0  0  0
   17.8701   19.3182   24.2691 H   0  0  0  0  0  0  0  0  0  0  0  0
  1  2  1  0  0  0  0
  1  3  1  0  0  0  0
  1  4  1  0  0  0  0
  1  5  1  0  0  0  0
  5  6  1  0  0  0  0
  5  7  1  0  0  0  0
  5  8  1  0  0  0  0
  8  9  1  0  0  0  0
  8 10  1  0  0  0  0
  8 11  1  0  0  0  0
 11 12  1  0  0  0  0
 11 13  1  0  0  0  0
 11 14  1  0  0  0  0
 14 15  1  0  0  0  0
 14 16  1  0  0  0  0
 14 17  1  0  0  0  0
 17 18  1  0  0  0  0
 17 19  1  0  0  0  0
 17 20  1  0  0  0  0
 20 21  1  0  0  0  0
 20 22  1  0  0  0  0
 20 23  1  0  0  0  0
M  END
> <VConfSearch Rank>
645

> <Conf_Id>
3

> <Delta U+W>
3.283

> <U+W>
-5.099

> <U>
50.701

> <W>
-55.800

> <W(PB)>
-57.867

> <W(SA)>
2.067

> <Valence>
4.880

> <Coulomb>
45.095

> <VdW>
0.726

> <VdW6>
-6.620

> <VdW12>
7.346

> <Bond>
0.222

> <Angle>
1.260

> <Pdih>
3.398

> <Idih>
0.000

> <Tether>
0.000

$$$$
VeraChem MOL file


 23 22  0  0  0  0  0  0  0  0999 V2000     
   22.0482   17.2482   22.2779 N   0  3  0  0  0  0  0  0  0  0  0  0
   21.7939   16.2605   22.3792 H   0  0  0  0  0  0  0  0  0  0  0  0
   23.0481   17.2782   22.0519 H   0  0  0  0  0  0  0  0  0  0  0  0
   21.5444   17.6090   21.4620 H   0  0  0  0  0  0  0  0  0  0  0  0
   21.7292   18.0429   23.5289 C   0  0  0  0  0  0  0  0  0  0  0  0
   22.0512   19.0747   23.3666 H   0  0  0  0  0  0  0  0  0  0  0  0
   22.3238   17.6279   24.3472 H   0  0  0  0  0  0  0  0  0  0  0  0
   20.2365   18.0157   23.9170 C   0  0  0  0  0  0  0  0  0  0  0  0
   19.9404   16.9793   24.1270 H   0  0  0  0  0  0  0  0  0  0  0  0
   20.1071   18.5668   24.8580 H   0  0  0  0  0  0  0  0  0  0  0  0
   19.2902   18.6099   22.8432 C   0  0  0  0  0  0  0  0  0  0  0  0
   18.2586   18.5025   23.2027 H   0  0  0  0  0  0  0  0  0  0  0  0
   19.3549   18.0195   21.9197 H   0  0  0  0  0  0  0  0  0  0  0  0
   19.5784   20.1011   22.5340 C   0  0  0  0  0  0  0  0  0  0  0  0
   19.4860   20.6945   23.4540 H   0  0  0  0  0  0  0  0  0  0  0  0
   20.6174   20.2129   22.1974 H   0  0  0  0  0  0  0  0  0  0  0  0
   18.6539   20.6937   21.4428 C   0  0  0  0  0  0  0  0  0  0  0  0
   18.7503   20.1105   20.5164 H   0  0  0  0  0  0  0  0  0  0  0  0
   18.9990   21.7093   21.2032 H   0  0  0  0  0  0  0  0  0  0  0  0
   17.1679   20.7611   21.8630 C   0  0  0  0  0  0  0  0  0  0  0  0
   17.0485   21.3114   22.8054 H   0  0  0  0  0  0  0  0  0  0  0  0
   16.7386   19.7600   21.9920 H   0  0  0  0  0  0  0  0  0  0  0  0
   16.5753   21.2768   21.0963 H   0  0  0  0  0  0  0  0  0  0  0  0
  1  2  1  0  0  0  0
  1  3  1  0  0  0  0
  1  4  1  0  0  0  0
  1  5  1  0  0  0  0
  5  6  1  0  0  0  0
  5  7  1  0  0  0  0
  5  8  1  0  0  0  0
  8  9  1  0  0  0  0
  8 10  1  0  0  0  0
  8 11  1  0  0  0  0
 11 12  1  0  0  0  0
 11 13  1  0  0  0  0
 11 14  1  0  0  0  0
 14 15  1  0  0  0  0
 14 16  1  0  0  0  0
 14 17  1  0  0  0  0
 17 18  1  0  0  0  0
 17 19  1  0  0  0  0
 17 20  1  0  0  0  0
 20 21  1  0  0  0  0
 20 22  1  0  0  0  0
 20 23  1  0  0  0  0
M  END
> <VConfSearch Rank>
646

> <Conf_Id>
83

> <Delta U+W>
1.229

> <U+W>
-7.154

> <U>
48.727

> <W>
-55.880

> <W(PB)>
-57.960

> <W(SA)>
2.080

> <Valence>
2.671

> <Coulomb>
45.371

> <VdW>
0.684

> <VdW6>
-6.511

> <VdW12>
7.195

> <Bond>
0.203

> <Angle>
0.915

> <Pdih>
1.554

> <Idih>
0.000

> <Tether>
0.000

$$$$
VeraChem MOL file


 23 22  0  0  0  0  0  0  0  0999 V2000     
   20.5592   21.5129   23.8327 N   0  3  0  0  0  0  0  0  0  0  0  0
   20.7182   21.4283   24.8418 H   0  0  0  0  0  0  0  0  0  0  0  0
   19.5684   21.3143   23.6641 H   0  0  0  0  0  0  0  0  0  0  0  0
   20.7155   22.4961   23.5865 H   0  0  0  0  0  0  0  0  0  0  0  0
   21.4585   20.5839   23.0412 C   0  0  0  0  0  0  0  0  0  0  0  0
   22.4939   20.8733   23.2409 H   0  0  0  0  0  0  0  0  0  0  0  0
   21.2616   20.7453   21.9784 H   0  0  0  0  0  0  0  0  0  0  0  0
   21.2689   19.0929   23.3879 C   0  0  0  0  0  0  0  0  0  0  0  0
   21.9935   18.5023   22.8116 H   0  0  0  0  0  0  0  0  0  0  0  0
   21.5200   18.9368   24.4454 H   0  0  0  0  0  0  0  0  0  0  0  0
   19.8412   18.5545   23.1170 C   0  0  0  0  0  0  0  0  0  0  0  0
   19.1151   19.0872   23.7452 H   0  0  0  0  0  0  0  0  0  0  0  0
   19.8081   17.5045   23.4352 H   0  0  0  0  0  0  0  0  0  0  0  0
   19.4225   18.6580   21.6282 C   0  0  0  0  0  0  0  0  0  0  0  0
   19.4787   19.7048   21.3021 H   0  0  0  0  0  0  0  0  0  0  0  0
   20.1346   18.1012   21.0038 H   0  0  0  0  0  0  0  0  0  0  0  0
   17.9871   18.1465   21.3551 C   0  0  0  0  0  0  0  0  0  0  0  0
   17.7301   18.3625   20.3085 H   0  0  0  0  0  0  0  0  0  0  0  0
   17.2689   18.7075   21.9693 H   0  0  0  0  0  0  0  0  0  0  0  0
   17.8139   16.6311   21.6057 C   0  0  0  0  0  0  0  0  0  0  0  0
   18.5434   16.0492   21.0276 H   0  0  0  0  0  0  0  0  0  0  0  0
   16.8102   16.3046   21.3044 H   0  0  0  0  0  0  0  0  0  0  0  0
   17.9364   16.3804   22.6666 H   0  0  0  0  0  0  0  0  0  0  0  0
  1  2  1  0  0  0  0
  1  3  1  0  0  0  0
  1  4  1  0  0  0  0
  1  5  1  0  0  0  0
  5  6  1  0  0  0  0
  5  7  1  0  0  0  0
  5  8  1  0  0  0  0
  8  9  1  0  0  0  0
  8 10  1  0  0  0  0
  8 11  1  0  0  0  0
 11 12  1  0  0  0  0
 11 13  1  0  0  0  0
 11 14  1  0  0  0  0
 14 15  1  0  0  0  0
 14 16  1  0  0  0  0
 14 17  1  0  0  0  0
 17 18  1  0  0  0  0
 17 19  1  0  0  0  0
 17 20  1  0  0  0  0
 20 21  1  0  0  0  0
 20 22  1  0  0  0  0
 20 23  1  0  0  0  0
M  END
> <VConfSearch Rank>
647

> <Conf_Id>
50

> <Delta U+W>
1.252

> <U+W>
-7.130

> <U>
48.727

> <W>
-55.857

> <W(PB)>
-57.937

> <W(SA)>
2.080

> <Valence>
2.671

> <Coulomb>
45.371

> <VdW>
0.684

> <VdW6>
-6.511

> <VdW12>
7.196

> <Bond>
0.203

> <Angle>
0.915

> <Pdih>
1.554

> <Idih>
0.000

> <Tether>
0.000

$$$$
VeraChem MOL file


 23 22  0  0  0  0  0  0  0  0999 V2000     
   17.8120   19.9725   20.3210 N   0  3  0  0  0  0  0  0  0  0  0  0
   18.2184   19.1144   19.9361 H   0  0  0  0  0  0  0  0  0  0  0  0
   17.6514   20.6079   19.5320 H   0  0  0  0  0  0  0  0  0  0  0  0
   16.8916   19.7286   20.7002 H   0  0  0  0  0  0  0  0  0  0  0  0
   18.7080   20.5969   21.3730 C   0  0  0  0  0  0  0  0  0  0  0  0
   18.2322   21.5234   21.7057 H   0  0  0  0  0  0  0  0  0  0  0  0
   19.6594   20.8538   20.8994 H   0  0  0  0  0  0  0  0  0  0  0  0
   18.9640   19.6885   22.5912 C   0  0  0  0  0  0  0  0  0  0  0  0
   19.5241   20.2645   23.3363 H   0  0  0  0  0  0  0  0  0  0  0  0
   18.0055   19.4292   23.0601 H   0  0  0  0  0  0  0  0  0  0  0  0
   19.7356   18.3962   22.2208 C   0  0  0  0  0  0  0  0  0  0  0  0
   20.6515   18.6432   21.6662 H   0  0  0  0  0  0  0  0  0  0  0  0
   19.1149   17.8038   21.5355 H   0  0  0  0  0  0  0  0  0  0  0  0
   20.0797   17.5120   23.4480 C   0  0  0  0  0  0  0  0  0  0  0  0
   19.3270   17.6448   24.2373 H   0  0  0  0  0  0  0  0  0  0  0  0
   20.0050   16.4590   23.1428 H   0  0  0  0  0  0  0  0  0  0  0  0
   21.5019   17.7295   24.0253 C   0  0  0  0  0  0  0  0  0  0  0  0
   22.2513   17.4952   23.2563 H   0  0  0  0  0  0  0  0  0  0  0  0
   21.6630   17.0060   24.8367 H   0  0  0  0  0  0  0  0  0  0  0  0
   21.7567   19.1511   24.5722 C   0  0  0  0  0  0  0  0  0  0  0  0
   20.9888   19.4385   25.3020 H   0  0  0  0  0  0  0  0  0  0  0  0
   21.7677   19.8931   23.7644 H   0  0  0  0  0  0  0  0  0  0  0  0
   22.7316   19.1995   25.0743 H   0  0  0  0  0  0  0  0  0  0  0  0
  1  2  1  0  0  0  0
  1  3  1  0  0  0  0
  1  4  1  0  0  0  0
  1  5  1  0  0  0  0
  5  6  1  0  0  0  0
  5  7  1  0  0  0  0
  5  8  1  0  0  0  0
  8  9  1  0  0  0  0
  8 10  1  0  0  0  0
  8 11  1  0  0  0  0
 11 12  1  0  0  0  0
 11 13  1  0  0  0  0
 11 14  1  0  0  0  0
 14 15  1  0  0  0  0
 14 16  1  0  0  0  0
 14 17  1  0  0  0  0
 17 18  1  0  0  0  0
 17 19  1  0  0  0  0
 17 20  1  0  0  0  0
 20 21  1  0  0  0  0
 20 22  1  0  0  0  0
 20 23  1  0  0  0  0
M  END
> <VConfSearch Rank>
648

> <Conf_Id>
55

> <Delta U+W>
3.232

> <U+W>
-5.150

> <U>
50.625

> <W>
-55.776

> <W(PB)>
-57.839

> <W(SA)>
2.064

> <Valence>
4.837

> <Coulomb>
45.097

> <VdW>
0.692

> <VdW6>
-6.655

> <VdW12>
7.347

> <Bond>
0.223

> <Angle>
1.167

> <Pdih>
3.447

> <Idih>
0.000

> <Tether>
0.000

$$$$
VeraChem MOL file


 23 22  0  0  0  0  0  0  0  0999 V2000     
   17.0285   18.2415   21.4681 N   0  3  0  0  0  0  0  0  0  0  0  0
   16.5704   17.3560   21.7067 H   0  0  0  0  0  0  0  0  0  0  0  0
   16.7785   18.4534   20.4962 H   0  0  0  0  0  0  0  0  0  0  0  0
   16.6013   18.9684   22.0511 H   0  0  0  0  0  0  0  0  0  0  0  0
   18.5296   18.1711   21.6611 C   0  0  0  0  0  0  0  0  0  0  0  0
   18.9504   19.1306   21.3549 H   0  0  0  0  0  0  0  0  0  0  0  0
   18.9186   17.3993   20.9915 H   0  0  0  0  0  0  0  0  0  0  0  0
   18.9359   17.8469   23.1122 C   0  0  0  0  0  0  0  0  0  0  0  0
   18.5128   18.5887   23.8025 H   0  0  0  0  0  0  0  0  0  0  0  0
   18.4887   16.8811   23.3830 H   0  0  0  0  0  0  0  0  0  0  0  0
   20.4702   17.7513   23.3074 C   0  0  0  0  0  0  0  0  0  0  0  0
   20.9330   17.2819   22.4281 H   0  0  0  0  0  0  0  0  0  0  0  0
   20.6659   17.0684   24.1458 H   0  0  0  0  0  0  0  0  0  0  0  0
   21.1743   19.0959   23.6264 C   0  0  0  0  0  0  0  0  0  0  0  0
   20.7752   19.5043   24.5652 H   0  0  0  0  0  0  0  0  0  0  0  0
   22.2373   18.8890   23.8123 H   0  0  0  0  0  0  0  0  0  0  0  0
   21.0595   20.1631   22.5135 C   0  0  0  0  0  0  0  0  0  0  0  0
   20.0179   20.4972   22.4219 H   0  0  0  0  0  0  0  0  0  0  0  0
   21.3490   19.7279   21.5468 H   0  0  0  0  0  0  0  0  0  0  0  0
   21.9472   21.3909   22.8085 C   0  0  0  0  0  0  0  0  0  0  0  0
   23.0061   21.1079   22.8696 H   0  0  0  0  0  0  0  0  0  0  0  0
   21.6641   21.8633   23.7582 H   0  0  0  0  0  0  0  0  0  0  0  0
   21.8453   22.1425   22.0149 H   0  0  0  0  0  0  0  0  0  0  0  0
  1  2  1  0  0  0  0
  1  3  1  0  0  0  0
  1  4  1  0  0  0  0
  1  5  1  0  0  0  0
  5  6  1  0  0  0  0
  5  7  1  0  0  0  0
  5  8  1  0  0  0  0
  8  9  1  0  0  0  0
  8 10  1  0  0  0  0
  8 11  1  0  0  0  0
 11 12  1  0  0  0  0
 11 13  1  0  0  0  0
 11 14  1  0  0  0  0
 14 15  1  0  0  0  0
 14 16  1  0  0  0  0
 14 17  1  0  0  0  0
 17 18  1  0  0  0  0
 17 19  1  0  0  0  0
 17 20  1  0  0  0  0
 20 21  1  0  0  0  0
 20 22  1  0  0  0  0
 20 23  1  0  0  0  0
M  END
> <VConfSearch Rank>
649

> <Conf_Id>
93

> <Delta U+W>
2.589

> <U+W>
-5.793

> <U>
50.122

> <W>
-55.915

> <W(PB)>
-58.031

> <W(SA)>
2.115

> <Valence>
4.132

> <Coulomb>
45.536

> <VdW>
0.454

> <VdW6>
-6.262

> <VdW12>
6.715

> <Bond>
0.182

> <Angle>
1.157

> <Pdih>
2.794

> <Idih>
0.000

> <Tether>
0.000

$$$$
VeraChem MOL file


 23 22  0  0  0  0  0  0  0  0999 V2000     
   18.2359   17.5126   20.2388 N   0  3  0  0  0  0  0  0  0  0  0  0
   17.4387   17.3338   20.8578 H   0  0  0  0  0  0  0  0  0  0  0  0
   18.5618   16.6006   19.9011 H   0  0  0  0  0  0  0  0  0  0  0  0
   17.8767   18.0205   19.4240 H   0  0  0  0  0  0  0  0  0  0  0  0
   19.3374   18.2794   20.9420 C   0  0  0  0  0  0  0  0  0  0  0  0
   20.1614   18.4079   20.2350 H   0  0  0  0  0  0  0  0  0  0  0  0
   19.6935   17.6657   21.7714 H   0  0  0  0  0  0  0  0  0  0  0  0
   18.8785   19.6586   21.4548 C   0  0  0  0  0  0  0  0  0  0  0  0
   18.5226   20.2405   20.5941 H   0  0  0  0  0  0  0  0  0  0  0  0
   18.0202   19.5489   22.1309 H   0  0  0  0  0  0  0  0  0  0  0  0
   20.0094   20.4547   22.1539 C   0  0  0  0  0  0  0  0  0  0  0  0
   19.7942   21.5261   22.0389 H   0  0  0  0  0  0  0  0  0  0  0  0
   20.9639   20.2864   21.6360 H   0  0  0  0  0  0  0  0  0  0  0  0
   20.1685   20.1707   23.6704 C   0  0  0  0  0  0  0  0  0  0  0  0
   20.9459   20.8405   24.0635 H   0  0  0  0  0  0  0  0  0  0  0  0
   19.2407   20.4420   24.1928 H   0  0  0  0  0  0  0  0  0  0  0  0
   20.5437   18.7113   24.0165 C   0  0  0  0  0  0  0  0  0  0  0  0
   21.4043   18.3929   23.4118 H   0  0  0  0  0  0  0  0  0  0  0  0
   19.7082   18.0425   23.7723 H   0  0  0  0  0  0  0  0  0  0  0  0
   20.8828   18.5505   25.5138 C   0  0  0  0  0  0  0  0  0  0  0  0
   21.1358   17.5075   25.7441 H   0  0  0  0  0  0  0  0  0  0  0  0
   20.0310   18.8377   26.1442 H   0  0  0  0  0  0  0  0  0  0  0  0
   21.7414   19.1746   25.7941 H   0  0  0  0  0  0  0  0  0  0  0  0
  1  2  1  0  0  0  0
  1  3  1  0  0  0  0
  1  4  1  0  0  0  0
  1  5  1  0  0  0  0
  5  6  1  0  0  0  0
  5  7  1  0  0  0  0
  5  8  1  0  0  0  0
  8  9  1  0  0  0  0
  8 10  1  0  0  0  0
  8 11  1  0  0  0  0
 11 12  1  0  0  0  0
 11 13  1  0  0  0  0
 11 14  1  0  0  0  0
 14 15  1  0  0  0  0
 14 16  1  0  0  0  0
 14 17  1  0  0  0  0
 17 18  1  0  0  0  0
 17 19  1  0  0  0  0
 17 20  1  0  0  0  0
 20 21  1  0  0  0  0
 20 22  1  0  0  0  0
 20 23  1  0  0  0  0
M  END
> <VConfSearch Rank>
650

> <Conf_Id>
70

> <Delta U+W>
2.599

> <U+W>
-5.783

> <U>
50.122

> <W>
-55.906

> <W(PB)>
-58.010

> <W(SA)>
2.105

> <Valence>
4.132

> <Coulomb>
45.536

> <VdW>
0.454

> <VdW6>
-6.262

> <VdW12>
6.715

> <Bond>
0.182

> <Angle>
1.157

> <Pdih>
2.794

> <Idih>
0.000

> <Tether>
0.000

$$$$
VeraChem MOL file


 23 22  0  0  0  0  0  0  0  0999 V2000     
   19.8480   20.0263   19.9413 N   0  3  0  0  0  0  0  0  0  0  0  0
   20.6717   20.4347   19.4884 H   0  0  0  0  0  0  0  0  0  0  0  0
   19.0389   20.2563   19.3546 H   0  0  0  0  0  0  0  0  0  0  0  0
   19.9606   19.0084   19.9137 H   0  0  0  0  0  0  0  0  0  0  0  0
   19.6774   20.5318   21.3603 C   0  0  0  0  0  0  0  0  0  0  0  0
   18.7679   20.0869   21.7725 H   0  0  0  0  0  0  0  0  0  0  0  0
   19.5344   21.6148   21.3132 H   0  0  0  0  0  0  0  0  0  0  0  0
   20.8747   20.2127   22.2781 C   0  0  0  0  0  0  0  0  0  0  0  0
   21.7753   20.6930   21.8733 H   0  0  0  0  0  0  0  0  0  0  0  0
   20.7036   20.6766   23.2578 H   0  0  0  0  0  0  0  0  0  0  0  0
   21.1438   18.6954   22.4585 C   0  0  0  0  0  0  0  0  0  0  0  0
   21.9833   18.5652   23.1553 H   0  0  0  0  0  0  0  0  0  0  0  0
   21.4829   18.2718   21.5036 H   0  0  0  0  0  0  0  0  0  0  0  0
   19.9316   17.8733   22.9680 C   0  0  0  0  0  0  0  0  0  0  0  0
   19.1136   17.9149   22.2365 H   0  0  0  0  0  0  0  0  0  0  0  0
   20.2300   16.8175   23.0279 H   0  0  0  0  0  0  0  0  0  0  0  0
   19.4148   18.3281   24.3533 C   0  0  0  0  0  0  0  0  0  0  0  0
   19.0446   19.3606   24.2993 H   0  0  0  0  0  0  0  0  0  0  0  0
   20.2414   18.3232   25.0775 H   0  0  0  0  0  0  0  0  0  0  0  0
   18.2802   17.4155   24.8652 C   0  0  0  0  0  0  0  0  0  0  0  0
   17.9239   17.7536   25.8470 H   0  0  0  0  0  0  0  0  0  0  0  0
   18.6244   16.3785   24.9711 H   0  0  0  0  0  0  0  0  0  0  0  0
   17.4259   17.4236   24.1758 H   0  0  0  0  0  0  0  0  0  0  0  0
  1  2  1  0  0  0  0
  1  3  1  0  0  0  0
  1  4  1  0  0  0  0
  1  5  1  0  0  0  0
  5  6  1  0  0  0  0
  5  7  1  0  0  0  0
  5  8  1  0  0  0  0
  8  9  1  0  0  0  0
  8 10  1  0  0  0  0
  8 11  1  0  0  0  0
 11 12  1  0  0  0  0
 11 13  1  0  0  0  0
 11 14  1  0  0  0  0
 14 15  1  0  0  0  0
 14 16  1  0  0  0  0
 14 17  1  0  0  0  0
 17 18  1  0  0  0  0
 17 19  1  0  0  0  0
 17 20  1  0  0  0  0
 20 21  1  0  0  0  0
 20 22  1  0  0  0  0
 20 23  1  0  0  0  0
M  END
> <VConfSearch Rank>
651

> <Conf_Id>
72

> <Delta U+W>
1.051

> <U+W>
-7.331

> <U>
48.590

> <W>
-55.922

> <W(PB)>
-58.012

> <W(SA)>
2.090

> <Valence>
2.601

> <Coulomb>
45.520

> <VdW>
0.469

> <VdW6>
-6.867

> <VdW12>
7.336

> <Bond>
0.205

> <Angle>
0.962

> <Pdih>
1.434

> <Idih>
0.000

> <Tether>
0.000

$$$$
VeraChem MOL file


 23 22  0  0  0  0  0  0  0  0999 V2000     
   21.7001   17.4175   24.5166 N   0  3  0  0  0  0  0  0  0  0  0  0
   22.2828   16.5933   24.3347 H   0  0  0  0  0  0  0  0  0  0  0  0
   21.3961   17.3573   25.4937 H   0  0  0  0  0  0  0  0  0  0  0  0
   22.3111   18.2371   24.4409 H   0  0  0  0  0  0  0  0  0  0  0  0
   20.5252   17.4977   23.5634 C   0  0  0  0  0  0  0  0  0  0  0  0
   19.9354   16.5840   23.6762 H   0  0  0  0  0  0  0  0  0  0  0  0
   20.9205   17.5287   22.5447 H   0  0  0  0  0  0  0  0  0  0  0  0
   19.6296   18.7260   23.8104 C   0  0  0  0  0  0  0  0  0  0  0  0
   19.2683   18.7046   24.8471 H   0  0  0  0  0  0  0  0  0  0  0  0
   20.2235   19.6434   23.7102 H   0  0  0  0  0  0  0  0  0  0  0  0
   18.4100   18.7778   22.8570 C   0  0  0  0  0  0  0  0  0  0  0  0
   17.8027   19.6604   23.0985 H   0  0  0  0  0  0  0  0  0  0  0  0
   17.7652   17.9112   23.0586 H   0  0  0  0  0  0  0  0  0  0  0  0
   18.7646   18.7897   21.3454 C   0  0  0  0  0  0  0  0  0  0  0  0
   19.2262   17.8315   21.0714 H   0  0  0  0  0  0  0  0  0  0  0  0
   17.8320   18.8435   20.7671 H   0  0  0  0  0  0  0  0  0  0  0  0
   19.6982   19.9425   20.8962 C   0  0  0  0  0  0  0  0  0  0  0  0
   19.8873   19.8401   19.8185 H   0  0  0  0  0  0  0  0  0  0  0  0
   20.6781   19.8494   21.3833 H   0  0  0  0  0  0  0  0  0  0  0  0
   19.1120   21.3467   21.1670 C   0  0  0  0  0  0  0  0  0  0  0  0
   18.1252   21.4589   20.6995 H   0  0  0  0  0  0  0  0  0  0  0  0
   19.7690   22.1237   20.7552 H   0  0  0  0  0  0  0  0  0  0  0  0
   19.0070   21.5384   22.2420 H   0  0  0  0  0  0  0  0  0  0  0  0
  1  2  1  0  0  0  0
  1  3  1  0  0  0  0
  1  4  1  0  0  0  0
  1  5  1  0  0  0  0
  5  6  1  0  0  0  0
  5  7  1  0  0  0  0
  5  8  1  0  0  0  0
  8  9  1  0  0  0  0
  8 10  1  0  0  0  0
  8 11  1  0  0  0  0
 11 12  1  0  0  0  0
 11 13  1  0  0  0  0
 11 14  1  0  0  0  0
 14 15  1  0  0  0  0
 14 16  1  0  0  0  0
 14 17  1  0  0  0  0
 17 18  1  0  0  0  0
 17 19  1  0  0  0  0
 17 20  1  0  0  0  0
 20 21  1  0  0  0  0
 20 22  1  0  0  0  0
 20 23  1  0  0  0  0
M  END
> <VConfSearch Rank>
652

> <Conf_Id>
26

> <Delta U+W>
1.076

> <U+W>
-7.306

> <U>
48.641

> <W>
-55.947

> <W(PB)>
-58.031

> <W(SA)>
2.084

> <Valence>
2.922

> <Coulomb>
45.269

> <VdW>
0.449

> <VdW6>
-7.045

> <VdW12>
7.494

> <Bond>
0.220

> <Angle>
1.205

> <Pdih>
1.497

> <Idih>
0.000

> <Tether>
0.000

$$$$
VeraChem MOL file


 23 22  0  0  0  0  0  0  0  0999 V2000     
   22.2255   18.5659   24.5722 N   0  3  0  0  0  0  0  0  0  0  0  0
   22.3530   19.3044   25.2716 H   0  0  0  0  0  0  0  0  0  0  0  0
   23.1499   18.1566   24.3996 H   0  0  0  0  0  0  0  0  0  0  0  0
   21.6522   17.8354   25.0060 H   0  0  0  0  0  0  0  0  0  0  0  0
   21.5981   19.0960   23.2990 C   0  0  0  0  0  0  0  0  0  0  0  0
   21.5206   18.2661   22.5919 H   0  0  0  0  0  0  0  0  0  0  0  0
   22.2722   19.8462   22.8769 H   0  0  0  0  0  0  0  0  0  0  0  0
   20.2073   19.7179   23.5243 C   0  0  0  0  0  0  0  0  0  0  0  0
   19.5333   18.9694   23.9602 H   0  0  0  0  0  0  0  0  0  0  0  0
   20.2903   20.5254   24.2637 H   0  0  0  0  0  0  0  0  0  0  0  0
   19.5915   20.2919   22.2242 C   0  0  0  0  0  0  0  0  0  0  0  0
   20.2194   21.1213   21.8705 H   0  0  0  0  0  0  0  0  0  0  0  0
   18.6153   20.7382   22.4559 H   0  0  0  0  0  0  0  0  0  0  0  0
   19.4320   19.2653   21.0703 C   0  0  0  0  0  0  0  0  0  0  0  0
   18.9744   19.7731   20.2102 H   0  0  0  0  0  0  0  0  0  0  0  0
   20.4249   18.9436   20.7283 H   0  0  0  0  0  0  0  0  0  0  0  0
   18.5900   18.0107   21.4157 C   0  0  0  0  0  0  0  0  0  0  0  0
   19.0836   17.4272   22.2043 H   0  0  0  0  0  0  0  0  0  0  0  0
   18.5582   17.3566   20.5331 H   0  0  0  0  0  0  0  0  0  0  0  0
   17.1417   18.3426   21.8409 C   0  0  0  0  0  0  0  0  0  0  0  0
   17.1178   18.9048   22.7827 H   0  0  0  0  0  0  0  0  0  0  0  0
   16.5641   17.4213   21.9910 H   0  0  0  0  0  0  0  0  0  0  0  0
   16.6315   18.9374   21.0722 H   0  0  0  0  0  0  0  0  0  0  0  0
  1  2  1  0  0  0  0
  1  3  1  0  0  0  0
  1  4  1  0  0  0  0
  1  5  1  0  0  0  0
  5  6  1  0  0  0  0
  5  7  1  0  0  0  0
  5  8  1  0  0  0  0
  8  9  1  0  0  0  0
  8 10  1  0  0  0  0
  8 11  1  0  0  0  0
 11 12  1  0  0  0  0
 11 13  1  0  0  0  0
 11 14  1  0  0  0  0
 14 15  1  0  0  0  0
 14 16  1  0  0  0  0
 14 17  1  0  0  0  0
 17 18  1  0  0  0  0
 17 19  1  0  0  0  0
 17 20  1  0  0  0  0
 20 21  1  0  0  0  0
 20 22  1  0  0  0  0
 20 23  1  0  0  0  0
M  END
> <VConfSearch Rank>
653

> <Conf_Id>
90

> <Delta U+W>
1.131

> <U+W>
-7.251

> <U>
48.641

> <W>
-55.892

> <W(PB)>
-57.962

> <W(SA)>
2.070

> <Valence>
2.922

> <Coulomb>
45.269

> <VdW>
0.450

> <VdW6>
-7.045

> <VdW12>
7.495

> <Bond>
0.220

> <Angle>
1.205

> <Pdih>
1.497

> <Idih>
0.000

> <Tether>
0.000

$$$$
VeraChem MOL file


 23 22  0  0  0  0  0  0  0  0999 V2000     
   20.5379   21.4660   22.8995 N   0  3  0  0  0  0  0  0  0  0  0  0
   21.4223   21.9793   22.9781 H   0  0  0  0  0  0  0  0  0  0  0  0
   20.5500   20.7336   23.6157 H   0  0  0  0  0  0  0  0  0  0  0  0
   19.7891   22.1206   23.1469 H   0  0  0  0  0  0  0  0  0  0  0  0
   20.3439   20.8875   21.5116 C   0  0  0  0  0  0  0  0  0  0  0  0
   21.1877   20.2259   21.2992 H   0  0  0  0  0  0  0  0  0  0  0  0
   20.3748   21.7156   20.7983 H   0  0  0  0  0  0  0  0  0  0  0  0
   19.0198   20.1149   21.3418 C   0  0  0  0  0  0  0  0  0  0  0  0
   18.1790   20.8006   21.5111 H   0  0  0  0  0  0  0  0  0  0  0  0
   18.9377   19.7823   20.2985 H   0  0  0  0  0  0  0  0  0  0  0  0
   18.8800   18.8907   22.2811 C   0  0  0  0  0  0  0  0  0  0  0  0
   17.9052   18.4184   22.0976 H   0  0  0  0  0  0  0  0  0  0  0  0
   18.8640   19.2299   23.3245 H   0  0  0  0  0  0  0  0  0  0  0  0
   20.0001   17.8392   22.0781 C   0  0  0  0  0  0  0  0  0  0  0  0
   20.0559   17.5763   21.0127 H   0  0  0  0  0  0  0  0  0  0  0  0
   20.9757   18.2687   22.3424 H   0  0  0  0  0  0  0  0  0  0  0  0
   19.7793   16.5424   22.8935 C   0  0  0  0  0  0  0  0  0  0  0  0
   20.5528   15.8136   22.6134 H   0  0  0  0  0  0  0  0  0  0  0  0
   18.8166   16.0892   22.6185 H   0  0  0  0  0  0  0  0  0  0  0  0
   19.8327   16.7626   24.4224 C   0  0  0  0  0  0  0  0  0  0  0  0
   20.7756   17.2393   24.7203 H   0  0  0  0  0  0  0  0  0  0  0  0
   19.7605   15.8034   24.9511 H   0  0  0  0  0  0  0  0  0  0  0  0
   19.0038   17.3923   24.7685 H   0  0  0  0  0  0  0  0  0  0  0  0
  1  2  1  0  0  0  0
  1  3  1  0  0  0  0
  1  4  1  0  0  0  0
  1  5  1  0  0  0  0
  5  6  1  0  0  0  0
  5  7  1  0  0  0  0
  5  8  1  0  0  0  0
  8  9  1  0  0  0  0
  8 10  1  0  0  0  0
  8 11  1  0  0  0  0
 11 12  1  0  0  0  0
 11 13  1  0  0  0  0
 11 14  1  0  0  0  0
 14 15  1  0  0  0  0
 14 16  1  0  0  0  0
 14 17  1  0  0  0  0
 17 18  1  0  0  0  0
 17 19  1  0  0  0  0
 17 20  1  0  0  0  0
 20 21  1  0  0  0  0
 20 22  1  0  0  0  0
 20 23  1  0  0  0  0
M  END
> <VConfSearch Rank>
654

> <Conf_Id>
85

> <Delta U+W>
1.193

> <U+W>
-7.189

> <U>
48.775

> <W>
-55.965

> <W(PB)>
-58.038

> <W(SA)>
2.073

> <Valence>
2.602

> <Coulomb>
45.581

> <VdW>
0.592

> <VdW6>
-6.616

> <VdW12>
7.208

> <Bond>
0.196

> <Angle>
0.832

> <Pdih>
1.574

> <Idih>
0.000

> <Tether>
0.000

$$$$
VeraChem MOL file


 23 22  0  0  0  0  0  0  0  0999 V2000     
   20.7293   20.6287   23.1816 N   0  3  0  0  0  0  0  0  0  0  0  0
   20.2430   20.3379   22.3274 H   0  0  0  0  0  0  0  0  0  0  0  0
   21.6221   21.0478   22.8997 H   0  0  0  0  0  0  0  0  0  0  0  0
   20.1723   21.3739   23.6122 H   0  0  0  0  0  0  0  0  0  0  0  0
   20.9296   19.4604   24.1275 C   0  0  0  0  0  0  0  0  0  0  0  0
   21.4490   19.8480   25.0081 H   0  0  0  0  0  0  0  0  0  0  0  0
   21.5810   18.7268   23.6452 H   0  0  0  0  0  0  0  0  0  0  0  0
   19.6180   18.7831   24.5743 C   0  0  0  0  0  0  0  0  0  0  0  0
   19.8193   18.2544   25.5155 H   0  0  0  0  0  0  0  0  0  0  0  0
   18.8689   19.5486   24.8165 H   0  0  0  0  0  0  0  0  0  0  0  0
   19.0277   17.7560   23.5710 C   0  0  0  0  0  0  0  0  0  0  0  0
   18.1360   17.3157   24.0384 H   0  0  0  0  0  0  0  0  0  0  0  0
   19.7288   16.9212   23.4328 H   0  0  0  0  0  0  0  0  0  0  0  0
   18.6111   18.3369   22.1954 C   0  0  0  0  0  0  0  0  0  0  0  0
   17.7062   17.8140   21.8555 H   0  0  0  0  0  0  0  0  0  0  0  0
   18.3210   19.3906   22.3009 H   0  0  0  0  0  0  0  0  0  0  0  0
   19.6974   18.1629   21.1060 C   0  0  0  0  0  0  0  0  0  0  0  0
   19.8423   17.0917   20.9070 H   0  0  0  0  0  0  0  0  0  0  0  0
   20.6676   18.5395   21.4514 H   0  0  0  0  0  0  0  0  0  0  0  0
   19.3079   18.8741   19.7929 C   0  0  0  0  0  0  0  0  0  0  0  0
   18.3643   18.4777   19.3955 H   0  0  0  0  0  0  0  0  0  0  0  0
   20.0820   18.7274   19.0285 H   0  0  0  0  0  0  0  0  0  0  0  0
   19.1861   19.9542   19.9456 H   0  0  0  0  0  0  0  0  0  0  0  0
  1  2  1  0  0  0  0
  1  3  1  0  0  0  0
  1  4  1  0  0  0  0
  1  5  1  0  0  0  0
  5  6  1  0  0  0  0
  5  7  1  0  0  0  0
  5  8  1  0  0  0  0
  8  9  1  0  0  0  0
  8 10  1  0  0  0  0
  8 11  1  0  0  0  0
 11 12  1  0  0  0  0
 11 13  1  0  0  0  0
 11 14  1  0  0  0  0
 14 15  1  0  0  0  0
 14 16  1  0  0  0  0
 14 17  1  0  0  0  0
 17 18  1  0  0  0  0
 17 19  1  0  0  0  0
 17 20  1  0  0  0  0
 20 21  1  0  0  0  0
 20 22  1  0  0  0  0
 20 23  1  0  0  0  0
M  END
> <VConfSearch Rank>
655

> <Conf_Id>
82

> <Delta U+W>
5.994

> <U+W>
-2.388

> <U>
52.836

> <W>
-55.224

> <W(PB)>
-57.261

> <W(SA)>
2.037

> <Valence>
5.785

> <Coulomb>
46.744

> <VdW>
0.307

> <VdW6>
-7.672

> <VdW12>
7.979

> <Bond>
0.217

> <Angle>
1.470

> <Pdih>
4.098

> <Idih>
0.000

> <Tether>
0.000

$$$$
VeraChem MOL file


 23 22  0  0  0  0  0  0  0  0999 V2000     
   21.7782   18.1999   22.5532 N   0  3  0  0  0  0  0  0  0  0  0  0
   21.9605   17.3943   23.1605 H   0  0  0  0  0  0  0  0  0  0  0  0
   22.5346   18.2295   21.8610 H   0  0  0  0  0  0  0  0  0  0  0  0
   20.9065   18.0111   22.0479 H   0  0  0  0  0  0  0  0  0  0  0  0
   21.6888   19.4901   23.3450 C   0  0  0  0  0  0  0  0  0  0  0  0
   21.5595   20.3214   22.6468 H   0  0  0  0  0  0  0  0  0  0  0  0
   22.6482   19.6201   23.8530 H   0  0  0  0  0  0  0  0  0  0  0  0
   20.5579   19.5056   24.3935 C   0  0  0  0  0  0  0  0  0  0  0  0
   20.5322   18.5454   24.9257 H   0  0  0  0  0  0  0  0  0  0  0  0
   20.8145   20.2591   25.1499 H   0  0  0  0  0  0  0  0  0  0  0  0
   19.1479   19.8490   23.8420 C   0  0  0  0  0  0  0  0  0  0  0  0
   19.1450   20.8666   23.4274 H   0  0  0  0  0  0  0  0  0  0  0  0
   18.4591   19.8790   24.6977 H   0  0  0  0  0  0  0  0  0  0  0  0
   18.5799   18.8476   22.8038 C   0  0  0  0  0  0  0  0  0  0  0  0
   18.9863   17.8435   22.9838 H   0  0  0  0  0  0  0  0  0  0  0  0
   17.4957   18.7599   22.9605 H   0  0  0  0  0  0  0  0  0  0  0  0
   18.8137   19.2904   21.3387 C   0  0  0  0  0  0  0  0  0  0  0  0
   19.8681   19.5345   21.1628 H   0  0  0  0  0  0  0  0  0  0  0  0
   18.2528   20.2159   21.1464 H   0  0  0  0  0  0  0  0  0  0  0  0
   18.3627   18.2071   20.3363 C   0  0  0  0  0  0  0  0  0  0  0  0
   18.9256   17.2753   20.4764 H   0  0  0  0  0  0  0  0  0  0  0  0
   18.5218   18.5444   19.3038 H   0  0  0  0  0  0  0  0  0  0  0  0
   17.2949   17.9811   20.4549 H   0  0  0  0  0  0  0  0  0  0  0  0
  1  2  1  0  0  0  0
  1  3  1  0  0  0  0
  1  4  1  0  0  0  0
  1  5  1  0  0  0  0
  5  6  1  0  0  0  0
  5  7  1  0  0  0  0
  5  8  1  0  0  0  0
  8  9  1  0  0  0  0
  8 10  1  0  0  0  0
  8 11  1  0  0  0  0
 11 12  1  0  0  0  0
 11 13  1  0  0  0  0
 11 14  1  0  0  0  0
 14 15  1  0  0  0  0
 14 16  1  0  0  0  0
 14 17  1  0  0  0  0
 17 18  1  0  0  0  0
 17 19  1  0  0  0  0
 17 20  1  0  0  0  0
 20 21  1  0  0  0  0
 20 22  1  0  0  0  0
 20 23  1  0  0  0  0
M  END
> <VConfSearch Rank>
656

> <Conf_Id>
5

> <Delta U+W>
6.087

> <U+W>
-2.295

> <U>
52.836

> <W>
-55.131

> <W(PB)>
-57.202

> <W(SA)>
2.071

> <Valence>
5.785

> <Coulomb>
46.744

> <VdW>
0.307

> <VdW6>
-7.672

> <VdW12>
7.980

> <Bond>
0.217

> <Angle>
1.470

> <Pdih>
4.098

> <Idih>
0.000

> <Tether>
0.000

$$$$
VeraChem MOL file


 23 22  0  0  0  0  0  0  0  0999 V2000     
   21.9479   19.0984   19.4378 N   0  3  0  0  0  0  0  0  0  0  0  0
   21.4454   19.8624   18.9744 H   0  0  0  0  0  0  0  0  0  0  0  0
   22.2836   18.4713   18.6988 H   0  0  0  0  0  0  0  0  0  0  0  0
   22.7770   19.5075   19.8805 H   0  0  0  0  0  0  0  0  0  0  0  0
   21.0730   18.3712   20.4386 C   0  0  0  0  0  0  0  0  0  0  0  0
   21.6599   17.5558   20.8701 H   0  0  0  0  0  0  0  0  0  0  0  0
   20.2287   17.9372   19.8961 H   0  0  0  0  0  0  0  0  0  0  0  0
   20.5523   19.2854   21.5618 C   0  0  0  0  0  0  0  0  0  0  0  0
   21.4035   19.7316   22.0934 H   0  0  0  0  0  0  0  0  0  0  0  0
   19.9774   20.1117   21.1228 H   0  0  0  0  0  0  0  0  0  0  0  0
   19.6660   18.5071   22.5593 C   0  0  0  0  0  0  0  0  0  0  0  0
   20.2431   17.6781   22.9923 H   0  0  0  0  0  0  0  0  0  0  0  0
   18.8185   18.0579   22.0228 H   0  0  0  0  0  0  0  0  0  0  0  0
   19.1373   19.4160   23.6921 C   0  0  0  0  0  0  0  0  0  0  0  0
   19.9846   19.8651   24.2288 H   0  0  0  0  0  0  0  0  0  0  0  0
   18.5602   20.2450   23.2593 H   0  0  0  0  0  0  0  0  0  0  0  0
   18.2509   18.6373   24.6895 C   0  0  0  0  0  0  0  0  0  0  0  0
   18.8246   17.8083   25.1271 H   0  0  0  0  0  0  0  0  0  0  0  0
   17.4004   18.1881   24.1577 H   0  0  0  0  0  0  0  0  0  0  0  0
   17.7249   19.5482   25.8192 C   0  0  0  0  0  0  0  0  0  0  0  0
   17.0980   18.9778   26.5168 H   0  0  0  0  0  0  0  0  0  0  0  0
   17.1179   20.3686   25.4145 H   0  0  0  0  0  0  0  0  0  0  0  0
   18.5533   19.9858   26.3914 H   0  0  0  0  0  0  0  0  0  0  0  0
  1  2  1  0  0  0  0
  1  3  1  0  0  0  0
  1  4  1  0  0  0  0
  1  5  1  0  0  0  0
  5  6  1  0  0  0  0
  5  7  1  0  0  0  0
  5  8  1  0  0  0  0
  8  9  1  0  0  0  0
  8 10  1  0  0  0  0
  8 11  1  0  0  0  0
 11 12  1  0  0  0  0
 11 13  1  0  0  0  0
 11 14  1  0  0  0  0
 14 15  1  0  0  0  0
 14 16  1  0  0  0  0
 14 17  1  0  0  0  0
 17 18  1  0  0  0  0
 17 19  1  0  0  0  0
 17 20  1  0  0  0  0
 20 21  1  0  0  0  0
 20 22  1  0  0  0  0
 20 23  1  0  0  0  0
M  END
> <VConfSearch Rank>
657

> <Conf_Id>
40

> <Delta U+W>
0.000

> <U+W>
-8.382

> <U>
46.604

> <W>
-54.986

> <W(PB)>
-57.162

> <W(SA)>
2.176

> <Valence>
1.727

> <Coulomb>
44.434

> <VdW>
0.443

> <VdW6>
-4.623

> <VdW12>
5.066

> <Bond>
0.112

> <Angle>
0.386

> <Pdih>
1.228

> <Idih>
0.000

> <Tether>
0.000

$$$$
VeraChem MOL file


 23 22  0  0  0  0  0  0  0  0999 V2000     
   18.1252   15.8449   22.7017 N   0  3  0  0  0  0  0  0  0  0  0  0
   17.4519   15.7693   21.9324 H   0  0  0  0  0  0  0  0  0  0  0  0
   17.5867   16.0067   23.5588 H   0  0  0  0  0  0  0  0  0  0  0  0
   18.5709   14.9262   22.7987 H   0  0  0  0  0  0  0  0  0  0  0  0
   19.1422   16.9411   22.4574 C   0  0  0  0  0  0  0  0  0  0  0  0
   19.6965   16.6908   21.5488 H   0  0  0  0  0  0  0  0  0  0  0  0
   19.8412   16.9425   23.2976 H   0  0  0  0  0  0  0  0  0  0  0  0
   18.5029   18.3345   22.3068 C   0  0  0  0  0  0  0  0  0  0  0  0
   17.7691   18.3047   21.4904 H   0  0  0  0  0  0  0  0  0  0  0  0
   17.9470   18.5870   23.2197 H   0  0  0  0  0  0  0  0  0  0  0  0
   19.5407   19.4421   22.0069 C   0  0  0  0  0  0  0  0  0  0  0  0
   18.9984   20.3742   21.8018 H   0  0  0  0  0  0  0  0  0  0  0  0
   20.0885   19.1916   21.0879 H   0  0  0  0  0  0  0  0  0  0  0  0
   20.5420   19.6680   23.1683 C   0  0  0  0  0  0  0  0  0  0  0  0
   19.9949   19.9388   24.0818 H   0  0  0  0  0  0  0  0  0  0  0  0
   21.0664   18.7290   23.3892 H   0  0  0  0  0  0  0  0  0  0  0  0
   21.6047   20.7516   22.8633 C   0  0  0  0  0  0  0  0  0  0  0  0
   22.1624   20.4806   21.9560 H   0  0  0  0  0  0  0  0  0  0  0  0
   22.3381   20.7651   23.6817 H   0  0  0  0  0  0  0  0  0  0  0  0
   21.0115   22.1702   22.7053 C   0  0  0  0  0  0  0  0  0  0  0  0
   20.3663   22.2423   21.8211 H   0  0  0  0  0  0  0  0  0  0  0  0
   21.8135   22.9106   22.5884 H   0  0  0  0  0  0  0  0  0  0  0  0
   20.4211   22.4520   23.5868 H   0  0  0  0  0  0  0  0  0  0  0  0
  1  2  1  0  0  0  0
  1  3  1  0  0  0  0
  1  4  1  0  0  0  0
  1  5  1  0  0  0  0
  5  6  1  0  0  0  0
  5  7  1  0  0  0  0
  5  8  1  0  0  0  0
  8  9  1  0  0  0  0
  8 10  1  0  0  0  0
  8 11  1  0  0  0  0
 11 12  1  0  0  0  0
 11 13  1  0  0  0  0
 11 14  1  0  0  0  0
 14 15  1  0  0  0  0
 14 16  1  0  0  0  0
 14 17  1  0  0  0  0
 17 18  1  0  0  0  0
 17 19  1  0  0  0  0
 17 20  1  0  0  0  0
 20 21  1  0  0  0  0
 20 22  1  0  0  0  0
 20 23  1  0  0  0  0
M  END
> <VConfSearch Rank>
658

> <Conf_Id>
65

> <Delta U+W>
1.004

> <U+W>
-7.378

> <U>
48.047

> <W>
-55.425

> <W(PB)>
-57.542

> <W(SA)>
2.116

> <Valence>
2.583

> <Coulomb>
44.791

> <VdW>
0.673

> <VdW6>
-5.788

> <VdW12>
6.462

> <Bond>
0.177

> <Angle>
0.787

> <Pdih>
1.619

> <Idih>
0.000

> <Tether>
0.000

$$$$
VeraChem MOL file


 23 22  0  0  0  0  0  0  0  0999 V2000     
   17.6550   18.3282   19.8115 N   0  3  0  0  0  0  0  0  0  0  0  0
   17.5346   17.3166   19.6978 H   0  0  0  0  0  0  0  0  0  0  0  0
   17.7334   18.7266   18.8696 H   0  0  0  0  0  0  0  0  0  0  0  0
   16.7865   18.6914   20.2173 H   0  0  0  0  0  0  0  0  0  0  0  0
   18.8611   18.6615   20.6660 C   0  0  0  0  0  0  0  0  0  0  0  0
   18.9443   19.7500   20.7174 H   0  0  0  0  0  0  0  0  0  0  0  0
   19.7497   18.2716   20.1623 H   0  0  0  0  0  0  0  0  0  0  0  0
   18.7731   18.0762   22.0883 C   0  0  0  0  0  0  0  0  0  0  0  0
   17.8814   18.4684   22.5951 H   0  0  0  0  0  0  0  0  0  0  0  0
   18.6421   16.9881   22.0194 H   0  0  0  0  0  0  0  0  0  0  0  0
   20.0295   18.3762   22.9398 C   0  0  0  0  0  0  0  0  0  0  0  0
   20.9188   17.9740   22.4350 H   0  0  0  0  0  0  0  0  0  0  0  0
   19.9382   17.8332   23.8894 H   0  0  0  0  0  0  0  0  0  0  0  0
   20.2262   19.8876   23.2220 C   0  0  0  0  0  0  0  0  0  0  0  0
   20.2927   20.4332   22.2716 H   0  0  0  0  0  0  0  0  0  0  0  0
   19.3454   20.2845   23.7453 H   0  0  0  0  0  0  0  0  0  0  0  0
   21.4994   20.1997   24.0455 C   0  0  0  0  0  0  0  0  0  0  0  0
   21.6252   21.2902   24.0989 H   0  0  0  0  0  0  0  0  0  0  0  0
   22.3851   19.8141   23.5215 H   0  0  0  0  0  0  0  0  0  0  0  0
   21.4581   19.6342   25.4835 C   0  0  0  0  0  0  0  0  0  0  0  0
   21.4597   18.5372   25.4865 H   0  0  0  0  0  0  0  0  0  0  0  0
   20.5636   19.9790   26.0181 H   0  0  0  0  0  0  0  0  0  0  0  0
   22.3369   19.9658   26.0516 H   0  0  0  0  0  0  0  0  0  0  0  0
  1  2  1  0  0  0  0
  1  3  1  0  0  0  0
  1  4  1  0  0  0  0
  1  5  1  0  0  0  0
  5  6  1  0  0  0  0
  5  7  1  0  0  0  0
  5  8  1  0  0  0  0
  8  9  1  0  0  0  0
  8 10  1  0  0  0  0
  8 11  1  0  0  0  0
 11 12  1  0  0  0  0
 11 13  1  0  0  0  0
 11 14  1  0  0  0  0
 14 15  1  0  0  0  0
 14 16  1  0  0  0  0
 14 17  1  0  0  0  0
 17 18  1  0  0  0  0
 17 19  1  0  0  0  0
 17 20  1  0  0  0  0
 20 21  1  0  0  0  0
 20 22  1  0  0  0  0
 20 23  1  0  0  0  0
M  END
> <VConfSearch Rank>
659

> <Conf_Id>
92

> <Delta U+W>
0.973

> <U+W>
-7.409

> <U>
48.047

> <W>
-55.456

> <W(PB)>
-57.595

> <W(SA)>
2.138

> <Valence>
2.583

> <Coulomb>
44.791

> <VdW>
0.674

> <VdW6>
-5.789

> <VdW12>
6.462

> <Bond>
0.177

> <Angle>
0.787

> <Pdih>
1.619

> <Idih>
0.000

> <Tether>
0.000

$$$$
VeraChem MOL file


 23 22  0  0  0  0  0  0  0  0999 V2000     
   19.7952   19.7026   26.0582 N   0  3  0  0  0  0  0  0  0  0  0  0
   19.0469   20.2503   26.4964 H   0  0  0  0  0  0  0  0  0  0  0  0
   20.6812   20.0532   26.4362 H   0  0  0  0  0  0  0  0  0  0  0  0
   19.6887   18.7371   26.3859 H   0  0  0  0  0  0  0  0  0  0  0  0
   19.7495   19.7950   24.5465 C   0  0  0  0  0  0  0  0  0  0  0  0
   19.8393   20.8490   24.2699 H   0  0  0  0  0  0  0  0  0  0  0  0
   18.7710   19.4351   24.2182 H   0  0  0  0  0  0  0  0  0  0  0  0
   20.8623   18.9821   23.8582 C   0  0  0  0  0  0  0  0  0  0  0  0
   21.8377   19.3231   24.2299 H   0  0  0  0  0  0  0  0  0  0  0  0
   20.7724   17.9236   24.1368 H   0  0  0  0  0  0  0  0  0  0  0  0
   20.8367   19.1182   22.3175 C   0  0  0  0  0  0  0  0  0  0  0  0
   21.7077   18.5919   21.9030 H   0  0  0  0  0  0  0  0  0  0  0  0
   20.9525   20.1755   22.0412 H   0  0  0  0  0  0  0  0  0  0  0  0
   19.5471   18.5494   21.6781 C   0  0  0  0  0  0  0  0  0  0  0  0
   19.4170   17.5019   21.9833 H   0  0  0  0  0  0  0  0  0  0  0  0
   18.6709   19.0994   22.0467 H   0  0  0  0  0  0  0  0  0  0  0  0
   19.5858   18.6342   20.1360 C   0  0  0  0  0  0  0  0  0  0  0  0
   20.4548   18.0795   19.7551 H   0  0  0  0  0  0  0  0  0  0  0  0
   19.7165   19.6802   19.8251 H   0  0  0  0  0  0  0  0  0  0  0  0
   18.2986   18.0680   19.4994 C   0  0  0  0  0  0  0  0  0  0  0  0
   18.1583   17.0121   19.7652 H   0  0  0  0  0  0  0  0  0  0  0  0
   18.3451   18.1364   18.4048 H   0  0  0  0  0  0  0  0  0  0  0  0
   17.4142   18.6254   19.8345 H   0  0  0  0  0  0  0  0  0  0  0  0
  1  2  1  0  0  0  0
  1  3  1  0  0  0  0
  1  4  1  0  0  0  0
  1  5  1  0  0  0  0
  5  6  1  0  0  0  0
  5  7  1  0  0  0  0
  5  8  1  0  0  0  0
  8  9  1  0  0  0  0
  8 10  1  0  0  0  0
  8 11  1  0  0  0  0
 11 12  1  0  0  0  0
 11 13  1  0  0  0  0
 11 14  1  0  0  0  0
 14 15  1  0  0  0  0
 14 16  1  0  0  0  0
 14 17  1  0  0  0  0
 17 18  1  0  0  0  0
 17 19  1  0  0  0  0
 17 20  1  0  0  0  0
 20 21  1  0  0  0  0
 20 22  1  0  0  0  0
 20 23  1  0  0  0  0
M  END
> <VConfSearch Rank>
660

> <Conf_Id>
42

> <Delta U+W>
0.365

> <U+W>
-8.017

> <U>
47.375

> <W>
-55.392

> <W(PB)>
-57.543

> <W(SA)>
2.152

> <Valence>
2.032

> <Coulomb>
44.843

> <VdW>
0.499

> <VdW6>
-5.218

> <VdW12>
5.717

> <Bond>
0.135

> <Angle>
0.514

> <Pdih>
1.383

> <Idih>
0.000

> <Tether>
0.000

$$$$
VeraChem MOL file


 23 22  0  0  0  0  0  0  0  0999 V2000     
   19.0570   22.0685   22.9428 N   0  3  0  0  0  0  0  0  0  0  0  0
   18.5684   22.1128   22.0428 H   0  0  0  0  0  0  0  0  0  0  0  0
   19.2564   23.0349   23.2224 H   0  0  0  0  0  0  0  0  0  0  0  0
   18.3962   21.6894   23.6277 H   0  0  0  0  0  0  0  0  0  0  0  0
   20.3211   21.2352   22.8577 C   0  0  0  0  0  0  0  0  0  0  0  0
   20.8040   21.2483   23.8386 H   0  0  0  0  0  0  0  0  0  0  0  0
   20.9898   21.7224   22.1428 H   0  0  0  0  0  0  0  0  0  0  0  0
   20.0793   19.7782   22.4176 C   0  0  0  0  0  0  0  0  0  0  0  0
   19.5696   19.7679   21.4451 H   0  0  0  0  0  0  0  0  0  0  0  0
   21.0583   19.3056   22.2712 H   0  0  0  0  0  0  0  0  0  0  0  0
   19.2662   18.9665   23.4553 C   0  0  0  0  0  0  0  0  0  0  0  0
   18.3303   19.4947   23.6801 H   0  0  0  0  0  0  0  0  0  0  0  0
   19.8254   18.9204   24.4001 H   0  0  0  0  0  0  0  0  0  0  0  0
   18.9043   17.5286   23.0009 C   0  0  0  0  0  0  0  0  0  0  0  0
   18.2958   17.0749   23.7956 H   0  0  0  0  0  0  0  0  0  0  0  0
   18.2540   17.5647   22.1160 H   0  0  0  0  0  0  0  0  0  0  0  0
   20.1193   16.6023   22.7363 C   0  0  0  0  0  0  0  0  0  0  0  0
   19.8591   15.5836   23.0565 H   0  0  0  0  0  0  0  0  0  0  0  0
   20.9734   16.9046   23.3582 H   0  0  0  0  0  0  0  0  0  0  0  0
   20.5322   16.5420   21.2470 C   0  0  0  0  0  0  0  0  0  0  0  0
   19.7072   16.1681   20.6269 H   0  0  0  0  0  0  0  0  0  0  0  0
   21.3838   15.8626   21.1119 H   0  0  0  0  0  0  0  0  0  0  0  0
   20.8262   17.5237   20.8597 H   0  0  0  0  0  0  0  0  0  0  0  0
  1  2  1  0  0  0  0
  1  3  1  0  0  0  0
  1  4  1  0  0  0  0
  1  5  1  0  0  0  0
  5  6  1  0  0  0  0
  5  7  1  0  0  0  0
  5  8  1  0  0  0  0
  8  9  1  0  0  0  0
  8 10  1  0  0  0  0
  8 11  1  0  0  0  0
 11 12  1  0  0  0  0
 11 13  1  0  0  0  0
 11 14  1  0  0  0  0
 14 15  1  0  0  0  0
 14 16  1  0  0  0  0
 14 17  1  0  0  0  0
 17 18  1  0  0  0  0
 17 19  1  0  0  0  0
 17 20  1  0  0  0  0
 20 21  1  0  0  0  0
 20 22  1  0  0  0  0
 20 23  1  0  0  0  0
M  END
> <VConfSearch Rank>
661

> <Conf_Id>
3

> <Delta U+W>
3.283

> <U+W>
-5.099

> <U>
50.701

> <W>
-55.800

> <W(PB)>
-57.867

> <W(SA)>
2.067

> <Valence>
4.880

> <Coulomb>
45.095

> <VdW>
0.726

> <VdW6>
-6.620

> <VdW12>
7.346

> <Bond>
0.222

> <Angle>
1.260

> <Pdih>
3.398

> <Idih>
0.000

> <Tether>
0.000

$$$$
VeraChem MOL file


 23 22  0  0  0  0  0  0  0  0999 V2000     
   22.6960   18.8732   22.7112 N   0  3  0  0  0  0  0  0  0  0  0  0
   23.0597   18.8078   23.6673 H   0  0  0  0  0  0  0  0  0  0  0  0
   23.5011   18.8064   22.0795 H   0  0  0  0  0  0  0  0  0  0  0  0
   22.1170   18.0436   22.5495 H   0  0  0  0  0  0  0  0  0  0  0  0
   21.9131   20.1529   22.4929 C   0  0  0  0  0  0  0  0  0  0  0  0
   21.5818   20.1744   21.4516 H   0  0  0  0  0  0  0  0  0  0  0  0
   22.5972   20.9918   22.6474 H   0  0  0  0  0  0  0  0  0  0  0  0
   20.6985   20.3047   23.4315 C   0  0  0  0  0  0  0  0  0  0  0  0
   21.0512   20.3333   24.4711 H   0  0  0  0  0  0  0  0  0  0  0  0
   20.2265   21.2780   23.2424 H   0  0  0  0  0  0  0  0  0  0  0  0
   19.6372   19.1853   23.2828 C   0  0  0  0  0  0  0  0  0  0  0  0
   18.8449   19.3682   24.0201 H   0  0  0  0  0  0  0  0  0  0  0  0
   20.0787   18.2142   23.5434 H   0  0  0  0  0  0  0  0  0  0  0  0
   19.0181   19.1162   21.8635 C   0  0  0  0  0  0  0  0  0  0  0  0
   18.5526   20.0800   21.6154 H   0  0  0  0  0  0  0  0  0  0  0  0
   19.8128   18.9574   21.1228 H   0  0  0  0  0  0  0  0  0  0  0  0
   17.9763   17.9829   21.7003 C   0  0  0  0  0  0  0  0  0  0  0  0
   18.4395   17.0147   21.9368 H   0  0  0  0  0  0  0  0  0  0  0  0
   17.6769   17.9299   20.6442 H   0  0  0  0  0  0  0  0  0  0  0  0
   16.7104   18.1792   22.5654 C   0  0  0  0  0  0  0  0  0  0  0  0
   16.2470   19.1552   22.3716 H   0  0  0  0  0  0  0  0  0  0  0  0
   16.9385   18.1128   23.6363 H   0  0  0  0  0  0  0  0  0  0  0  0
   15.9669   17.4041   22.3388 H   0  0  0  0  0  0  0  0  0  0  0  0
  1  2  1  0  0  0  0
  1  3  1  0  0  0  0
  1  4  1  0  0  0  0
  1  5  1  0  0  0  0
  5  6  1  0  0  0  0
  5  7  1  0  0  0  0
  5  8  1  0  0  0  0
  8  9  1  0  0  0  0
  8 10  1  0  0  0  0
  8 11  1  0  0  0  0
 11 12  1  0  0  0  0
 11 13  1  0  0  0  0
 11 14  1  0  0  0  0
 14 15  1  0  0  0  0
 14 16  1  0  0  0  0
 14 17  1  0  0  0  0
 17 18  1  0  0  0  0
 17 19  1  0  0  0  0
 17 20  1  0  0  0  0
 20 21  1  0  0  0  0
 20 22  1  0  0  0  0
 20 23  1  0  0  0  0
M  END
> <VConfSearch Rank>
662

> <Conf_Id>
83

> <Delta U+W>
1.229

> <U+W>
-7.154

> <U>
48.727

> <W>
-55.880

> <W(PB)>
-57.960

> <W(SA)>
2.080

> <Valence>
2.671

> <Coulomb>
45.371

> <VdW>
0.684

> <VdW6>
-6.511

> <VdW12>
7.195

> <Bond>
0.203

> <Angle>
0.915

> <Pdih>
1.554

> <Idih>
0.000

> <Tether>
0.000

$$$$
VeraChem MOL file


 23 22  0  0  0  0  0  0  0  0999 V2000     
   22.0552   19.8004   21.0344 N   0  3  0  0  0  0  0  0  0  0  0  0
   21.9781   20.7308   20.6114 H   0  0  0  0  0  0  0  0  0  0  0  0
   21.3179   19.2189   20.6247 H   0  0  0  0  0  0  0  0  0  0  0  0
   22.9525   19.4071   20.7311 H   0  0  0  0  0  0  0  0  0  0  0  0
   21.9472   19.8582   22.5455 C   0  0  0  0  0  0  0  0  0  0  0  0
   22.7799   20.4626   22.9155 H   0  0  0  0  0  0  0  0  0  0  0  0
   22.0678   18.8435   22.9332 H   0  0  0  0  0  0  0  0  0  0  0  0
   20.6180   20.4565   23.0498 C   0  0  0  0  0  0  0  0  0  0  0  0
   20.6493   20.5101   24.1461 H   0  0  0  0  0  0  0  0  0  0  0  0
   20.5349   21.4926   22.6957 H   0  0  0  0  0  0  0  0  0  0  0  0
   19.3591   19.6650   22.6133 C   0  0  0  0  0  0  0  0  0  0  0  0
   19.2757   19.6691   21.5184 H   0  0  0  0  0  0  0  0  0  0  0  0
   18.4758   20.1975   22.9889 H   0  0  0  0  0  0  0  0  0  0  0  0
   19.3449   18.2055   23.1352 C   0  0  0  0  0  0  0  0  0  0  0  0
   20.2404   17.6790   22.7800 H   0  0  0  0  0  0  0  0  0  0  0  0
   19.4004   18.2041   24.2325 H   0  0  0  0  0  0  0  0  0  0  0  0
   18.1030   17.4009   22.6804 C   0  0  0  0  0  0  0  0  0  0  0  0
   18.2287   16.3545   22.9920 H   0  0  0  0  0  0  0  0  0  0  0  0
   18.0482   17.3897   21.5829 H   0  0  0  0  0  0  0  0  0  0  0  0
   16.7745   17.9354   23.2623 C   0  0  0  0  0  0  0  0  0  0  0  0
   16.8158   17.9876   24.3581 H   0  0  0  0  0  0  0  0  0  0  0  0
   15.9422   17.2737   22.9894 H   0  0  0  0  0  0  0  0  0  0  0  0
   16.5386   18.9356   22.8786 H   0  0  0  0  0  0  0  0  0  0  0  0
  1  2  1  0  0  0  0
  1  3  1  0  0  0  0
  1  4  1  0  0  0  0
  1  5  1  0  0  0  0
  5  6  1  0  0  0  0
  5  7  1  0  0  0  0
  5  8  1  0  0  0  0
  8  9  1  0  0  0  0
  8 10  1  0  0  0  0
  8 11  1  0  0  0  0
 11 12  1  0  0  0  0
 11 13  1  0  0  0  0
 11 14  1  0  0  0  0
 14 15  1  0  0  0  0
 14 16  1  0  0  0  0
 14 17  1  0  0  0  0
 17 18  1  0  0  0  0
 17 19  1  0  0  0  0
 17 20  1  0  0  0  0
 20 21  1  0  0  0  0
 20 22  1  0  0  0  0
 20 23  1  0  0  0  0
M  END
> <VConfSearch Rank>
663

> <Conf_Id>
50

> <Delta U+W>
1.252

> <U+W>
-7.130

> <U>
48.727

> <W>
-55.857

> <W(PB)>
-57.937

> <W(SA)>
2.080

> <Valence>
2.671

> <Coulomb>
45.371

> <VdW>
0.684

> <VdW6>
-6.511

> <VdW12>
7.196

> <Bond>
0.203

> <Angle>
0.915

> <Pdih>
1.554

> <Idih>
0.000

> <Tether>
0.000

$$$$
VeraChem MOL file


 23 22  0  0  0  0  0  0  0  0999 V2000     
   20.0593   20.7862   25.2838 N   0  3  0  0  0  0  0  0  0  0  0  0
   19.5243   21.4042   24.6662 H   0  0  0  0  0  0  0  0  0  0  0  0
   20.6602   21.3854   25.8597 H   0  0  0  0  0  0  0  0  0  0  0  0
   19.3902   20.3371   25.9172 H   0  0  0  0  0  0  0  0  0  0  0  0
   20.8649   19.7679   24.5005 C   0  0  0  0  0  0  0  0  0  0  0  0
   21.4376   19.1751   25.2190 H   0  0  0  0  0  0  0  0  0  0  0  0
   21.5717   20.3097   23.8662 H   0  0  0  0  0  0  0  0  0  0  0  0
   20.0053   18.8280   23.6332 C   0  0  0  0  0  0  0  0  0  0  0  0
   20.6624   18.0667   23.1981 H   0  0  0  0  0  0  0  0  0  0  0  0
   19.2939   18.2902   24.2739 H   0  0  0  0  0  0  0  0  0  0  0  0
   19.2411   19.5805   22.5141 C   0  0  0  0  0  0  0  0  0  0  0  0
   19.9344   20.1974   21.9256 H   0  0  0  0  0  0  0  0  0  0  0  0
   18.5349   20.2787   22.9828 H   0  0  0  0  0  0  0  0  0  0  0  0
   18.4401   18.6397   21.5763 C   0  0  0  0  0  0  0  0  0  0  0  0
   18.1246   17.7380   22.1190 H   0  0  0  0  0  0  0  0  0  0  0  0
   17.5113   19.1520   21.2895 H   0  0  0  0  0  0  0  0  0  0  0  0
   19.1765   18.2458   20.2703 C   0  0  0  0  0  0  0  0  0  0  0  0
   19.3976   19.1495   19.6852 H   0  0  0  0  0  0  0  0  0  0  0  0
   18.4944   17.6441   19.6535 H   0  0  0  0  0  0  0  0  0  0  0  0
   20.4797   17.4467   20.4900 C   0  0  0  0  0  0  0  0  0  0  0  0
   20.3031   16.5665   21.1216 H   0  0  0  0  0  0  0  0  0  0  0  0
   21.2528   18.0664   20.9607 H   0  0  0  0  0  0  0  0  0  0  0  0
   20.8807   17.0959   19.5303 H   0  0  0  0  0  0  0  0  0  0  0  0
  1  2  1  0  0  0  0
  1  3  1  0  0  0  0
  1  4  1  0  0  0  0
  1  5  1  0  0  0  0
  5  6  1  0  0  0  0
  5  7  1  0  0  0  0
  5  8  1  0  0  0  0
  8  9  1  0  0  0  0
  8 10  1  0  0  0  0
  8 11  1  0  0  0  0
 11 12  1  0  0  0  0
 11 13  1  0  0  0  0
 11 14  1  0  0  0  0
 14 15  1  0  0  0  0
 14 16  1  0  0  0  0
 14 17  1  0  0  0  0
 17 18  1  0  0  0  0
 17 19  1  0  0  0  0
 17 20  1  0  0  0  0
 20 21  1  0  0  0  0
 20 22  1  0  0  0  0
 20 23  1  0  0  0  0
M  END
> <VConfSearch Rank>
664

> <Conf_Id>
55

> <Delta U+W>
3.232

> <U+W>
-5.150

> <U>
50.625

> <W>
-55.776

> <W(PB)>
-57.839

> <W(SA)>
2.064

> <Valence>
4.837

> <Coulomb>
45.097

> <VdW>
0.692

> <VdW6>
-6.655

> <VdW12>
7.347

> <Bond>
0.223

> <Angle>
1.167

> <Pdih>
3.447

> <Idih>
0.000

> <Tether>
0.000

$$$$
VeraChem MOL file


 23 22  0  0  0  0  0  0  0  0999 V2000     
   18.4941   18.7684   25.4202 N   0  3  0  0  0  0  0  0  0  0  0  0
   18.8567   18.1405   26.1449 H   0  0  0  0  0  0  0  0  0  0  0  0
   17.4726   18.7710   25.5126 H   0  0  0  0  0  0  0  0  0  0  0  0
   18.8168   19.7134   25.6514 H   0  0  0  0  0  0  0  0  0  0  0  0
   18.9331   18.3440   24.0336 C   0  0  0  0  0  0  0  0  0  0  0  0
   18.4826   19.0321   23.3161 H   0  0  0  0  0  0  0  0  0  0  0  0
   18.5317   17.3446   23.8452 H   0  0  0  0  0  0  0  0  0  0  0  0
   20.4653   18.3237   23.8666 C   0  0  0  0  0  0  0  0  0  0  0  0
   20.8881   19.3104   24.0981 H   0  0  0  0  0  0  0  0  0  0  0  0
   20.8792   17.6275   24.6082 H   0  0  0  0  0  0  0  0  0  0  0  0
   20.9175   17.8676   22.4563 C   0  0  0  0  0  0  0  0  0  0  0  0
   20.2563   17.0708   22.0884 H   0  0  0  0  0  0  0  0  0  0  0  0
   21.9119   17.4091   22.5483 H   0  0  0  0  0  0  0  0  0  0  0  0
   21.0221   19.0020   21.4039 C   0  0  0  0  0  0  0  0  0  0  0  0
   21.7648   19.7410   21.7350 H   0  0  0  0  0  0  0  0  0  0  0  0
   21.4168   18.5697   20.4740 H   0  0  0  0  0  0  0  0  0  0  0  0
   19.6877   19.7193   21.0952 C   0  0  0  0  0  0  0  0  0  0  0  0
   19.3573   20.2886   21.9737 H   0  0  0  0  0  0  0  0  0  0  0  0
   18.9071   18.9781   20.8740 H   0  0  0  0  0  0  0  0  0  0  0  0
   19.8254   20.6892   19.9023 C   0  0  0  0  0  0  0  0  0  0  0  0
   20.1174   20.1541   18.9893 H   0  0  0  0  0  0  0  0  0  0  0  0
   20.5821   21.4584   20.1047 H   0  0  0  0  0  0  0  0  0  0  0  0
   18.8729   21.1974   19.7040 H   0  0  0  0  0  0  0  0  0  0  0  0
  1  2  1  0  0  0  0
  1  3  1  0  0  0  0
  1  4  1  0  0  0  0
  1  5  1  0  0  0  0
  5  6  1  0  0  0  0
  5  7  1  0  0  0  0
  5  8  1  0  0  0  0
  8  9  1  0  0  0  0
  8 10  1  0  0  0  0
  8 11  1  0  0  0  0
 11 12  1  0  0  0  0
 11 13  1  0  0  0  0
 11 14  1  0  0  0  0
 14 15  1  0  0  0  0
 14 16  1  0  0  0  0
 14 17  1  0  0  0  0
 17 18  1  0  0  0  0
 17 19  1  0  0  0  0
 17 20  1  0  0  0  0
 20 21  1  0  0  0  0
 20 22  1  0  0  0  0
 20 23  1  0  0  0  0
M  END
> <VConfSearch Rank>
665

> <Conf_Id>
93

> <Delta U+W>
2.589

> <U+W>
-5.793

> <U>
50.122

> <W>
-55.915

> <W(PB)>
-58.031

> <W(SA)>
2.115

> <Valence>
4.132

> <Coulomb>
45.536

> <VdW>
0.454

> <VdW6>
-6.262

> <VdW12>
6.715

> <Bond>
0.182

> <Angle>
1.157

> <Pdih>
2.794

> <Idih>
0.000

> <Tether>
0.000

$$$$
VeraChem MOL file


 23 22  0  0  0  0  0  0  0  0999 V2000     
   18.2368   19.2892   25.3460 N   0  3  0  0  0  0  0  0  0  0  0  0
   18.1087   18.2730   25.3879 H   0  0  0  0  0  0  0  0  0  0  0  0
   17.3025   19.7098   25.3931 H   0  0  0  0  0  0  0  0  0  0  0  0
   18.7311   19.5660   26.2003 H   0  0  0  0  0  0  0  0  0  0  0  0
   18.9835   19.7143   24.0981 C   0  0  0  0  0  0  0  0  0  0  0  0
   19.0574   20.8051   24.1060 H   0  0  0  0  0  0  0  0  0  0  0  0
   18.3841   19.4204   23.2345 H   0  0  0  0  0  0  0  0  0  0  0  0
   20.3952   19.1028   24.0031 C   0  0  0  0  0  0  0  0  0  0  0  0
   20.9619   19.4156   24.8904 H   0  0  0  0  0  0  0  0  0  0  0  0
   20.3404   18.0067   24.0409 H   0  0  0  0  0  0  0  0  0  0  0  0
   21.1700   19.5545   22.7393 C   0  0  0  0  0  0  0  0  0  0  0  0
   22.2445   19.5183   22.9665 H   0  0  0  0  0  0  0  0  0  0  0  0
   20.9487   20.6080   22.5186 H   0  0  0  0  0  0  0  0  0  0  0  0
   20.9298   18.6838   21.4785 C   0  0  0  0  0  0  0  0  0  0  0  0
   21.5819   19.0568   20.6766 H   0  0  0  0  0  0  0  0  0  0  0  0
   21.2531   17.6529   21.6786 H   0  0  0  0  0  0  0  0  0  0  0  0
   19.4692   18.6736   20.9715 C   0  0  0  0  0  0  0  0  0  0  0  0
   19.0987   19.7039   20.8776 H   0  0  0  0  0  0  0  0  0  0  0  0
   18.8251   18.1603   21.6971 H   0  0  0  0  0  0  0  0  0  0  0  0
   19.3446   17.9587   19.6091 C   0  0  0  0  0  0  0  0  0  0  0  0
   18.3007   17.9509   19.2695 H   0  0  0  0  0  0  0  0  0  0  0  0
   19.6844   16.9170   19.6777 H   0  0  0  0  0  0  0  0  0  0  0  0
   19.9443   18.4641   18.8409 H   0  0  0  0  0  0  0  0  0  0  0  0
  1  2  1  0  0  0  0
  1  3  1  0  0  0  0
  1  4  1  0  0  0  0
  1  5  1  0  0  0  0
  5  6  1  0  0  0  0
  5  7  1  0  0  0  0
  5  8  1  0  0  0  0
  8  9  1  0  0  0  0
  8 10  1  0  0  0  0
  8 11  1  0  0  0  0
 11 12  1  0  0  0  0
 11 13  1  0  0  0  0
 11 14  1  0  0  0  0
 14 15  1  0  0  0  0
 14 16  1  0  0  0  0
 14 17  1  0  0  0  0
 17 18  1  0  0  0  0
 17 19  1  0  0  0  0
 17 20  1  0  0  0  0
 20 21  1  0  0  0  0
 20 22  1  0  0  0  0
 20 23  1  0  0  0  0
M  END
> <VConfSearch Rank>
666

> <Conf_Id>
70

> <Delta U+W>
2.599

> <U+W>
-5.783

> <U>
50.122

> <W>
-55.906

> <W(PB)>
-58.010

> <W(SA)>
2.105

> <Valence>
4.132

> <Coulomb>
45.536

> <VdW>
0.454

> <VdW6>
-6.262

> <VdW12>
6.715

> <Bond>
0.182

> <Angle>
1.157

> <Pdih>
2.794

> <Idih>
0.000

> <Tether>
0.000

$$$$
VeraChem MOL file


 23 22  0  0  0  0  0  0  0  0999 V2000     
   21.4182   16.6946   22.0794 N   0  3  0  0  0  0  0  0  0  0  0  0
   22.2579   16.6919   21.4918 H   0  0  0  0  0  0  0  0  0  0  0  0
   21.1738   15.7144   22.2566 H   0  0  0  0  0  0  0  0  0  0  0  0
   21.6798   17.1074   22.9797 H   0  0  0  0  0  0  0  0  0  0  0  0
   20.2776   17.4511   21.4274 C   0  0  0  0  0  0  0  0  0  0  0  0
   19.4074   17.3875   22.0860 H   0  0  0  0  0  0  0  0  0  0  0  0
   20.0327   16.9424   20.4911 H   0  0  0  0  0  0  0  0  0  0  0  0
   20.6033   18.9300   21.1370 C   0  0  0  0  0  0  0  0  0  0  0  0
   21.4565   18.9810   20.4477 H   0  0  0  0  0  0  0  0  0  0  0  0
   19.7584   19.3800   20.6002 H   0  0  0  0  0  0  0  0  0  0  0  0
   20.9215   19.7661   22.4046 C   0  0  0  0  0  0  0  0  0  0  0  0
   21.1000   20.8082   22.1057 H   0  0  0  0  0  0  0  0  0  0  0  0
   21.8672   19.4169   22.8406 H   0  0  0  0  0  0  0  0  0  0  0  0
   19.8242   19.7350   23.4999 C   0  0  0  0  0  0  0  0  0  0  0  0
   19.6983   18.7120   23.8786 H   0  0  0  0  0  0  0  0  0  0  0  0
   20.1706   20.3331   24.3540 H   0  0  0  0  0  0  0  0  0  0  0  0
   18.4593   20.2851   23.0229 C   0  0  0  0  0  0  0  0  0  0  0  0
   18.0598   19.6582   22.2145 H   0  0  0  0  0  0  0  0  0  0  0  0
   18.5904   21.2945   22.6086 H   0  0  0  0  0  0  0  0  0  0  0  0
   17.4316   20.3334   24.1735 C   0  0  0  0  0  0  0  0  0  0  0  0
   16.4692   20.7232   23.8174 H   0  0  0  0  0  0  0  0  0  0  0  0
   17.7785   20.9847   24.9862 H   0  0  0  0  0  0  0  0  0  0  0  0
   17.2567   19.3322   24.5886 H   0  0  0  0  0  0  0  0  0  0  0  0
  1  2  1  0  0  0  0
  1  3  1  0  0  0  0
  1  4  1  0  0  0  0
  1  5  1  0  0  0  0
  5  6  1  0  0  0  0
  5  7  1  0  0  0  0
  5  8  1  0  0  0  0
  8  9  1  0  0  0  0
  8 10  1  0  0  0  0
  8 11  1  0  0  0  0
 11 12  1  0  0  0  0
 11 13  1  0  0  0  0
 11 14  1  0  0  0  0
 14 15  1  0  0  0  0
 14 16  1  0  0  0  0
 14 17  1  0  0  0  0
 17 18  1  0  0  0  0
 17 19  1  0  0  0  0
 17 20  1  0  0  0  0
 20 21  1  0  0  0  0
 20 22  1  0  0  0  0
 20 23  1  0  0  0  0
M  END
> <VConfSearch Rank>
667

> <Conf_Id>
72

> <Delta U+W>
1.051

> <U+W>
-7.331

> <U>
48.590

> <W>
-55.922

> <W(PB)>
-58.012

> <W(SA)>
2.090

> <Valence>
2.601

> <Coulomb>
45.520

> <VdW>
0.469

> <VdW6>
-6.867

> <VdW12>
7.336

> <Bond>
0.205

> <Angle>
0.962

> <Pdih>
1.434

> <Idih>
0.000

> <Tether>
0.000

$$$$
VeraChem MOL file


 23 22  0  0  0  0  0  0  0  0999 V2000     
   18.8690   21.9543   22.2840 N   0  3  0  0  0  0  0  0  0  0  0  0
   17.9350   22.3750   22.3333 H   0  0  0  0  0  0  0  0  0  0  0  0
   19.4005   22.4900   21.5902 H   0  0  0  0  0  0  0  0  0  0  0  0
   19.3153   22.1118   23.1932 H   0  0  0  0  0  0  0  0  0  0  0  0
   18.8051   20.4818   21.9327 C   0  0  0  0  0  0  0  0  0  0  0  0
   18.2946   20.3856   20.9706 H   0  0  0  0  0  0  0  0  0  0  0  0
   18.2019   19.9806   22.6941 H   0  0  0  0  0  0  0  0  0  0  0  0
   20.1931   19.8195   21.8508 C   0  0  0  0  0  0  0  0  0  0  0  0
   20.8030   20.3537   21.1104 H   0  0  0  0  0  0  0  0  0  0  0  0
   20.7117   19.9267   22.8120 H   0  0  0  0  0  0  0  0  0  0  0  0
   20.1193   18.3245   21.4526 C   0  0  0  0  0  0  0  0  0  0  0  0
   21.1379   17.9189   21.3902 H   0  0  0  0  0  0  0  0  0  0  0  0
   19.7079   18.2479   20.4367 H   0  0  0  0  0  0  0  0  0  0  0  0
   19.2655   17.4392   22.4002 C   0  0  0  0  0  0  0  0  0  0  0  0
   18.2123   17.7438   22.3338 H   0  0  0  0  0  0  0  0  0  0  0  0
   19.2961   16.4036   22.0346 H   0  0  0  0  0  0  0  0  0  0  0  0
   19.6994   17.4567   23.8881 C   0  0  0  0  0  0  0  0  0  0  0  0
   19.0194   16.8089   24.4587 H   0  0  0  0  0  0  0  0  0  0  0  0
   19.5769   18.4642   24.3076 H   0  0  0  0  0  0  0  0  0  0  0  0
   21.1502   16.9721   24.1091 C   0  0  0  0  0  0  0  0  0  0  0  0
   21.3001   15.9704   23.6860 H   0  0  0  0  0  0  0  0  0  0  0  0
   21.3797   16.9217   25.1813 H   0  0  0  0  0  0  0  0  0  0  0  0
   21.8764   17.6525   23.6473 H   0  0  0  0  0  0  0  0  0  0  0  0
  1  2  1  0  0  0  0
  1  3  1  0  0  0  0
  1  4  1  0  0  0  0
  1  5  1  0  0  0  0
  5  6  1  0  0  0  0
  5  7  1  0  0  0  0
  5  8  1  0  0  0  0
  8  9  1  0  0  0  0
  8 10  1  0  0  0  0
  8 11  1  0  0  0  0
 11 12  1  0  0  0  0
 11 13  1  0  0  0  0
 11 14  1  0  0  0  0
 14 15  1  0  0  0  0
 14 16  1  0  0  0  0
 14 17  1  0  0  0  0
 17 18  1  0  0  0  0
 17 19  1  0  0  0  0
 17 20  1  0  0  0  0
 20 21  1  0  0  0  0
 20 22  1  0  0  0  0
 20 23  1  0  0  0  0
M  END
> <VConfSearch Rank>
668

> <Conf_Id>
26

> <Delta U+W>
1.076

> <U+W>
-7.306

> <U>
48.641

> <W>
-55.947

> <W(PB)>
-58.031

> <W(SA)>
2.084

> <Valence>
2.922

> <Coulomb>
45.269

> <VdW>
0.449

> <VdW6>
-7.045

> <VdW12>
7.494

> <Bond>
0.220

> <Angle>
1.205

> <Pdih>
1.497

> <Idih>
0.000

> <Tether>
0.000

$$$$
VeraChem MOL file


 23 22  0  0  0  0  0  0  0  0999 V2000     
   19.8694   16.4740   20.7516 N   0  3  0  0  0  0  0  0  0  0  0  0
   18.9489   16.1281   20.4621 H   0  0  0  0  0  0  0  0  0  0  0  0
   20.5041   15.6683   20.7507 H   0  0  0  0  0  0  0  0  0  0  0  0
   20.1961   17.1118   20.0188 H   0  0  0  0  0  0  0  0  0  0  0  0
   19.8184   17.1487   22.1073 C   0  0  0  0  0  0  0  0  0  0  0  0
   20.8332   17.4635   22.3642 H   0  0  0  0  0  0  0  0  0  0  0  0
   19.4915   16.4076   22.8417 H   0  0  0  0  0  0  0  0  0  0  0  0
   18.8732   18.3641   22.1421 C   0  0  0  0  0  0  0  0  0  0  0  0
   19.1927   19.1030   21.3962 H   0  0  0  0  0  0  0  0  0  0  0  0
   17.8653   18.0439   21.8465 H   0  0  0  0  0  0  0  0  0  0  0  0
   18.7980   19.0228   23.5419 C   0  0  0  0  0  0  0  0  0  0  0  0
   18.3620   18.3038   24.2492 H   0  0  0  0  0  0  0  0  0  0  0  0
   18.0941   19.8649   23.5050 H   0  0  0  0  0  0  0  0  0  0  0  0
   20.1599   19.5092   24.1071 C   0  0  0  0  0  0  0  0  0  0  0  0
   19.9871   19.9706   25.0891 H   0  0  0  0  0  0  0  0  0  0  0  0
   20.8060   18.6419   24.2989 H   0  0  0  0  0  0  0  0  0  0  0  0
   20.9247   20.5153   23.2099 C   0  0  0  0  0  0  0  0  0  0  0  0
   21.2025   20.0414   22.2589 H   0  0  0  0  0  0  0  0  0  0  0  0
   21.8713   20.7755   23.7038 H   0  0  0  0  0  0  0  0  0  0  0  0
   20.1343   21.8145   22.9343 C   0  0  0  0  0  0  0  0  0  0  0  0
   19.2303   21.6180   22.3446 H   0  0  0  0  0  0  0  0  0  0  0  0
   20.7495   22.5265   22.3691 H   0  0  0  0  0  0  0  0  0  0  0  0
   19.8344   22.3000   23.8720 H   0  0  0  0  0  0  0  0  0  0  0  0
  1  2  1  0  0  0  0
  1  3  1  0  0  0  0
  1  4  1  0  0  0  0
  1  5  1  0  0  0  0
  5  6  1  0  0  0  0
  5  7  1  0  0  0  0
  5  8  1  0  0  0  0
  8  9  1  0  0  0  0
  8 10  1  0  0  0  0
  8 11  1  0  0  0  0
 11 12  1  0  0  0  0
 11 13  1  0  0  0  0
 11 14  1  0  0  0  0
 14 15  1  0  0  0  0
 14 16  1  0  0  0  0
 14 17  1  0  0  0  0
 17 18  1  0  0  0  0
 17 19  1  0  0  0  0
 17 20  1  0  0  0  0
 20 21  1  0  0  0  0
 20 22  1  0  0  0  0
 20 23  1  0  0  0  0
M  END
> <VConfSearch Rank>
669

> <Conf_Id>
90

> <Delta U+W>
1.131

> <U+W>
-7.251

> <U>
48.641

> <W>
-55.892

> <W(PB)>
-57.962

> <W(SA)>
2.070

> <Valence>
2.922

> <Coulomb>
45.269

> <VdW>
0.450

> <VdW6>
-7.045

> <VdW12>
7.495

> <Bond>
0.220

> <Angle>
1.205

> <Pdih>
1.497

> <Idih>
0.000

> <Tether>
0.000

$$$$
VeraChem MOL file


 23 22  0  0  0  0  0  0  0  0999 V2000     
   18.6140   21.2603   22.1339 N   0  3  0  0  0  0  0  0  0  0  0  0
   18.0460   21.6700   21.3846 H   0  0  0  0  0  0  0  0  0  0  0  0
   19.4822   20.9257   21.7053 H   0  0  0  0  0  0  0  0  0  0  0  0
   18.8641   22.0234   22.7709 H   0  0  0  0  0  0  0  0  0  0  0  0
   17.8794   20.1455   22.8522 C   0  0  0  0  0  0  0  0  0  0  0  0
   17.6160   19.3830   22.1147 H   0  0  0  0  0  0  0  0  0  0  0  0
   16.9521   20.5626   23.2542 H   0  0  0  0  0  0  0  0  0  0  0  0
   18.6911   19.5054   23.9969 C   0  0  0  0  0  0  0  0  0  0  0  0
   18.9092   20.2700   24.7544 H   0  0  0  0  0  0  0  0  0  0  0  0
   18.0652   18.7525   24.4941 H   0  0  0  0  0  0  0  0  0  0  0  0
   20.0159   18.8463   23.5375 C   0  0  0  0  0  0  0  0  0  0  0  0
   20.5262   18.4349   24.4193 H   0  0  0  0  0  0  0  0  0  0  0  0
   20.6841   19.6143   23.1280 H   0  0  0  0  0  0  0  0  0  0  0  0
   19.8028   17.7149   22.5002 C   0  0  0  0  0  0  0  0  0  0  0  0
   19.0662   17.0014   22.8946 H   0  0  0  0  0  0  0  0  0  0  0  0
   19.3735   18.1240   21.5759 H   0  0  0  0  0  0  0  0  0  0  0  0
   21.1003   16.9435   22.1585 C   0  0  0  0  0  0  0  0  0  0  0  0
   20.8460   16.0976   21.5047 H   0  0  0  0  0  0  0  0  0  0  0  0
   21.5259   16.5074   23.0731 H   0  0  0  0  0  0  0  0  0  0  0  0
   22.1647   17.8152   21.4540 C   0  0  0  0  0  0  0  0  0  0  0  0
   21.7557   18.2843   20.5497 H   0  0  0  0  0  0  0  0  0  0  0  0
   23.0250   17.2029   21.1541 H   0  0  0  0  0  0  0  0  0  0  0  0
   22.5387   18.6074   22.1142 H   0  0  0  0  0  0  0  0  0  0  0  0
  1  2  1  0  0  0  0
  1  3  1  0  0  0  0
  1  4  1  0  0  0  0
  1  5  1  0  0  0  0
  5  6  1  0  0  0  0
  5  7  1  0  0  0  0
  5  8  1  0  0  0  0
  8  9  1  0  0  0  0
  8 10  1  0  0  0  0
  8 11  1  0  0  0  0
 11 12  1  0  0  0  0
 11 13  1  0  0  0  0
 11 14  1  0  0  0  0
 14 15  1  0  0  0  0
 14 16  1  0  0  0  0
 14 17  1  0  0  0  0
 17 18  1  0  0  0  0
 17 19  1  0  0  0  0
 17 20  1  0  0  0  0
 20 21  1  0  0  0  0
 20 22  1  0  0  0  0
 20 23  1  0  0  0  0
M  END
> <VConfSearch Rank>
670

> <Conf_Id>
85

> <Delta U+W>
1.193

> <U+W>
-7.189

> <U>
48.775

> <W>
-55.965

> <W(PB)>
-58.038

> <W(SA)>
2.073

> <Valence>
2.602

> <Coulomb>
45.581

> <VdW>
0.592

> <VdW6>
-6.616

> <VdW12>
7.208

> <Bond>
0.196

> <Angle>
0.832

> <Pdih>
1.574

> <Idih>
0.000

> <Tether>
0.000

$$$$
VeraChem MOL file


 23 22  0  0  0  0  0  0  0  0999 V2000     
   18.2334   18.2393   23.8116 N   0  3  0  0  0  0  0  0  0  0  0  0
   19.2569   18.2856   23.8447 H   0  0  0  0  0  0  0  0  0  0  0  0
   17.9587   17.2955   24.1049 H   0  0  0  0  0  0  0  0  0  0  0  0
   17.8747   18.8883   24.5195 H   0  0  0  0  0  0  0  0  0  0  0  0
   17.7104   18.5734   22.4279 C   0  0  0  0  0  0  0  0  0  0  0  0
   16.6201   18.5046   22.4735 H   0  0  0  0  0  0  0  0  0  0  0  0
   18.0689   17.8163   21.7256 H   0  0  0  0  0  0  0  0  0  0  0  0
   18.1056   19.9788   21.9305 C   0  0  0  0  0  0  0  0  0  0  0  0
   17.3865   20.2725   21.1543 H   0  0  0  0  0  0  0  0  0  0  0  0
   17.9826   20.7080   22.7423 H   0  0  0  0  0  0  0  0  0  0  0  0
   19.5300   20.0902   21.3231 C   0  0  0  0  0  0  0  0  0  0  0  0
   19.6537   21.1210   20.9631 H   0  0  0  0  0  0  0  0  0  0  0  0
   19.6070   19.4561   20.4290 H   0  0  0  0  0  0  0  0  0  0  0  0
   20.6934   19.7801   22.2996 C   0  0  0  0  0  0  0  0  0  0  0  0
   21.5329   20.4498   22.0659 H   0  0  0  0  0  0  0  0  0  0  0  0
   20.3994   20.0237   23.3291 H   0  0  0  0  0  0  0  0  0  0  0  0
   21.2052   18.3227   22.1947 C   0  0  0  0  0  0  0  0  0  0  0  0
   21.6462   18.1645   21.2003 H   0  0  0  0  0  0  0  0  0  0  0  0
   20.3788   17.6066   22.2756 H   0  0  0  0  0  0  0  0  0  0  0  0
   22.2634   18.0104   23.2738 C   0  0  0  0  0  0  0  0  0  0  0  0
   23.1287   18.6798   23.1820 H   0  0  0  0  0  0  0  0  0  0  0  0
   22.6252   16.9787   23.1745 H   0  0  0  0  0  0  0  0  0  0  0  0
   21.8491   18.1260   24.2836 H   0  0  0  0  0  0  0  0  0  0  0  0
  1  2  1  0  0  0  0
  1  3  1  0  0  0  0
  1  4  1  0  0  0  0
  1  5  1  0  0  0  0
  5  6  1  0  0  0  0
  5  7  1  0  0  0  0
  5  8  1  0  0  0  0
  8  9  1  0  0  0  0
  8 10  1  0  0  0  0
  8 11  1  0  0  0  0
 11 12  1  0  0  0  0
 11 13  1  0  0  0  0
 11 14  1  0  0  0  0
 14 15  1  0  0  0  0
 14 16  1  0  0  0  0
 14 17  1  0  0  0  0
 17 18  1  0  0  0  0
 17 19  1  0  0  0  0
 17 20  1  0  0  0  0
 20 21  1  0  0  0  0
 20 22  1  0  0  0  0
 20 23  1  0  0  0  0
M  END
> <VConfSearch Rank>
671

> <Conf_Id>
82

> <Delta U+W>
5.994

> <U+W>
-2.388

> <U>
52.836

> <W>
-55.224

> <W(PB)>
-57.261

> <W(SA)>
2.037

> <Valence>
5.785

> <Coulomb>
46.744

> <VdW>
0.307

> <VdW6>
-7.672

> <VdW12>
7.979

> <Bond>
0.217

> <Angle>
1.470

> <Pdih>
4.098

> <Idih>
0.000

> <Tether>
0.000

$$$$
VeraChem MOL file


 23 22  0  0  0  0  0  0  0  0999 V2000     
   19.3406   20.2164   20.9782 N   0  3  0  0  0  0  0  0  0  0  0  0
   19.9308   21.0361   20.8027 H   0  0  0  0  0  0  0  0  0  0  0  0
   18.7979   20.0505   20.1236 H   0  0  0  0  0  0  0  0  0  0  0  0
   19.9637   19.4127   21.1073 H   0  0  0  0  0  0  0  0  0  0  0  0
   18.4438   20.4189   22.1842 C   0  0  0  0  0  0  0  0  0  0  0  0
   17.7928   19.5467   22.2871 H   0  0  0  0  0  0  0  0  0  0  0  0
   17.8153   21.2881   21.9724 H   0  0  0  0  0  0  0  0  0  0  0  0
   19.2091   20.6601   23.5014 C   0  0  0  0  0  0  0  0  0  0  0  0
   20.0394   21.3569   23.3258 H   0  0  0  0  0  0  0  0  0  0  0  0
   18.5289   21.1747   24.1930 H   0  0  0  0  0  0  0  0  0  0  0  0
   19.7265   19.3798   24.2108 C   0  0  0  0  0  0  0  0  0  0  0  0
   18.8788   18.7449   24.5038 H   0  0  0  0  0  0  0  0  0  0  0  0
   20.1970   19.6939   25.1529 H   0  0  0  0  0  0  0  0  0  0  0  0
   20.7630   18.5507   23.4099 C   0  0  0  0  0  0  0  0  0  0  0  0
   21.3359   19.2053   22.7398 H   0  0  0  0  0  0  0  0  0  0  0  0
   21.4964   18.1346   24.1146 H   0  0  0  0  0  0  0  0  0  0  0  0
   20.1300   17.3713   22.6319 C   0  0  0  0  0  0  0  0  0  0  0  0
   19.2880   17.7100   22.0165 H   0  0  0  0  0  0  0  0  0  0  0  0
   19.7108   16.6493   23.3469 H   0  0  0  0  0  0  0  0  0  0  0  0
   21.1651   16.6563   21.7379 C   0  0  0  0  0  0  0  0  0  0  0  0
   21.5831   17.3395   20.9874 H   0  0  0  0  0  0  0  0  0  0  0  0
   20.7023   15.8146   21.2063 H   0  0  0  0  0  0  0  0  0  0  0  0
   21.9952   16.2594   22.3369 H   0  0  0  0  0  0  0  0  0  0  0  0
  1  2  1  0  0  0  0
  1  3  1  0  0  0  0
  1  4  1  0  0  0  0
  1  5  1  0  0  0  0
  5  6  1  0  0  0  0
  5  7  1  0  0  0  0
  5  8  1  0  0  0  0
  8  9  1  0  0  0  0
  8 10  1  0  0  0  0
  8 11  1  0  0  0  0
 11 12  1  0  0  0  0
 11 13  1  0  0  0  0
 11 14  1  0  0  0  0
 14 15  1  0  0  0  0
 14 16  1  0  0  0  0
 14 17  1  0  0  0  0
 17 18  1  0  0  0  0
 17 19  1  0  0  0  0
 17 20  1  0  0  0  0
 20 21  1  0  0  0  0
 20 22  1  0  0  0  0
 20 23  1  0  0  0  0
M  END
> <VConfSearch Rank>
672

> <Conf_Id>
5

> <Delta U+W>
6.087

> <U+W>
-2.295

> <U>
52.836

> <W>
-55.131

> <W(PB)>
-57.202

> <W(SA)>
2.071

> <Valence>
5.785

> <Coulomb>
46.744

> <VdW>
0.307

> <VdW6>
-7.672

> <VdW12>
7.980

> <Bond>
0.217

> <Angle>
1.470

> <Pdih>
4.098

> <Idih>
0.000

> <Tether>
0.000

$$$$
VeraChem MOL file


 23 22  0  0  0  0  0  0  0  0999 V2000     
   22.2757   16.7586   24.4509 N   0  3  0  0  0  0  0  0  0  0  0  0
   21.6082   16.0196   24.6939 H   0  0  0  0  0  0  0  0  0  0  0  0
   22.9579   16.8070   25.2154 H   0  0  0  0  0  0  0  0  0  0  0  0
   22.7839   16.4440   23.6180 H   0  0  0  0  0  0  0  0  0  0  0  0
   21.5883   18.0899   24.2250 C   0  0  0  0  0  0  0  0  0  0  0  0
   22.3580   18.8334   24.0007 H   0  0  0  0  0  0  0  0  0  0  0  0
   21.0944   18.3771   25.1572 H   0  0  0  0  0  0  0  0  0  0  0  0
   20.5573   18.0509   23.0831 C   0  0  0  0  0  0  0  0  0  0  0  0
   21.0547   17.7462   22.1525 H   0  0  0  0  0  0  0  0  0  0  0  0
   19.7955   17.2915   23.3049 H   0  0  0  0  0  0  0  0  0  0  0  0
   19.8801   19.4251   22.8854 C   0  0  0  0  0  0  0  0  0  0  0  0
   20.6460   20.1830   22.6689 H   0  0  0  0  0  0  0  0  0  0  0  0
   19.3882   19.7287   23.8201 H   0  0  0  0  0  0  0  0  0  0  0  0
   18.8422   19.3974   21.7404 C   0  0  0  0  0  0  0  0  0  0  0  0
   19.3340   19.0940   20.8057 H   0  0  0  0  0  0  0  0  0  0  0  0
   18.0763   18.6397   21.9567 H   0  0  0  0  0  0  0  0  0  0  0  0
   18.1651   20.7719   21.5430 C   0  0  0  0  0  0  0  0  0  0  0  0
   18.9271   21.5331   21.3240 H   0  0  0  0  0  0  0  0  0  0  0  0
   17.6695   21.0788   22.4748 H   0  0  0  0  0  0  0  0  0  0  0  0
   17.1294   20.7403   20.3990 C   0  0  0  0  0  0  0  0  0  0  0  0
   16.6596   21.7246   20.2741 H   0  0  0  0  0  0  0  0  0  0  0  0
   16.3348   20.0116   20.6057 H   0  0  0  0  0  0  0  0  0  0  0  0
   17.6022   20.4694   19.4459 H   0  0  0  0  0  0  0  0  0  0  0  0
  1  2  1  0  0  0  0
  1  3  1  0  0  0  0
  1  4  1  0  0  0  0
  1  5  1  0  0  0  0
  5  6  1  0  0  0  0
  5  7  1  0  0  0  0
  5  8  1  0  0  0  0
  8  9  1  0  0  0  0
  8 10  1  0  0  0  0
  8 11  1  0  0  0  0
 11 12  1  0  0  0  0
 11 13  1  0  0  0  0
 11 14  1  0  0  0  0
 14 15  1  0  0  0  0
 14 16  1  0  0  0  0
 14 17  1  0  0  0  0
 17 18  1  0  0  0  0
 17 19  1  0  0  0  0
 17 20  1  0  0  0  0
 20 21  1  0  0  0  0
 20 22  1  0  0  0  0
 20 23  1  0  0  0  0
M  END
> <VConfSearch Rank>
673

> <Conf_Id>
40

> <Delta U+W>
0.000

> <U+W>
-8.382

> <U>
46.604

> <W>
-54.986

> <W(PB)>
-57.162

> <W(SA)>
2.176

> <Valence>
1.727

> <Coulomb>
44.434

> <VdW>
0.443

> <VdW6>
-4.623

> <VdW12>
5.066

> <Bond>
0.112

> <Angle>
0.386

> <Pdih>
1.228

> <Idih>
0.000

> <Tether>
0.000

$$$$
VeraChem MOL file


 23 22  0  0  0  0  0  0  0  0999 V2000     
   22.3896   16.8069   21.6170 N   0  3  0  0  0  0  0  0  0  0  0  0
   22.4402   16.7505   20.5947 H   0  0  0  0  0  0  0  0  0  0  0  0
   21.9530   15.9396   21.9455 H   0  0  0  0  0  0  0  0  0  0  0  0
   23.3550   16.8045   21.9635 H   0  0  0  0  0  0  0  0  0  0  0  0
   21.6288   18.0332   22.0786 C   0  0  0  0  0  0  0  0  0  0  0  0
   22.1629   18.9169   21.7191 H   0  0  0  0  0  0  0  0  0  0  0  0
   21.6423   18.0438   23.1714 H   0  0  0  0  0  0  0  0  0  0  0  0
   20.1739   18.0662   21.5735 C   0  0  0  0  0  0  0  0  0  0  0  0
   20.1749   18.0070   20.4769 H   0  0  0  0  0  0  0  0  0  0  0  0
   19.6366   17.1794   21.9353 H   0  0  0  0  0  0  0  0  0  0  0  0
   19.4172   19.3448   22.0051 C   0  0  0  0  0  0  0  0  0  0  0  0
   18.4355   19.3449   21.5139 H   0  0  0  0  0  0  0  0  0  0  0  0
   19.9519   20.2299   21.6334 H   0  0  0  0  0  0  0  0  0  0  0  0
   19.2305   19.4520   23.5401 C   0  0  0  0  0  0  0  0  0  0  0  0
   18.6776   18.5768   23.9082 H   0  0  0  0  0  0  0  0  0  0  0  0
   20.2117   19.4269   24.0322 H   0  0  0  0  0  0  0  0  0  0  0  0
   18.5035   20.7449   23.9832 C   0  0  0  0  0  0  0  0  0  0  0  0
   19.0580   21.6243   23.6267 H   0  0  0  0  0  0  0  0  0  0  0  0
   18.5176   20.7978   25.0809 H   0  0  0  0  0  0  0  0  0  0  0  0
   17.0368   20.8240   23.5016 C   0  0  0  0  0  0  0  0  0  0  0  0
   16.9738   20.9016   22.4092 H   0  0  0  0  0  0  0  0  0  0  0  0
   16.5417   21.7084   23.9232 H   0  0  0  0  0  0  0  0  0  0  0  0
   16.4690   19.9394   23.8176 H   0  0  0  0  0  0  0  0  0  0  0  0
  1  2  1  0  0  0  0
  1  3  1  0  0  0  0
  1  4  1  0  0  0  0
  1  5  1  0  0  0  0
  5  6  1  0  0  0  0
  5  7  1  0  0  0  0
  5  8  1  0  0  0  0
  8  9  1  0  0  0  0
  8 10  1  0  0  0  0
  8 11  1  0  0  0  0
 11 12  1  0  0  0  0
 11 13  1  0  0  0  0
 11 14  1  0  0  0  0
 14 15  1  0  0  0  0
 14 16  1  0  0  0  0
 14 17  1  0  0  0  0
 17 18  1  0  0  0  0
 17 19  1  0  0  0  0
 17 20  1  0  0  0  0
 20 21  1  0  0  0  0
 20 22  1  0  0  0  0
 20 23  1  0  0  0  0
M  END
> <VConfSearch Rank>
674

> <Conf_Id>
65

> <Delta U+W>
1.004

> <U+W>
-7.378

> <U>
48.047

> <W>
-55.425

> <W(PB)>
-57.542

> <W(SA)>
2.116

> <Valence>
2.583

> <Coulomb>
44.791

> <VdW>
0.673

> <VdW6>
-5.788

> <VdW12>
6.462

> <Bond>
0.177

> <Angle>
0.787

> <Pdih>
1.619

> <Idih>
0.000

> <Tether>
0.000

$$$$
VeraChem MOL file


 23 22  0  0  0  0  0  0  0  0999 V2000     
   19.1904   15.7615   23.9598 N   0  3  0  0  0  0  0  0  0  0  0  0
   20.0341   15.1858   23.8736 H   0  0  0  0  0  0  0  0  0  0  0  0
   18.3908   15.1491   23.7655 H   0  0  0  0  0  0  0  0  0  0  0  0
   19.1173   16.0440   24.9425 H   0  0  0  0  0  0  0  0  0  0  0  0
   19.2236   16.9564   23.0288 C   0  0  0  0  0  0  0  0  0  0  0  0
   18.2852   17.5029   23.1520 H   0  0  0  0  0  0  0  0  0  0  0  0
   19.2727   16.5832   22.0023 H   0  0  0  0  0  0  0  0  0  0  0  0
   20.4147   17.8962   23.2958 C   0  0  0  0  0  0  0  0  0  0  0  0
   20.3653   18.2723   24.3264 H   0  0  0  0  0  0  0  0  0  0  0  0
   21.3476   17.3225   23.2153 H   0  0  0  0  0  0  0  0  0  0  0  0
   20.4726   19.0871   22.3099 C   0  0  0  0  0  0  0  0  0  0  0  0
   20.5319   18.7077   21.2803 H   0  0  0  0  0  0  0  0  0  0  0  0
   21.4038   19.6389   22.4925 H   0  0  0  0  0  0  0  0  0  0  0  0
   19.2639   20.0480   22.4450 C   0  0  0  0  0  0  0  0  0  0  0  0
   18.3316   19.4901   22.2866 H   0  0  0  0  0  0  0  0  0  0  0  0
   19.2174   20.4431   23.4692 H   0  0  0  0  0  0  0  0  0  0  0  0
   19.2969   21.2245   21.4394 C   0  0  0  0  0  0  0  0  0  0  0  0
   18.3549   21.7846   21.5223 H   0  0  0  0  0  0  0  0  0  0  0  0
   19.3328   20.8350   20.4124 H   0  0  0  0  0  0  0  0  0  0  0  0
   20.4751   22.1987   21.6680 C   0  0  0  0  0  0  0  0  0  0  0  0
   21.4412   21.7173   21.4726 H   0  0  0  0  0  0  0  0  0  0  0  0
   20.4806   22.5770   22.6985 H   0  0  0  0  0  0  0  0  0  0  0  0
   20.3955   23.0618   20.9945 H   0  0  0  0  0  0  0  0  0  0  0  0
  1  2  1  0  0  0  0
  1  3  1  0  0  0  0
  1  4  1  0  0  0  0
  1  5  1  0  0  0  0
  5  6  1  0  0  0  0
  5  7  1  0  0  0  0
  5  8  1  0  0  0  0
  8  9  1  0  0  0  0
  8 10  1  0  0  0  0
  8 11  1  0  0  0  0
 11 12  1  0  0  0  0
 11 13  1  0  0  0  0
 11 14  1  0  0  0  0
 14 15  1  0  0  0  0
 14 16  1  0  0  0  0
 14 17  1  0  0  0  0
 17 18  1  0  0  0  0
 17 19  1  0  0  0  0
 17 20  1  0  0  0  0
 20 21  1  0  0  0  0
 20 22  1  0  0  0  0
 20 23  1  0  0  0  0
M  END
> <VConfSearch Rank>
675

> <Conf_Id>
92

> <Delta U+W>
0.973

> <U+W>
-7.409

> <U>
48.047

> <W>
-55.456

> <W(PB)>
-57.595

> <W(SA)>
2.138

> <Valence>
2.583

> <Coulomb>
44.791

> <VdW>
0.674

> <VdW6>
-5.789

> <VdW12>
6.462

> <Bond>
0.177

> <Angle>
0.787

> <Pdih>
1.619

> <Idih>
0.000

> <Tether>
0.000

$$$$
VeraChem MOL file


 23 22  0  0  0  0  0  0  0  0999 V2000     
   16.8250   20.5853   23.7638 N   0  3  0  0  0  0  0  0  0  0  0  0
   15.9051   20.1373   23.6911 H   0  0  0  0  0  0  0  0  0  0  0  0
   16.7029   21.5632   23.4817 H   0  0  0  0  0  0  0  0  0  0  0  0
   17.0776   20.5874   24.7573 H   0  0  0  0  0  0  0  0  0  0  0  0
   17.8641   19.8781   22.9176 C   0  0  0  0  0  0  0  0  0  0  0  0
   17.5184   19.8881   21.8804 H   0  0  0  0  0  0  0  0  0  0  0  0
   17.9183   18.8391   23.2524 H   0  0  0  0  0  0  0  0  0  0  0  0
   19.2579   20.5281   23.0055 C   0  0  0  0  0  0  0  0  0  0  0  0
   19.1811   21.5828   22.7093 H   0  0  0  0  0  0  0  0  0  0  0  0
   19.6046   20.5188   24.0475 H   0  0  0  0  0  0  0  0  0  0  0  0
   20.3020   19.8283   22.1038 C   0  0  0  0  0  0  0  0  0  0  0  0
   21.2410   20.3976   22.1452 H   0  0  0  0  0  0  0  0  0  0  0  0
   19.9646   19.8618   21.0585 H   0  0  0  0  0  0  0  0  0  0  0  0
   20.5774   18.3624   22.5171 C   0  0  0  0  0  0  0  0  0  0  0  0
   20.8827   18.3294   23.5721 H   0  0  0  0  0  0  0  0  0  0  0  0
   19.6569   17.7693   22.4334 H   0  0  0  0  0  0  0  0  0  0  0  0
   21.6764   17.7170   21.6439 C   0  0  0  0  0  0  0  0  0  0  0  0
   22.6056   18.2980   21.7266 H   0  0  0  0  0  0  0  0  0  0  0  0
   21.3763   17.7479   20.5870 H   0  0  0  0  0  0  0  0  0  0  0  0
   21.9492   16.2547   22.0560 C   0  0  0  0  0  0  0  0  0  0  0  0
   22.2839   16.1946   23.0998 H   0  0  0  0  0  0  0  0  0  0  0  0
   22.7322   15.8139   21.4254 H   0  0  0  0  0  0  0  0  0  0  0  0
   21.0460   15.6396   21.9506 H   0  0  0  0  0  0  0  0  0  0  0  0
  1  2  1  0  0  0  0
  1  3  1  0  0  0  0
  1  4  1  0  0  0  0
  1  5  1  0  0  0  0
  5  6  1  0  0  0  0
  5  7  1  0  0  0  0
  5  8  1  0  0  0  0
  8  9  1  0  0  0  0
  8 10  1  0  0  0  0
  8 11  1  0  0  0  0
 11 12  1  0  0  0  0
 11 13  1  0  0  0  0
 11 14  1  0  0  0  0
 14 15  1  0  0  0  0
 14 16  1  0  0  0  0
 14 17  1  0  0  0  0
 17 18  1  0  0  0  0
 17 19  1  0  0  0  0
 17 20  1  0  0  0  0
 20 21  1  0  0  0  0
 20 22  1  0  0  0  0
 20 23  1  0  0  0  0
M  END
> <VConfSearch Rank>
676

> <Conf_Id>
42

> <Delta U+W>
0.365

> <U+W>
-8.017

> <U>
47.375

> <W>
-55.392

> <W(PB)>
-57.543

> <W(SA)>
2.152

> <Valence>
2.032

> <Coulomb>
44.843

> <VdW>
0.499

> <VdW6>
-5.218

> <VdW12>
5.717

> <Bond>
0.135

> <Angle>
0.514

> <Pdih>
1.383

> <Idih>
0.000

> <Tether>
0.000

$$$$
VeraChem MOL file


 23 22  0  0  0  0  0  0  0  0999 V2000     
   17.1583   20.7132   23.2218 N   0  3  0  0  0  0  0  0  0  0  0  0
   16.6163   19.8991   23.5284 H   0  0  0  0  0  0  0  0  0  0  0  0
   16.4870   21.4655   23.0339 H   0  0  0  0  0  0  0  0  0  0  0  0
   17.7294   21.0139   24.0173 H   0  0  0  0  0  0  0  0  0  0  0  0
   18.0070   20.3997   22.0048 C   0  0  0  0  0  0  0  0  0  0  0  0
   18.5380   21.3108   21.7164 H   0  0  0  0  0  0  0  0  0  0  0  0
   17.3290   20.1288   21.1908 H   0  0  0  0  0  0  0  0  0  0  0  0
   19.0180   19.2578   22.2268 C   0  0  0  0  0  0  0  0  0  0  0  0
   18.4849   18.3515   22.5431 H   0  0  0  0  0  0  0  0  0  0  0  0
   19.4869   19.0331   21.2611 H   0  0  0  0  0  0  0  0  0  0  0  0
   20.1135   19.6206   23.2588 C   0  0  0  0  0  0  0  0  0  0  0  0
   19.6405   19.9461   24.1946 H   0  0  0  0  0  0  0  0  0  0  0  0
   20.6884   20.4819   22.8914 H   0  0  0  0  0  0  0  0  0  0  0  0
   21.0848   18.4593   23.5951 C   0  0  0  0  0  0  0  0  0  0  0  0
   21.7808   18.8234   24.3635 H   0  0  0  0  0  0  0  0  0  0  0  0
   20.5354   17.6312   24.0636 H   0  0  0  0  0  0  0  0  0  0  0  0
   21.9199   17.9389   22.3966 C   0  0  0  0  0  0  0  0  0  0  0  0
   22.9198   17.6633   22.7602 H   0  0  0  0  0  0  0  0  0  0  0  0
   22.0768   18.7415   21.6625 H   0  0  0  0  0  0  0  0  0  0  0  0
   21.3033   16.6964   21.7124 C   0  0  0  0  0  0  0  0  0  0  0  0
   21.2129   15.8635   22.4217 H   0  0  0  0  0  0  0  0  0  0  0  0
   21.9391   16.3595   20.8834 H   0  0  0  0  0  0  0  0  0  0  0  0
   20.3072   16.9008   21.3048 H   0  0  0  0  0  0  0  0  0  0  0  0
  1  2  1  0  0  0  0
  1  3  1  0  0  0  0
  1  4  1  0  0  0  0
  1  5  1  0  0  0  0
  5  6  1  0  0  0  0
  5  7  1  0  0  0  0
  5  8  1  0  0  0  0
  8  9  1  0  0  0  0
  8 10  1  0  0  0  0
  8 11  1  0  0  0  0
 11 12  1  0  0  0  0
 11 13  1  0  0  0  0
 11 14  1  0  0  0  0
 14 15  1  0  0  0  0
 14 16  1  0  0  0  0
 14 17  1  0  0  0  0
 17 18  1  0  0  0  0
 17 19  1  0  0  0  0
 17 20  1  0  0  0  0
 20 21  1  0  0  0  0
 20 22  1  0  0  0  0
 20 23  1  0  0  0  0
M  END
> <VConfSearch Rank>
677

> <Conf_Id>
3

> <Delta U+W>
3.283

> <U+W>
-5.099

> <U>
50.701

> <W>
-55.800

> <W(PB)>
-57.867

> <W(SA)>
2.067

> <Valence>
4.880

> <Coulomb>
45.095

> <VdW>
0.726

> <VdW6>
-6.620

> <VdW12>
7.346

> <Bond>
0.222

> <Angle>
1.260

> <Pdih>
3.398

> <Idih>
0.000

> <Tether>
0.000

$$$$
VeraChem MOL file


 23 22  0  0  0  0  0  0  0  0999 V2000     
   18.9277   16.3405   22.0512 N   0  3  0  0  0  0  0  0  0  0  0  0
   18.2792   16.2646   21.2611 H   0  0  0  0  0  0  0  0  0  0  0  0
   19.1007   15.3877   22.3889 H   0  0  0  0  0  0  0  0  0  0  0  0
   19.8153   16.6948   21.6821 H   0  0  0  0  0  0  0  0  0  0  0  0
   18.3798   17.2354   23.1453 C   0  0  0  0  0  0  0  0  0  0  0  0
   19.1015   17.2485   23.9660 H   0  0  0  0  0  0  0  0  0  0  0  0
   17.4561   16.7817   23.5147 H   0  0  0  0  0  0  0  0  0  0  0  0
   18.0903   18.6773   22.6803 C   0  0  0  0  0  0  0  0  0  0  0  0
   17.3263   18.6523   21.8919 H   0  0  0  0  0  0  0  0  0  0  0  0
   17.6480   19.2351   23.5164 H   0  0  0  0  0  0  0  0  0  0  0  0
   19.3358   19.4392   22.1607 C   0  0  0  0  0  0  0  0  0  0  0  0
   19.0101   20.4307   21.8205 H   0  0  0  0  0  0  0  0  0  0  0  0
   19.7430   18.9313   21.2764 H   0  0  0  0  0  0  0  0  0  0  0  0
   20.4448   19.5976   23.2319 C   0  0  0  0  0  0  0  0  0  0  0  0
   20.0430   20.1305   24.1047 H   0  0  0  0  0  0  0  0  0  0  0  0
   20.7542   18.6071   23.5904 H   0  0  0  0  0  0  0  0  0  0  0  0
   21.7029   20.3345   22.7117 C   0  0  0  0  0  0  0  0  0  0  0  0
   22.1157   19.7997   21.8449 H   0  0  0  0  0  0  0  0  0  0  0  0
   22.4776   20.3003   23.4906 H   0  0  0  0  0  0  0  0  0  0  0  0
   21.4421   21.8110   22.3361 C   0  0  0  0  0  0  0  0  0  0  0  0
   20.9978   22.3598   23.1766 H   0  0  0  0  0  0  0  0  0  0  0  0
   20.7682   21.8959   21.4747 H   0  0  0  0  0  0  0  0  0  0  0  0
   22.3821   22.3108   22.0688 H   0  0  0  0  0  0  0  0  0  0  0  0
  1  2  1  0  0  0  0
  1  3  1  0  0  0  0
  1  4  1  0  0  0  0
  1  5  1  0  0  0  0
  5  6  1  0  0  0  0
  5  7  1  0  0  0  0
  5  8  1  0  0  0  0
  8  9  1  0  0  0  0
  8 10  1  0  0  0  0
  8 11  1  0  0  0  0
 11 12  1  0  0  0  0
 11 13  1  0  0  0  0
 11 14  1  0  0  0  0
 14 15  1  0  0  0  0
 14 16  1  0  0  0  0
 14 17  1  0  0  0  0
 17 18  1  0  0  0  0
 17 19  1  0  0  0  0
 17 20  1  0  0  0  0
 20 21  1  0  0  0  0
 20 22  1  0  0  0  0
 20 23  1  0  0  0  0
M  END
> <VConfSearch Rank>
678

> <Conf_Id>
83

> <Delta U+W>
1.229

> <U+W>
-7.154

> <U>
48.727

> <W>
-55.880

> <W(PB)>
-57.960

> <W(SA)>
2.080

> <Valence>
2.671

> <Coulomb>
45.371

> <VdW>
0.684

> <VdW6>
-6.511

> <VdW12>
7.195

> <Bond>
0.203

> <Angle>
0.915

> <Pdih>
1.554

> <Idih>
0.000

> <Tether>
0.000

$$$$
VeraChem MOL file


 23 22  0  0  0  0  0  0  0  0999 V2000     
   20.9262   18.1904   25.0847 N   0  3  0  0  0  0  0  0  0  0  0  0
   21.8794   18.5432   25.2170 H   0  0  0  0  0  0  0  0  0  0  0  0
   20.9394   17.5827   24.2601 H   0  0  0  0  0  0  0  0  0  0  0  0
   20.7120   17.5967   25.8931 H   0  0  0  0  0  0  0  0  0  0  0  0
   19.9245   19.3182   24.9326 C   0  0  0  0  0  0  0  0  0  0  0  0
   19.9385   19.9024   25.8567 H   0  0  0  0  0  0  0  0  0  0  0  0
   18.9303   18.8768   24.8268 H   0  0  0  0  0  0  0  0  0  0  0  0
   20.2142   20.2477   23.7362 C   0  0  0  0  0  0  0  0  0  0  0  0
   19.4765   21.0611   23.7354 H   0  0  0  0  0  0  0  0  0  0  0  0
   21.1931   20.7234   23.8816 H   0  0  0  0  0  0  0  0  0  0  0  0
   20.1913   19.5366   22.3594 C   0  0  0  0  0  0  0  0  0  0  0  0
   20.9769   18.7703   22.3210 H   0  0  0  0  0  0  0  0  0  0  0  0
   20.4487   20.2765   21.5905 H   0  0  0  0  0  0  0  0  0  0  0  0
   18.8190   18.8983   22.0252 C   0  0  0  0  0  0  0  0  0  0  0  0
   18.5493   18.1756   22.8065 H   0  0  0  0  0  0  0  0  0  0  0  0
   18.0384   19.6714   22.0368 H   0  0  0  0  0  0  0  0  0  0  0  0
   18.7969   18.1631   20.6630 C   0  0  0  0  0  0  0  0  0  0  0  0
   17.8333   17.6449   20.5588 H   0  0  0  0  0  0  0  0  0  0  0  0
   19.5688   17.3811   20.6496 H   0  0  0  0  0  0  0  0  0  0  0  0
   18.9879   19.1036   19.4512 C   0  0  0  0  0  0  0  0  0  0  0  0
   18.2479   19.9144   19.4599 H   0  0  0  0  0  0  0  0  0  0  0  0
   18.8661   18.5487   18.5120 H   0  0  0  0  0  0  0  0  0  0  0  0
   19.9892   19.5513   19.4410 H   0  0  0  0  0  0  0  0  0  0  0  0
  1  2  1  0  0  0  0
  1  3  1  0  0  0  0
  1  4  1  0  0  0  0
  1  5  1  0  0  0  0
  5  6  1  0  0  0  0
  5  7  1  0  0  0  0
  5  8  1  0  0  0  0
  8  9  1  0  0  0  0
  8 10  1  0  0  0  0
  8 11  1  0  0  0  0
 11 12  1  0  0  0  0
 11 13  1  0  0  0  0
 11 14  1  0  0  0  0
 14 15  1  0  0  0  0
 14 16  1  0  0  0  0
 14 17  1  0  0  0  0
 17 18  1  0  0  0  0
 17 19  1  0  0  0  0
 17 20  1  0  0  0  0
 20 21  1  0  0  0  0
 20 22  1  0  0  0  0
 20 23  1  0  0  0  0
M  END
> <VConfSearch Rank>
679

> <Conf_Id>
50

> <Delta U+W>
1.252

> <U+W>
-7.130

> <U>
48.727

> <W>
-55.857

> <W(PB)>
-57.937

> <W(SA)>
2.080

> <Valence>
2.671

> <Coulomb>
45.371

> <VdW>
0.684

> <VdW6>
-6.511

> <VdW12>
7.196

> <Bond>
0.203

> <Angle>
0.915

> <Pdih>
1.554

> <Idih>
0.000

> <Tether>
0.000

$$$$
VeraChem MOL file


 23 22  0  0  0  0  0  0  0  0999 V2000     
   22.0587   20.1913   20.7134 N   0  3  0  0  0  0  0  0  0  0  0  0
   22.0199   19.2026   20.4479 H   0  0  0  0  0  0  0  0  0  0  0  0
   23.0364   20.4877   20.6225 H   0  0  0  0  0  0  0  0  0  0  0  0
   21.5218   20.7143   20.0142 H   0  0  0  0  0  0  0  0  0  0  0  0
   21.5298   20.4187   22.1162 C   0  0  0  0  0  0  0  0  0  0  0  0
   21.6404   21.4825   22.3435 H   0  0  0  0  0  0  0  0  0  0  0  0
   22.1581   19.8550   22.8112 H   0  0  0  0  0  0  0  0  0  0  0  0
   20.0560   20.0078   22.3000 C   0  0  0  0  0  0  0  0  0  0  0  0
   19.7386   20.3104   23.3042 H   0  0  0  0  0  0  0  0  0  0  0  0
   19.4300   20.5726   21.5965 H   0  0  0  0  0  0  0  0  0  0  0  0
   19.8308   18.4872   22.1014 C   0  0  0  0  0  0  0  0  0  0  0  0
   20.5214   17.9123   22.7338 H   0  0  0  0  0  0  0  0  0  0  0  0
   20.0822   18.2300   21.0638 H   0  0  0  0  0  0  0  0  0  0  0  0
   18.3693   18.0416   22.3690 C   0  0  0  0  0  0  0  0  0  0  0  0
   17.6730   18.8611   22.1440 H   0  0  0  0  0  0  0  0  0  0  0  0
   18.1206   17.2397   21.6601 H   0  0  0  0  0  0  0  0  0  0  0  0
   18.1088   17.4974   23.7971 C   0  0  0  0  0  0  0  0  0  0  0  0
   18.7382   16.6143   23.9752 H   0  0  0  0  0  0  0  0  0  0  0  0
   17.0691   17.1453   23.8515 H   0  0  0  0  0  0  0  0  0  0  0  0
   18.3418   18.5277   24.9236 C   0  0  0  0  0  0  0  0  0  0  0  0
   17.7704   19.4475   24.7439 H   0  0  0  0  0  0  0  0  0  0  0  0
   19.4039   18.7869   25.0134 H   0  0  0  0  0  0  0  0  0  0  0  0
   18.0222   18.1176   25.8903 H   0  0  0  0  0  0  0  0  0  0  0  0
  1  2  1  0  0  0  0
  1  3  1  0  0  0  0
  1  4  1  0  0  0  0
  1  5  1  0  0  0  0
  5  6  1  0  0  0  0
  5  7  1  0  0  0  0
  5  8  1  0  0  0  0
  8  9  1  0  0  0  0
  8 10  1  0  0  0  0
  8 11  1  0  0  0  0
 11 12  1  0  0  0  0
 11 13  1  0  0  0  0
 11 14  1  0  0  0  0
 14 15  1  0  0  0  0
 14 16  1  0  0  0  0
 14 17  1  0  0  0  0
 17 18  1  0  0  0  0
 17 19  1  0  0  0  0
 17 20  1  0  0  0  0
 20 21  1  0  0  0  0
 20 22  1  0  0  0  0
 20 23  1  0  0  0  0
M  END
> <VConfSearch Rank>
680

> <Conf_Id>
55

> <Delta U+W>
3.232

> <U+W>
-5.150

> <U>
50.625

> <W>
-55.776

> <W(PB)>
-57.839

> <W(SA)>
2.064

> <Valence>
4.837

> <Coulomb>
45.097

> <VdW>
0.692

> <VdW6>
-6.655

> <VdW12>
7.347

> <Bond>
0.223

> <Angle>
1.167

> <Pdih>
3.447

> <Idih>
0.000

> <Tether>
0.000

$$$$
VeraChem MOL file


 23 22  0  0  0  0  0  0  0  0999 V2000     
   22.5378   19.4527   24.1526 N   0  3  0  0  0  0  0  0  0  0  0  0
   22.6110   19.3196   25.1664 H   0  0  0  0  0  0  0  0  0  0  0  0
   23.1645   20.2269   23.9081 H   0  0  0  0  0  0  0  0  0  0  0  0
   22.9181   18.6100   23.7099 H   0  0  0  0  0  0  0  0  0  0  0  0
   21.1114   19.7245   23.7199 C   0  0  0  0  0  0  0  0  0  0  0  0
   21.1163   19.8910   22.6412 H   0  0  0  0  0  0  0  0  0  0  0  0
   20.7831   20.6474   24.2055 H   0  0  0  0  0  0  0  0  0  0  0  0
   20.1440   18.5800   24.0807 C   0  0  0  0  0  0  0  0  0  0  0  0
   20.4869   17.6356   23.6376 H   0  0  0  0  0  0  0  0  0  0  0  0
   20.1734   18.4402   25.1695 H   0  0  0  0  0  0  0  0  0  0  0  0
   18.6801   18.8656   23.6600 C   0  0  0  0  0  0  0  0  0  0  0  0
   18.4458   19.9287   23.8104 H   0  0  0  0  0  0  0  0  0  0  0  0
   18.0157   18.3160   24.3412 H   0  0  0  0  0  0  0  0  0  0  0  0
   18.3203   18.4400   22.2126 C   0  0  0  0  0  0  0  0  0  0  0  0
   18.4595   17.3555   22.1048 H   0  0  0  0  0  0  0  0  0  0  0  0
   17.2483   18.6259   22.0586 H   0  0  0  0  0  0  0  0  0  0  0  0
   19.1186   19.1715   21.1089 C   0  0  0  0  0  0  0  0  0  0  0  0
   20.1741   18.8730   21.1507 H   0  0  0  0  0  0  0  0  0  0  0  0
   19.0794   20.2569   21.2759 H   0  0  0  0  0  0  0  0  0  0  0  0
   18.5706   18.8500   19.7021 C   0  0  0  0  0  0  0  0  0  0  0  0
   17.5249   19.1690   19.6026 H   0  0  0  0  0  0  0  0  0  0  0  0
   18.6206   17.7728   19.4959 H   0  0  0  0  0  0  0  0  0  0  0  0
   19.1550   19.3681   18.9308 H   0  0  0  0  0  0  0  0  0  0  0  0
  1  2  1  0  0  0  0
  1  3  1  0  0  0  0
  1  4  1  0  0  0  0
  1  5  1  0  0  0  0
  5  6  1  0  0  0  0
  5  7  1  0  0  0  0
  5  8  1  0  0  0  0
  8  9  1  0  0  0  0
  8 10  1  0  0  0  0
  8 11  1  0  0  0  0
 11 12  1  0  0  0  0
 11 13  1  0  0  0  0
 11 14  1  0  0  0  0
 14 15  1  0  0  0  0
 14 16  1  0  0  0  0
 14 17  1  0  0  0  0
 17 18  1  0  0  0  0
 17 19  1  0  0  0  0
 17 20  1  0  0  0  0
 20 21  1  0  0  0  0
 20 22  1  0  0  0  0
 20 23  1  0  0  0  0
M  END
> <VConfSearch Rank>
681

> <Conf_Id>
93

> <Delta U+W>
2.589

> <U+W>
-5.793

> <U>
50.122

> <W>
-55.915

> <W(PB)>
-58.031

> <W(SA)>
2.115

> <Valence>
4.132

> <Coulomb>
45.536

> <VdW>
0.454

> <VdW6>
-6.262

> <VdW12>
6.715

> <Bond>
0.182

> <Angle>
1.157

> <Pdih>
2.794

> <Idih>
0.000

> <Tether>
0.000

$$$$
VeraChem MOL file


 23 22  0  0  0  0  0  0  0  0999 V2000     
   19.2223   16.0102   23.5256 N   0  3  0  0  0  0  0  0  0  0  0  0
   18.4415   15.9393   22.8651 H   0  0  0  0  0  0  0  0  0  0  0  0
   18.8435   15.8105   24.4576 H   0  0  0  0  0  0  0  0  0  0  0  0
   19.8760   15.2530   23.3017 H   0  0  0  0  0  0  0  0  0  0  0  0
   19.8903   17.3689   23.4683 C   0  0  0  0  0  0  0  0  0  0  0  0
   20.6894   17.3821   24.2144 H   0  0  0  0  0  0  0  0  0  0  0  0
   19.1482   18.1174   23.7516 H   0  0  0  0  0  0  0  0  0  0  0  0
   20.4760   17.6941   22.0801 C   0  0  0  0  0  0  0  0  0  0  0  0
   21.2104   16.9168   21.8301 H   0  0  0  0  0  0  0  0  0  0  0  0
   19.6928   17.6390   21.3123 H   0  0  0  0  0  0  0  0  0  0  0  0
   21.1803   19.0734   22.0250 C   0  0  0  0  0  0  0  0  0  0  0  0
   21.9574   19.0292   21.2494 H   0  0  0  0  0  0  0  0  0  0  0  0
   21.7124   19.2622   22.9678 H   0  0  0  0  0  0  0  0  0  0  0  0
   20.2519   20.2692   21.6880 C   0  0  0  0  0  0  0  0  0  0  0  0
   20.8733   21.1719   21.6079 H   0  0  0  0  0  0  0  0  0  0  0  0
   19.8060   20.1179   20.6952 H   0  0  0  0  0  0  0  0  0  0  0  0
   19.1296   20.5243   22.7205 C   0  0  0  0  0  0  0  0  0  0  0  0
   19.5548   20.5630   23.7331 H   0  0  0  0  0  0  0  0  0  0  0  0
   18.4085   19.6970   22.7009 H   0  0  0  0  0  0  0  0  0  0  0  0
   18.3778   21.8408   22.4303 C   0  0  0  0  0  0  0  0  0  0  0  0
   17.5783   22.0007   23.1654 H   0  0  0  0  0  0  0  0  0  0  0  0
   17.9196   21.8219   21.4329 H   0  0  0  0  0  0  0  0  0  0  0  0
   19.0562   22.7026   22.4787 H   0  0  0  0  0  0  0  0  0  0  0  0
  1  2  1  0  0  0  0
  1  3  1  0  0  0  0
  1  4  1  0  0  0  0
  1  5  1  0  0  0  0
  5  6  1  0  0  0  0
  5  7  1  0  0  0  0
  5  8  1  0  0  0  0
  8  9  1  0  0  0  0
  8 10  1  0  0  0  0
  8 11  1  0  0  0  0
 11 12  1  0  0  0  0
 11 13  1  0  0  0  0
 11 14  1  0  0  0  0
 14 15  1  0  0  0  0
 14 16  1  0  0  0  0
 14 17  1  0  0  0  0
 17 18  1  0  0  0  0
 17 19  1  0  0  0  0
 17 20  1  0  0  0  0
 20 21  1  0  0  0  0
 20 22  1  0  0  0  0
 20 23  1  0  0  0  0
M  END
> <VConfSearch Rank>
682

> <Conf_Id>
70

> <Delta U+W>
2.599

> <U+W>
-5.783

> <U>
50.122

> <W>
-55.906

> <W(PB)>
-58.010

> <W(SA)>
2.105

> <Valence>
4.132

> <Coulomb>
45.536

> <VdW>
0.454

> <VdW6>
-6.262

> <VdW12>
6.715

> <Bond>
0.182

> <Angle>
1.157

> <Pdih>
2.794

> <Idih>
0.000

> <Tether>
0.000

$$$$
VeraChem MOL file


 23 22  0  0  0  0  0  0  0  0999 V2000     
   17.1241   18.5232   23.3867 N   0  3  0  0  0  0  0  0  0  0  0  0
   16.4353   18.0013   22.8356 H   0  0  0  0  0  0  0  0  0  0  0  0
   16.6101   18.9975   24.1367 H   0  0  0  0  0  0  0  0  0  0  0  0
   17.7400   17.8358   23.8313 H   0  0  0  0  0  0  0  0  0  0  0  0
   17.9039   19.5022   22.5312 C   0  0  0  0  0  0  0  0  0  0  0  0
   18.5934   20.0471   23.1813 H   0  0  0  0  0  0  0  0  0  0  0  0
   17.1924   20.2196   22.1134 H   0  0  0  0  0  0  0  0  0  0  0  0
   18.6889   18.8324   21.3854 C   0  0  0  0  0  0  0  0  0  0  0  0
   17.9834   18.3175   20.7200 H   0  0  0  0  0  0  0  0  0  0  0  0
   19.1595   19.6134   20.7746 H   0  0  0  0  0  0  0  0  0  0  0  0
   19.7662   17.8241   21.8645 C   0  0  0  0  0  0  0  0  0  0  0  0
   20.2978   17.4305   20.9872 H   0  0  0  0  0  0  0  0  0  0  0  0
   19.2721   16.9579   22.3247 H   0  0  0  0  0  0  0  0  0  0  0  0
   20.8006   18.4003   22.8659 C   0  0  0  0  0  0  0  0  0  0  0  0
   20.2968   18.7131   23.7902 H   0  0  0  0  0  0  0  0  0  0  0  0
   21.4890   17.5941   23.1548 H   0  0  0  0  0  0  0  0  0  0  0  0
   21.6216   19.5808   22.2955 C   0  0  0  0  0  0  0  0  0  0  0  0
   20.9599   20.4264   22.0656 H   0  0  0  0  0  0  0  0  0  0  0  0
   22.0956   19.2806   21.3506 H   0  0  0  0  0  0  0  0  0  0  0  0
   22.7078   20.0501   23.2867 C   0  0  0  0  0  0  0  0  0  0  0  0
   23.2786   20.8889   22.8676 H   0  0  0  0  0  0  0  0  0  0  0  0
   23.4147   19.2407   23.5108 H   0  0  0  0  0  0  0  0  0  0  0  0
   22.2611   20.3854   24.2318 H   0  0  0  0  0  0  0  0  0  0  0  0
  1  2  1  0  0  0  0
  1  3  1  0  0  0  0
  1  4  1  0  0  0  0
  1  5  1  0  0  0  0
  5  6  1  0  0  0  0
  5  7  1  0  0  0  0
  5  8  1  0  0  0  0
  8  9  1  0  0  0  0
  8 10  1  0  0  0  0
  8 11  1  0  0  0  0
 11 12  1  0  0  0  0
 11 13  1  0  0  0  0
 11 14  1  0  0  0  0
 14 15  1  0  0  0  0
 14 16  1  0  0  0  0
 14 17  1  0  0  0  0
 17 18  1  0  0  0  0
 17 19  1  0  0  0  0
 17 20  1  0  0  0  0
 20 21  1  0  0  0  0
 20 22  1  0  0  0  0
 20 23  1  0  0  0  0
M  END
> <VConfSearch Rank>
683

> <Conf_Id>
72

> <Delta U+W>
1.051

> <U+W>
-7.331

> <U>
48.590

> <W>
-55.922

> <W(PB)>
-58.012

> <W(SA)>
2.090

> <Valence>
2.601

> <Coulomb>
45.520

> <VdW>
0.469

> <VdW6>
-6.867

> <VdW12>
7.336

> <Bond>
0.205

> <Angle>
0.962

> <Pdih>
1.434

> <Idih>
0.000

> <Tether>
0.000

$$$$
VeraChem MOL file


 23 22  0  0  0  0  0  0  0  0999 V2000     
   17.3576   18.5678   24.5963 N   0  3  0  0  0  0  0  0  0  0  0  0
   16.6657   19.2434   24.9380 H   0  0  0  0  0  0  0  0  0  0  0  0
   17.5325   17.9082   25.3612 H   0  0  0  0  0  0  0  0  0  0  0  0
   16.9107   18.0404   23.8394 H   0  0  0  0  0  0  0  0  0  0  0  0
   18.6301   19.2495   24.1361 C   0  0  0  0  0  0  0  0  0  0  0  0
   19.0357   19.8135   24.9803 H   0  0  0  0  0  0  0  0  0  0  0  0
   18.3656   19.9561   23.3452 H   0  0  0  0  0  0  0  0  0  0  0  0
   19.6907   18.2612   23.6162 C   0  0  0  0  0  0  0  0  0  0  0  0
   19.9215   17.5337   24.4055 H   0  0  0  0  0  0  0  0  0  0  0  0
   19.2802   17.6853   22.7770 H   0  0  0  0  0  0  0  0  0  0  0  0
   21.0020   18.9639   23.1852 C   0  0  0  0  0  0  0  0  0  0  0  0
   21.7212   18.2059   22.8474 H   0  0  0  0  0  0  0  0  0  0  0  0
   21.4594   19.4332   24.0672 H   0  0  0  0  0  0  0  0  0  0  0  0
   20.8305   20.0441   22.0831 C   0  0  0  0  0  0  0  0  0  0  0  0
   20.2444   20.8828   22.4823 H   0  0  0  0  0  0  0  0  0  0  0  0
   21.8185   20.4620   21.8453 H   0  0  0  0  0  0  0  0  0  0  0  0
   20.1687   19.5492   20.7720 C   0  0  0  0  0  0  0  0  0  0  0  0
   20.0895   20.3975   20.0779 H   0  0  0  0  0  0  0  0  0  0  0  0
   19.1382   19.2230   20.9662 H   0  0  0  0  0  0  0  0  0  0  0  0
   20.9543   18.4123   20.0801 C   0  0  0  0  0  0  0  0  0  0  0  0
   21.9927   18.7113   19.8869 H   0  0  0  0  0  0  0  0  0  0  0  0
   20.4936   18.1571   19.1170 H   0  0  0  0  0  0  0  0  0  0  0  0
   20.9670   17.5018   20.6919 H   0  0  0  0  0  0  0  0  0  0  0  0
  1  2  1  0  0  0  0
  1  3  1  0  0  0  0
  1  4  1  0  0  0  0
  1  5  1  0  0  0  0
  5  6  1  0  0  0  0
  5  7  1  0  0  0  0
  5  8  1  0  0  0  0
  8  9  1  0  0  0  0
  8 10  1  0  0  0  0
  8 11  1  0  0  0  0
 11 12  1  0  0  0  0
 11 13  1  0  0  0  0
 11 14  1  0  0  0  0
 14 15  1  0  0  0  0
 14 16  1  0  0  0  0
 14 17  1  0  0  0  0
 17 18  1  0  0  0  0
 17 19  1  0  0  0  0
 17 20  1  0  0  0  0
 20 21  1  0  0  0  0
 20 22  1  0  0  0  0
 20 23  1  0  0  0  0
M  END
> <VConfSearch Rank>
684

> <Conf_Id>
26

> <Delta U+W>
1.076

> <U+W>
-7.306

> <U>
48.641

> <W>
-55.947

> <W(PB)>
-58.031

> <W(SA)>
2.084

> <Valence>
2.922

> <Coulomb>
45.269

> <VdW>
0.449

> <VdW6>
-7.045

> <VdW12>
7.494

> <Bond>
0.220

> <Angle>
1.205

> <Pdih>
1.497

> <Idih>
0.000

> <Tether>
0.000

$$$$
VeraChem MOL file


 23 22  0  0  0  0  0  0  0  0999 V2000     
   21.8467   20.8844   21.1632 N   0  3  0  0  0  0  0  0  0  0  0  0
   21.7251   21.8835   21.3578 H   0  0  0  0  0  0  0  0  0  0  0  0
   22.2627   20.8116   20.2285 H   0  0  0  0  0  0  0  0  0  0  0  0
   22.5424   20.5303   21.8275 H   0  0  0  0  0  0  0  0  0  0  0  0
   20.5377   20.1272   21.2572 C   0  0  0  0  0  0  0  0  0  0  0  0
   20.7362   19.0812   21.0096 H   0  0  0  0  0  0  0  0  0  0  0  0
   19.8563   20.5355   20.5061 H   0  0  0  0  0  0  0  0  0  0  0  0
   19.8869   20.2166   22.6501 C   0  0  0  0  0  0  0  0  0  0  0  0
   20.5753   19.8190   23.4067 H   0  0  0  0  0  0  0  0  0  0  0  0
   19.7262   21.2727   22.9045 H   0  0  0  0  0  0  0  0  0  0  0  0
   18.5305   19.4725   22.7249 C   0  0  0  0  0  0  0  0  0  0  0  0
   17.8188   19.9635   22.0469 H   0  0  0  0  0  0  0  0  0  0  0  0
   18.1101   19.5927   23.7322 H   0  0  0  0  0  0  0  0  0  0  0  0
   18.5948   17.9632   22.3661 C   0  0  0  0  0  0  0  0  0  0  0  0
   17.5877   17.5358   22.4674 H   0  0  0  0  0  0  0  0  0  0  0  0
   18.8569   17.8512   21.3054 H   0  0  0  0  0  0  0  0  0  0  0  0
   19.5815   17.1245   23.2176 C   0  0  0  0  0  0  0  0  0  0  0  0
   20.6119   17.4661   23.0514 H   0  0  0  0  0  0  0  0  0  0  0  0
   19.5497   16.0836   22.8665 H   0  0  0  0  0  0  0  0  0  0  0  0
   19.2608   17.1493   24.7293 C   0  0  0  0  0  0  0  0  0  0  0  0
   19.3866   18.1544   25.1507 H   0  0  0  0  0  0  0  0  0  0  0  0
   19.9325   16.4750   25.2761 H   0  0  0  0  0  0  0  0  0  0  0  0
   18.2300   16.8233   24.9191 H   0  0  0  0  0  0  0  0  0  0  0  0
  1  2  1  0  0  0  0
  1  3  1  0  0  0  0
  1  4  1  0  0  0  0
  1  5  1  0  0  0  0
  5  6  1  0  0  0  0
  5  7  1  0  0  0  0
  5  8  1  0  0  0  0
  8  9  1  0  0  0  0
  8 10  1  0  0  0  0
  8 11  1  0  0  0  0
 11 12  1  0  0  0  0
 11 13  1  0  0  0  0
 11 14  1  0  0  0  0
 14 15  1  0  0  0  0
 14 16  1  0  0  0  0
 14 17  1  0  0  0  0
 17 18  1  0  0  0  0
 17 19  1  0  0  0  0
 17 20  1  0  0  0  0
 20 21  1  0  0  0  0
 20 22  1  0  0  0  0
 20 23  1  0  0  0  0
M  END
> <VConfSearch Rank>
685

> <Conf_Id>
90

> <Delta U+W>
1.131

> <U+W>
-7.251

> <U>
48.641

> <W>
-55.892

> <W(PB)>
-57.962

> <W(SA)>
2.070

> <Valence>
2.922

> <Coulomb>
45.269

> <VdW>
0.450

> <VdW6>
-7.045

> <VdW12>
7.495

> <Bond>
0.220

> <Angle>
1.205

> <Pdih>
1.497

> <Idih>
0.000

> <Tether>
0.000

$$$$
VeraChem MOL file


 23 22  0  0  0  0  0  0  0  0999 V2000     
   19.4342   19.6402   25.1125 N   0  3  0  0  0  0  0  0  0  0  0  0
   19.5583   20.4884   25.6756 H   0  0  0  0  0  0  0  0  0  0  0  0
   20.3317   19.4461   24.6582 H   0  0  0  0  0  0  0  0  0  0  0  0
   19.2517   18.8716   25.7655 H   0  0  0  0  0  0  0  0  0  0  0  0
   18.3170   19.7953   24.0994 C   0  0  0  0  0  0  0  0  0  0  0  0
   18.5577   20.6463   23.4570 H   0  0  0  0  0  0  0  0  0  0  0  0
   17.4011   20.0328   24.6473 H   0  0  0  0  0  0  0  0  0  0  0  0
   18.0852   18.5389   23.2354 C   0  0  0  0  0  0  0  0  0  0  0  0
   17.7980   17.7026   23.8865 H   0  0  0  0  0  0  0  0  0  0  0  0
   17.2274   18.7198   22.5740 H   0  0  0  0  0  0  0  0  0  0  0  0
   19.3107   18.1266   22.3817 C   0  0  0  0  0  0  0  0  0  0  0  0
   19.0548   17.2194   21.8173 H   0  0  0  0  0  0  0  0  0  0  0  0
   20.1415   17.8510   23.0434 H   0  0  0  0  0  0  0  0  0  0  0  0
   19.7596   19.2310   21.3917 C   0  0  0  0  0  0  0  0  0  0  0  0
   18.8934   19.5528   20.7972 H   0  0  0  0  0  0  0  0  0  0  0  0
   20.1034   20.1168   21.9423 H   0  0  0  0  0  0  0  0  0  0  0  0
   20.8763   18.7705   20.4240 C   0  0  0  0  0  0  0  0  0  0  0  0
   21.0601   19.5692   19.6918 H   0  0  0  0  0  0  0  0  0  0  0  0
   20.5339   17.8992   19.8484 H   0  0  0  0  0  0  0  0  0  0  0  0
   22.2054   18.4331   21.1373 C   0  0  0  0  0  0  0  0  0  0  0  0
   22.5556   19.2800   21.7414 H   0  0  0  0  0  0  0  0  0  0  0  0
   22.9868   18.1997   20.4025 H   0  0  0  0  0  0  0  0  0  0  0  0
   22.1005   17.5610   21.7944 H   0  0  0  0  0  0  0  0  0  0  0  0
  1  2  1  0  0  0  0
  1  3  1  0  0  0  0
  1  4  1  0  0  0  0
  1  5  1  0  0  0  0
  5  6  1  0  0  0  0
  5  7  1  0  0  0  0
  5  8  1  0  0  0  0
  8  9  1  0  0  0  0
  8 10  1  0  0  0  0
  8 11  1  0  0  0  0
 11 12  1  0  0  0  0
 11 13  1  0  0  0  0
 11 14  1  0  0  0  0
 14 15  1  0  0  0  0
 14 16  1  0  0  0  0
 14 17  1  0  0  0  0
 17 18  1  0  0  0  0
 17 19  1  0  0  0  0
 17 20  1  0  0  0  0
 20 21  1  0  0  0  0
 20 22  1  0  0  0  0
 20 23  1  0  0  0  0
M  END
> <VConfSearch Rank>
686

> <Conf_Id>
85

> <Delta U+W>
1.193

> <U+W>
-7.189

> <U>
48.775

> <W>
-55.965

> <W(PB)>
-58.038

> <W(SA)>
2.073

> <Valence>
2.602

> <Coulomb>
45.581

> <VdW>
0.592

> <VdW6>
-6.616

> <VdW12>
7.208

> <Bond>
0.196

> <Angle>
0.832

> <Pdih>
1.574

> <Idih>
0.000

> <Tether>
0.000

$$$$
VeraChem MOL file


 23 22  0  0  0  0  0  0  0  0999 V2000     
   20.6880   20.6761   21.9945 N   0  3  0  0  0  0  0  0  0  0  0  0
   20.9284   19.6798   22.0107 H   0  0  0  0  0  0  0  0  0  0  0  0
   21.4782   21.1897   22.3997 H   0  0  0  0  0  0  0  0  0  0  0  0
   20.6208   20.9587   21.0114 H   0  0  0  0  0  0  0  0  0  0  0  0
   19.3978   20.9448   22.7448 C   0  0  0  0  0  0  0  0  0  0  0  0
   19.2097   22.0200   22.6815 H   0  0  0  0  0  0  0  0  0  0  0  0
   19.5444   20.6875   23.7971 H   0  0  0  0  0  0  0  0  0  0  0  0
   18.1771   20.1864   22.1850 C   0  0  0  0  0  0  0  0  0  0  0  0
   17.2748   20.7248   22.5040 H   0  0  0  0  0  0  0  0  0  0  0  0
   18.1812   20.2350   21.0879 H   0  0  0  0  0  0  0  0  0  0  0  0
   18.0404   18.7130   22.6543 C   0  0  0  0  0  0  0  0  0  0  0  0
   17.1076   18.3180   22.2285 H   0  0  0  0  0  0  0  0  0  0  0  0
   17.9032   18.6777   23.7440 H   0  0  0  0  0  0  0  0  0  0  0  0
   19.1973   17.7720   22.2309 C   0  0  0  0  0  0  0  0  0  0  0  0
   18.7772   16.7814   22.0074 H   0  0  0  0  0  0  0  0  0  0  0  0
   19.6456   18.1213   21.2913 H   0  0  0  0  0  0  0  0  0  0  0  0
   20.2724   17.5947   23.3308 C   0  0  0  0  0  0  0  0  0  0  0  0
   19.8240   17.0881   24.1970 H   0  0  0  0  0  0  0  0  0  0  0  0
   20.6256   18.5654   23.6985 H   0  0  0  0  0  0  0  0  0  0  0  0
   21.4740   16.7680   22.8263 C   0  0  0  0  0  0  0  0  0  0  0  0
   21.1557   15.7690   22.5008 H   0  0  0  0  0  0  0  0  0  0  0  0
   22.2182   16.6402   23.6231 H   0  0  0  0  0  0  0  0  0  0  0  0
   21.9691   17.2604   21.9793 H   0  0  0  0  0  0  0  0  0  0  0  0
  1  2  1  0  0  0  0
  1  3  1  0  0  0  0
  1  4  1  0  0  0  0
  1  5  1  0  0  0  0
  5  6  1  0  0  0  0
  5  7  1  0  0  0  0
  5  8  1  0  0  0  0
  8  9  1  0  0  0  0
  8 10  1  0  0  0  0
  8 11  1  0  0  0  0
 11 12  1  0  0  0  0
 11 13  1  0  0  0  0
 11 14  1  0  0  0  0
 14 15  1  0  0  0  0
 14 16  1  0  0  0  0
 14 17  1  0  0  0  0
 17 18  1  0  0  0  0
 17 19  1  0  0  0  0
 17 20  1  0  0  0  0
 20 21  1  0  0  0  0
 20 22  1  0  0  0  0
 20 23  1  0  0  0  0
M  END
> <VConfSearch Rank>
687

> <Conf_Id>
82

> <Delta U+W>
5.994

> <U+W>
-2.388

> <U>
52.836

> <W>
-55.224

> <W(PB)>
-57.261

> <W(SA)>
2.037

> <Valence>
5.785

> <Coulomb>
46.744

> <VdW>
0.307

> <VdW6>
-7.672

> <VdW12>
7.979

> <Bond>
0.217

> <Angle>
1.470

> <Pdih>
4.098

> <Idih>
0.000

> <Tether>
0.000

$$$$
VeraChem MOL file


 23 22  0  0  0  0  0  0  0  0999 V2000     
   19.8383   20.3317   24.1329 N   0  3  0  0  0  0  0  0  0  0  0  0
   20.6581   20.3542   24.7481 H   0  0  0  0  0  0  0  0  0  0  0  0
   19.3267   21.2078   24.2847 H   0  0  0  0  0  0  0  0  0  0  0  0
   20.1805   20.3392   23.1667 H   0  0  0  0  0  0  0  0  0  0  0  0
   18.9689   19.1185   24.4012 C   0  0  0  0  0  0  0  0  0  0  0  0
   18.0801   19.1773   23.7674 H   0  0  0  0  0  0  0  0  0  0  0  0
   18.6466   19.1809   25.4441 H   0  0  0  0  0  0  0  0  0  0  0  0
   19.6853   17.7714   24.1756 C   0  0  0  0  0  0  0  0  0  0  0  0
   20.6965   17.8130   24.6017 H   0  0  0  0  0  0  0  0  0  0  0  0
   19.1491   17.0074   24.7540 H   0  0  0  0  0  0  0  0  0  0  0  0
   19.7461   17.2925   22.7001 C   0  0  0  0  0  0  0  0  0  0  0  0
   18.7296   17.1245   22.3181 H   0  0  0  0  0  0  0  0  0  0  0  0
   20.2281   16.3049   22.6951 H   0  0  0  0  0  0  0  0  0  0  0  0
   20.5336   18.2155   21.7352 C   0  0  0  0  0  0  0  0  0  0  0  0
   21.3189   18.7541   22.2820 H   0  0  0  0  0  0  0  0  0  0  0  0
   21.0608   17.5872   21.0038 H   0  0  0  0  0  0  0  0  0  0  0  0
   19.6257   19.1954   20.9524 C   0  0  0  0  0  0  0  0  0  0  0  0
   18.9662   19.7505   21.6300 H   0  0  0  0  0  0  0  0  0  0  0  0
   18.9635   18.6228   20.2877 H   0  0  0  0  0  0  0  0  0  0  0  0
   20.4522   20.1900   20.1101 C   0  0  0  0  0  0  0  0  0  0  0  0
   21.1038   20.8044   20.7447 H   0  0  0  0  0  0  0  0  0  0  0  0
   19.7922   20.8661   19.5510 H   0  0  0  0  0  0  0  0  0  0  0  0
   21.0838   19.6613   19.3843 H   0  0  0  0  0  0  0  0  0  0  0  0
  1  2  1  0  0  0  0
  1  3  1  0  0  0  0
  1  4  1  0  0  0  0
  1  5  1  0  0  0  0
  5  6  1  0  0  0  0
  5  7  1  0  0  0  0
  5  8  1  0  0  0  0
  8  9  1  0  0  0  0
  8 10  1  0  0  0  0
  8 11  1  0  0  0  0
 11 12  1  0  0  0  0
 11 13  1  0  0  0  0
 11 14  1  0  0  0  0
 14 15  1  0  0  0  0
 14 16  1  0  0  0  0
 14 17  1  0  0  0  0
 17 18  1  0  0  0  0
 17 19  1  0  0  0  0
 17 20  1  0  0  0  0
 20 21  1  0  0  0  0
 20 22  1  0  0  0  0
 20 23  1  0  0  0  0
M  END
> <VConfSearch Rank>
688

> <Conf_Id>
5

> <Delta U+W>
6.087

> <U+W>
-2.295

> <U>
52.836

> <W>
-55.131

> <W(PB)>
-57.202

> <W(SA)>
2.071

> <Valence>
5.785

> <Coulomb>
46.744

> <VdW>
0.307

> <VdW6>
-7.672

> <VdW12>
7.980

> <Bond>
0.217

> <Angle>
1.470

> <Pdih>
4.098

> <Idih>
0.000

> <Tether>
0.000

$$$$
VeraChem MOL file


 23 22  0  0  0  0  0  0  0  0999 V2000     
   17.4366   17.3939   25.1906 N   0  3  0  0  0  0  0  0  0  0  0  0
   18.1085   17.3910   25.9648 H   0  0  0  0  0  0  0  0  0  0  0  0
   16.8475   16.5619   25.3043 H   0  0  0  0  0  0  0  0  0  0  0  0
   16.8289   18.2091   25.3217 H   0  0  0  0  0  0  0  0  0  0  0  0
   18.1274   17.4143   23.8422 C   0  0  0  0  0  0  0  0  0  0  0  0
   17.3563   17.3862   23.0675 H   0  0  0  0  0  0  0  0  0  0  0  0
   18.7316   16.5069   23.7588 H   0  0  0  0  0  0  0  0  0  0  0  0
   19.0201   18.6515   23.6399 C   0  0  0  0  0  0  0  0  0  0  0  0
   18.4123   19.5606   23.7406 H   0  0  0  0  0  0  0  0  0  0  0  0
   19.7827   18.6844   24.4295 H   0  0  0  0  0  0  0  0  0  0  0  0
   19.7051   18.6343   22.2554 C   0  0  0  0  0  0  0  0  0  0  0  0
   18.9391   18.5960   21.4683 H   0  0  0  0  0  0  0  0  0  0  0  0
   20.3080   17.7207   22.1566 H   0  0  0  0  0  0  0  0  0  0  0  0
   20.6046   19.8729   22.0414 C   0  0  0  0  0  0  0  0  0  0  0  0
   20.0019   20.7864   22.1401 H   0  0  0  0  0  0  0  0  0  0  0  0
   21.3707   19.9113   22.8283 H   0  0  0  0  0  0  0  0  0  0  0  0
   21.2896   19.8553   20.6568 C   0  0  0  0  0  0  0  0  0  0  0  0
   20.5273   19.8193   19.8659 H   0  0  0  0  0  0  0  0  0  0  0  0
   21.8959   18.9443   20.5541 H   0  0  0  0  0  0  0  0  0  0  0  0
   22.1869   21.0935   20.4467 C   0  0  0  0  0  0  0  0  0  0  0  0
   22.6643   21.0632   19.4587 H   0  0  0  0  0  0  0  0  0  0  0  0
   22.9811   21.1385   21.2033 H   0  0  0  0  0  0  0  0  0  0  0  0
   21.6018   22.0203   20.5098 H   0  0  0  0  0  0  0  0  0  0  0  0
  1  2  1  0  0  0  0
  1  3  1  0  0  0  0
  1  4  1  0  0  0  0
  1  5  1  0  0  0  0
  5  6  1  0  0  0  0
  5  7  1  0  0  0  0
  5  8  1  0  0  0  0
  8  9  1  0  0  0  0
  8 10  1  0  0  0  0
  8 11  1  0  0  0  0
 11 12  1  0  0  0  0
 11 13  1  0  0  0  0
 11 14  1  0  0  0  0
 14 15  1  0  0  0  0
 14 16  1  0  0  0  0
 14 17  1  0  0  0  0
 17 18  1  0  0  0  0
 17 19  1  0  0  0  0
 17 20  1  0  0  0  0
 20 21  1  0  0  0  0
 20 22  1  0  0  0  0
 20 23  1  0  0  0  0
M  END
> <VConfSearch Rank>
689

> <Conf_Id>
40

> <Delta U+W>
0.000

> <U+W>
-8.382

> <U>
46.604

> <W>
-54.986

> <W(PB)>
-57.162

> <W(SA)>
2.176

> <Valence>
1.727

> <Coulomb>
44.434

> <VdW>
0.443

> <VdW6>
-4.623

> <VdW12>
5.066

> <Bond>
0.112

> <Angle>
0.386

> <Pdih>
1.228

> <Idih>
0.000

> <Tether>
0.000

$$$$
VeraChem MOL file


 23 22  0  0  0  0  0  0  0  0999 V2000     
   20.9985   15.8594   23.7353 N   0  3  0  0  0  0  0  0  0  0  0  0
   20.2619   15.1487   23.6788 H   0  0  0  0  0  0  0  0  0  0  0  0
   21.1006   16.1097   24.7241 H   0  0  0  0  0  0  0  0  0  0  0  0
   21.8730   15.4051   23.4510 H   0  0  0  0  0  0  0  0  0  0  0  0
   20.6860   17.0672   22.8756 C   0  0  0  0  0  0  0  0  0  0  0  0
   20.6196   16.7337   21.8365 H   0  0  0  0  0  0  0  0  0  0  0  0
   21.5235   17.7643   22.9606 H   0  0  0  0  0  0  0  0  0  0  0  0
   19.3766   17.7719   23.2782 C   0  0  0  0  0  0  0  0  0  0  0  0
   18.5526   17.0472   23.2338 H   0  0  0  0  0  0  0  0  0  0  0  0
   19.4432   18.1081   24.3215 H   0  0  0  0  0  0  0  0  0  0  0  0
   19.0362   18.9736   22.3652 C   0  0  0  0  0  0  0  0  0  0  0  0
   18.0417   19.3455   22.6439 H   0  0  0  0  0  0  0  0  0  0  0  0
   18.9606   18.6324   21.3235 H   0  0  0  0  0  0  0  0  0  0  0  0
   20.0687   20.1253   22.4655 C   0  0  0  0  0  0  0  0  0  0  0  0
   20.1285   20.4800   23.5036 H   0  0  0  0  0  0  0  0  0  0  0  0
   21.0673   19.7467   22.2104 H   0  0  0  0  0  0  0  0  0  0  0  0
   19.7537   21.3180   21.5303 C   0  0  0  0  0  0  0  0  0  0  0  0
   19.7030   20.9708   20.4888 H   0  0  0  0  0  0  0  0  0  0  0  0
   20.5890   22.0308   21.5758 H   0  0  0  0  0  0  0  0  0  0  0  0
   18.4478   22.0602   21.8955 C   0  0  0  0  0  0  0  0  0  0  0  0
   17.5662   21.4253   21.7441 H   0  0  0  0  0  0  0  0  0  0  0  0
   18.3237   22.9508   21.2660 H   0  0  0  0  0  0  0  0  0  0  0  0
   18.4600   22.3890   22.9428 H   0  0  0  0  0  0  0  0  0  0  0  0
  1  2  1  0  0  0  0
  1  3  1  0  0  0  0
  1  4  1  0  0  0  0
  1  5  1  0  0  0  0
  5  6  1  0  0  0  0
  5  7  1  0  0  0  0
  5  8  1  0  0  0  0
  8  9  1  0  0  0  0
  8 10  1  0  0  0  0
  8 11  1  0  0  0  0
 11 12  1  0  0  0  0
 11 13  1  0  0  0  0
 11 14  1  0  0  0  0
 14 15  1  0  0  0  0
 14 16  1  0  0  0  0
 14 17  1  0  0  0  0
 17 18  1  0  0  0  0
 17 19  1  0  0  0  0
 17 20  1  0  0  0  0
 20 21  1  0  0  0  0
 20 22  1  0  0  0  0
 20 23  1  0  0  0  0
M  END
> <VConfSearch Rank>
690

> <Conf_Id>
65

> <Delta U+W>
1.004

> <U+W>
-7.378

> <U>
48.047

> <W>
-55.425

> <W(PB)>
-57.542

> <W(SA)>
2.116

> <Valence>
2.583

> <Coulomb>
44.791

> <VdW>
0.673

> <VdW6>
-5.788

> <VdW12>
6.462

> <Bond>
0.177

> <Angle>
0.787

> <Pdih>
1.619

> <Idih>
0.000

> <Tether>
0.000

$$$$
VeraChem MOL file


 23 22  0  0  0  0  0  0  0  0999 V2000     
   19.3449   21.5379   25.1142 N   0  3  0  0  0  0  0  0  0  0  0  0
   19.4499   22.4709   24.7028 H   0  0  0  0  0  0  0  0  0  0  0  0
   19.7919   21.5673   26.0369 H   0  0  0  0  0  0  0  0  0  0  0  0
   18.3432   21.3893   25.2730 H   0  0  0  0  0  0  0  0  0  0  0  0
   19.9435   20.4606   24.2327 C   0  0  0  0  0  0  0  0  0  0  0  0
   19.8235   19.5032   24.7460 H   0  0  0  0  0  0  0  0  0  0  0  0
   21.0128   20.6644   24.1297 H   0  0  0  0  0  0  0  0  0  0  0  0
   19.2926   20.3914   22.8382 C   0  0  0  0  0  0  0  0  0  0  0  0
   18.2188   20.1855   22.9411 H   0  0  0  0  0  0  0  0  0  0  0  0
   19.3792   21.3734   22.3544 H   0  0  0  0  0  0  0  0  0  0  0  0
   19.9416   19.3244   21.9250 C   0  0  0  0  0  0  0  0  0  0  0  0
   21.0137   19.5386   21.8160 H   0  0  0  0  0  0  0  0  0  0  0  0
   19.5022   19.4168   20.9233 H   0  0  0  0  0  0  0  0  0  0  0  0
   19.7469   17.8778   22.4466 C   0  0  0  0  0  0  0  0  0  0  0  0
   20.1647   17.7927   23.4584 H   0  0  0  0  0  0  0  0  0  0  0  0
   18.6743   17.6571   22.5355 H   0  0  0  0  0  0  0  0  0  0  0  0
   20.4217   16.8061   21.5562 C   0  0  0  0  0  0  0  0  0  0  0  0
   20.3375   15.8305   22.0552 H   0  0  0  0  0  0  0  0  0  0  0  0
   21.4972   17.0158   21.4722 H   0  0  0  0  0  0  0  0  0  0  0  0
   19.8010   16.6967   20.1448 C   0  0  0  0  0  0  0  0  0  0  0  0
   19.9708   17.6071   19.5570 H   0  0  0  0  0  0  0  0  0  0  0  0
   18.7191   16.5198   20.2016 H   0  0  0  0  0  0  0  0  0  0  0  0
   20.2489   15.8604   19.5925 H   0  0  0  0  0  0  0  0  0  0  0  0
  1  2  1  0  0  0  0
  1  3  1  0  0  0  0
  1  4  1  0  0  0  0
  1  5  1  0  0  0  0
  5  6  1  0  0  0  0
  5  7  1  0  0  0  0
  5  8  1  0  0  0  0
  8  9  1  0  0  0  0
  8 10  1  0  0  0  0
  8 11  1  0  0  0  0
 11 12  1  0  0  0  0
 11 13  1  0  0  0  0
 11 14  1  0  0  0  0
 14 15  1  0  0  0  0
 14 16  1  0  0  0  0
 14 17  1  0  0  0  0
 17 18  1  0  0  0  0
 17 19  1  0  0  0  0
 17 20  1  0  0  0  0
 20 21  1  0  0  0  0
 20 22  1  0  0  0  0
 20 23  1  0  0  0  0
M  END
> <VConfSearch Rank>
691

> <Conf_Id>
92

> <Delta U+W>
0.973

> <U+W>
-7.409

> <U>
48.047

> <W>
-55.456

> <W(PB)>
-57.595

> <W(SA)>
2.138

> <Valence>
2.583

> <Coulomb>
44.791

> <VdW>
0.674

> <VdW6>
-5.789

> <VdW12>
6.462

> <Bond>
0.177

> <Angle>
0.787

> <Pdih>
1.619

> <Idih>
0.000

> <Tether>
0.000

$$$$
VeraChem MOL file


 23 22  0  0  0  0  0  0  0  0999 V2000     
   21.7534   19.7168   19.7902 N   0  3  0  0  0  0  0  0  0  0  0  0
   21.5321   19.3378   18.8631 H   0  0  0  0  0  0  0  0  0  0  0  0
   22.7662   19.6218   19.9165 H   0  0  0  0  0  0  0  0  0  0  0  0
   21.5463   20.7203   19.7590 H   0  0  0  0  0  0  0  0  0  0  0  0
   20.9785   19.0133   20.8858 C   0  0  0  0  0  0  0  0  0  0  0  0
   21.2242   17.9487   20.8429 H   0  0  0  0  0  0  0  0  0  0  0  0
   19.9132   19.1296   20.6705 H   0  0  0  0  0  0  0  0  0  0  0  0
   21.2895   19.5605   22.2917 C   0  0  0  0  0  0  0  0  0  0  0  0
   22.3687   19.4786   22.4777 H   0  0  0  0  0  0  0  0  0  0  0  0
   21.0435   20.6299   22.3345 H   0  0  0  0  0  0  0  0  0  0  0  0
   20.5292   18.8069   23.4085 C   0  0  0  0  0  0  0  0  0  0  0  0
   20.8683   19.1858   24.3827 H   0  0  0  0  0  0  0  0  0  0  0  0
   20.7971   17.7416   23.3795 H   0  0  0  0  0  0  0  0  0  0  0  0
   18.9925   18.9620   23.3093 C   0  0  0  0  0  0  0  0  0  0  0  0
   18.7306   20.0292   23.3053 H   0  0  0  0  0  0  0  0  0  0  0  0
   18.6331   18.5425   22.3601 H   0  0  0  0  0  0  0  0  0  0  0  0
   18.2683   18.2598   24.4794 C   0  0  0  0  0  0  0  0  0  0  0  0
   18.6143   18.6779   25.4351 H   0  0  0  0  0  0  0  0  0  0  0  0
   18.5274   17.1917   24.4885 H   0  0  0  0  0  0  0  0  0  0  0  0
   16.7358   18.4139   24.3787 C   0  0  0  0  0  0  0  0  0  0  0  0
   16.4431   19.4718   24.4010 H   0  0  0  0  0  0  0  0  0  0  0  0
   16.2395   17.9094   25.2179 H   0  0  0  0  0  0  0  0  0  0  0  0
   16.3548   17.9733   23.4481 H   0  0  0  0  0  0  0  0  0  0  0  0
  1  2  1  0  0  0  0
  1  3  1  0  0  0  0
  1  4  1  0  0  0  0
  1  5  1  0  0  0  0
  5  6  1  0  0  0  0
  5  7  1  0  0  0  0
  5  8  1  0  0  0  0
  8  9  1  0  0  0  0
  8 10  1  0  0  0  0
  8 11  1  0  0  0  0
 11 12  1  0  0  0  0
 11 13  1  0  0  0  0
 11 14  1  0  0  0  0
 14 15  1  0  0  0  0
 14 16  1  0  0  0  0
 14 17  1  0  0  0  0
 17 18  1  0  0  0  0
 17 19  1  0  0  0  0
 17 20  1  0  0  0  0
 20 21  1  0  0  0  0
 20 22  1  0  0  0  0
 20 23  1  0  0  0  0
M  END
> <VConfSearch Rank>
692

> <Conf_Id>
42

> <Delta U+W>
0.365

> <U+W>
-8.017

> <U>
47.375

> <W>
-55.392

> <W(PB)>
-57.543

> <W(SA)>
2.152

> <Valence>
2.032

> <Coulomb>
44.843

> <VdW>
0.499

> <VdW6>
-5.218

> <VdW12>
5.717

> <Bond>
0.135

> <Angle>
0.514

> <Pdih>
1.383

> <Idih>
0.000

> <Tether>
0.000

$$$$
VeraChem MOL file


 23 22  0  0  0  0  0  0  0  0999 V2000     
   22.1585   20.8261   23.5848 N   0  3  0  0  0  0  0  0  0  0  0  0
   22.8505   20.3171   23.0256 H   0  0  0  0  0  0  0  0  0  0  0  0
   22.6792   21.3750   24.2773 H   0  0  0  0  0  0  0  0  0  0  0  0
   21.6964   21.4938   22.9603 H   0  0  0  0  0  0  0  0  0  0  0  0
   21.1648   19.8881   24.2424 C   0  0  0  0  0  0  0  0  0  0  0  0
   20.4734   20.4890   24.8394 H   0  0  0  0  0  0  0  0  0  0  0  0
   21.7239   19.2381   24.9210 H   0  0  0  0  0  0  0  0  0  0  0  0
   20.3713   19.0213   23.2453 C   0  0  0  0  0  0  0  0  0  0  0  0
   21.0687   18.4395   22.6282 H   0  0  0  0  0  0  0  0  0  0  0  0
   19.7790   18.3021   23.8241 H   0  0  0  0  0  0  0  0  0  0  0  0
   19.4294   19.8562   22.3439 C   0  0  0  0  0  0  0  0  0  0  0  0
   20.0068   20.6445   21.8432 H   0  0  0  0  0  0  0  0  0  0  0  0
   18.6885   20.3717   22.9706 H   0  0  0  0  0  0  0  0  0  0  0  0
   18.6968   19.0354   21.2509 C   0  0  0  0  0  0  0  0  0  0  0  0
   18.0996   19.7391   20.6546 H   0  0  0  0  0  0  0  0  0  0  0  0
   19.4256   18.6017   20.5524 H   0  0  0  0  0  0  0  0  0  0  0  0
   17.7476   17.9333   21.7885 C   0  0  0  0  0  0  0  0  0  0  0  0
   16.8715   17.8731   21.1277 H   0  0  0  0  0  0  0  0  0  0  0  0
   17.3600   18.2118   22.7783 H   0  0  0  0  0  0  0  0  0  0  0  0
   18.4012   16.5325   21.8409 C   0  0  0  0  0  0  0  0  0  0  0  0
   18.7238   16.2135   20.8413 H   0  0  0  0  0  0  0  0  0  0  0  0
   17.6847   15.7883   22.2121 H   0  0  0  0  0  0  0  0  0  0  0  0
   19.2757   16.5089   22.5002 H   0  0  0  0  0  0  0  0  0  0  0  0
  1  2  1  0  0  0  0
  1  3  1  0  0  0  0
  1  4  1  0  0  0  0
  1  5  1  0  0  0  0
  5  6  1  0  0  0  0
  5  7  1  0  0  0  0
  5  8  1  0  0  0  0
  8  9  1  0  0  0  0
  8 10  1  0  0  0  0
  8 11  1  0  0  0  0
 11 12  1  0  0  0  0
 11 13  1  0  0  0  0
 11 14  1  0  0  0  0
 14 15  1  0  0  0  0
 14 16  1  0  0  0  0
 14 17  1  0  0  0  0
 17 18  1  0  0  0  0
 17 19  1  0  0  0  0
 17 20  1  0  0  0  0
 20 21  1  0  0  0  0
 20 22  1  0  0  0  0
 20 23  1  0  0  0  0
M  END
> <VConfSearch Rank>
693

> <Conf_Id>
3

> <Delta U+W>
3.283

> <U+W>
-5.099

> <U>
50.701

> <W>
-55.800

> <W(PB)>
-57.867

> <W(SA)>
2.067

> <Valence>
4.880

> <Coulomb>
45.095

> <VdW>
0.726

> <VdW6>
-6.620

> <VdW12>
7.346

> <Bond>
0.222

> <Angle>
1.260

> <Pdih>
3.398

> <Idih>
0.000

> <Tether>
0.000

$$$$
VeraChem MOL file


 23 22  0  0  0  0  0  0  0  0999 V2000     
   22.0175   19.3099   20.7204 N   0  3  0  0  0  0  0  0  0  0  0  0
   21.9350   18.6986   19.9019 H   0  0  0  0  0  0  0  0  0  0  0  0
   22.8709   19.8647   20.5949 H   0  0  0  0  0  0  0  0  0  0  0  0
   21.2278   19.9621   20.6928 H   0  0  0  0  0  0  0  0  0  0  0  0
   22.0447   18.5190   22.0134 C   0  0  0  0  0  0  0  0  0  0  0  0
   22.1645   19.2240   22.8399 H   0  0  0  0  0  0  0  0  0  0  0  0
   22.9265   17.8730   21.9896 H   0  0  0  0  0  0  0  0  0  0  0  0
   20.7858   17.6568   22.2396 C   0  0  0  0  0  0  0  0  0  0  0  0
   20.7068   16.9196   21.4296 H   0  0  0  0  0  0  0  0  0  0  0  0
   20.9152   17.0805   23.1654 H   0  0  0  0  0  0  0  0  0  0  0  0
   19.4676   18.4673   22.3230 C   0  0  0  0  0  0  0  0  0  0  0  0
   18.6391   17.7572   22.4424 H   0  0  0  0  0  0  0  0  0  0  0  0
   19.2884   18.9889   21.3735 H   0  0  0  0  0  0  0  0  0  0  0  0
   19.4500   19.4849   23.4921 C   0  0  0  0  0  0  0  0  0  0  0  0
   19.6018   18.9578   24.4441 H   0  0  0  0  0  0  0  0  0  0  0  0
   20.2927   20.1808   23.3868 H   0  0  0  0  0  0  0  0  0  0  0  0
   18.1466   20.3169   23.5651 C   0  0  0  0  0  0  0  0  0  0  0  0
   17.9952   20.8552   22.6191 H   0  0  0  0  0  0  0  0  0  0  0  0
   18.2638   21.0866   24.3408 H   0  0  0  0  0  0  0  0  0  0  0  0
   16.8931   19.4726   23.8897 C   0  0  0  0  0  0  0  0  0  0  0  0
   17.0324   18.8983   24.8148 H   0  0  0  0  0  0  0  0  0  0  0  0
   16.6582   18.7703   23.0805 H   0  0  0  0  0  0  0  0  0  0  0  0
   16.0183   20.1214   24.0264 H   0  0  0  0  0  0  0  0  0  0  0  0
  1  2  1  0  0  0  0
  1  3  1  0  0  0  0
  1  4  1  0  0  0  0
  1  5  1  0  0  0  0
  5  6  1  0  0  0  0
  5  7  1  0  0  0  0
  5  8  1  0  0  0  0
  8  9  1  0  0  0  0
  8 10  1  0  0  0  0
  8 11  1  0  0  0  0
 11 12  1  0  0  0  0
 11 13  1  0  0  0  0
 11 14  1  0  0  0  0
 14 15  1  0  0  0  0
 14 16  1  0  0  0  0
 14 17  1  0  0  0  0
 17 18  1  0  0  0  0
 17 19  1  0  0  0  0
 17 20  1  0  0  0  0
 20 21  1  0  0  0  0
 20 22  1  0  0  0  0
 20 23  1  0  0  0  0
M  END
> <VConfSearch Rank>
694

> <Conf_Id>
83

> <Delta U+W>
1.229

> <U+W>
-7.154

> <U>
48.727

> <W>
-55.880

> <W(PB)>
-57.960

> <W(SA)>
2.080

> <Valence>
2.671

> <Coulomb>
45.371

> <VdW>
0.684

> <VdW6>
-6.511

> <VdW12>
7.195

> <Bond>
0.203

> <Angle>
0.915

> <Pdih>
1.554

> <Idih>
0.000

> <Tether>
0.000

$$$$
VeraChem MOL file


 23 22  0  0  0  0  0  0  0  0999 V2000     
   22.2654   19.5525   21.2836 N   0  3  0  0  0  0  0  0  0  0  0  0
   22.3195   19.1925   20.3255 H   0  0  0  0  0  0  0  0  0  0  0  0
   22.1413   18.7465   21.9039 H   0  0  0  0  0  0  0  0  0  0  0  0
   23.1800   19.9621   21.5015 H   0  0  0  0  0  0  0  0  0  0  0  0
   21.1441   20.5600   21.4442 C   0  0  0  0  0  0  0  0  0  0  0  0
   21.3579   21.4039   20.7827 H   0  0  0  0  0  0  0  0  0  0  0  0
   21.1612   20.9252   22.4742 H   0  0  0  0  0  0  0  0  0  0  0  0
   19.7484   19.9925   21.1135 C   0  0  0  0  0  0  0  0  0  0  0  0
   19.0095   20.7999   21.2030 H   0  0  0  0  0  0  0  0  0  0  0  0
   19.7305   19.6774   20.0617 H   0  0  0  0  0  0  0  0  0  0  0  0
   19.3171   18.8043   22.0102 C   0  0  0  0  0  0  0  0  0  0  0  0
   20.0071   17.9614   21.8716 H   0  0  0  0  0  0  0  0  0  0  0  0
   18.3357   18.4558   21.6634 H   0  0  0  0  0  0  0  0  0  0  0  0
   19.2344   19.1731   23.5134 C   0  0  0  0  0  0  0  0  0  0  0  0
   20.2093   19.5448   23.8552 H   0  0  0  0  0  0  0  0  0  0  0  0
   18.5227   19.9983   23.6535 H   0  0  0  0  0  0  0  0  0  0  0  0
   18.8301   17.9837   24.4180 C   0  0  0  0  0  0  0  0  0  0  0  0
   18.9092   18.2980   25.4682 H   0  0  0  0  0  0  0  0  0  0  0  0
   19.5450   17.1589   24.2901 H   0  0  0  0  0  0  0  0  0  0  0  0
   17.3943   17.4726   24.1601 C   0  0  0  0  0  0  0  0  0  0  0  0
   16.6632   18.2865   24.2495 H   0  0  0  0  0  0  0  0  0  0  0  0
   17.1255   16.6987   24.8907 H   0  0  0  0  0  0  0  0  0  0  0  0
   17.2963   17.0298   23.1613 H   0  0  0  0  0  0  0  0  0  0  0  0
  1  2  1  0  0  0  0
  1  3  1  0  0  0  0
  1  4  1  0  0  0  0
  1  5  1  0  0  0  0
  5  6  1  0  0  0  0
  5  7  1  0  0  0  0
  5  8  1  0  0  0  0
  8  9  1  0  0  0  0
  8 10  1  0  0  0  0
  8 11  1  0  0  0  0
 11 12  1  0  0  0  0
 11 13  1  0  0  0  0
 11 14  1  0  0  0  0
 14 15  1  0  0  0  0
 14 16  1  0  0  0  0
 14 17  1  0  0  0  0
 17 18  1  0  0  0  0
 17 19  1  0  0  0  0
 17 20  1  0  0  0  0
 20 21  1  0  0  0  0
 20 22  1  0  0  0  0
 20 23  1  0  0  0  0
M  END
> <VConfSearch Rank>
695

> <Conf_Id>
50

> <Delta U+W>
1.252

> <U+W>
-7.130

> <U>
48.727

> <W>
-55.857

> <W(PB)>
-57.937

> <W(SA)>
2.080

> <Valence>
2.671

> <Coulomb>
45.371

> <VdW>
0.684

> <VdW6>
-6.511

> <VdW12>
7.196

> <Bond>
0.203

> <Angle>
0.915

> <Pdih>
1.554

> <Idih>
0.000

> <Tether>
0.000

$$$$
VeraChem MOL file


 23 22  0  0  0  0  0  0  0  0999 V2000     
   18.3090   16.2506   22.9093 N   0  3  0  0  0  0  0  0  0  0  0  0
   19.2901   15.9981   23.0615 H   0  0  0  0  0  0  0  0  0  0  0  0
   17.8685   15.4617   22.4239 H   0  0  0  0  0  0  0  0  0  0  0  0
   17.8667   16.3185   23.8315 H   0  0  0  0  0  0  0  0  0  0  0  0
   18.1752   17.5404   22.1234 C   0  0  0  0  0  0  0  0  0  0  0  0
   17.1087   17.7228   21.9652 H   0  0  0  0  0  0  0  0  0  0  0  0
   18.6438   17.3929   21.1467 H   0  0  0  0  0  0  0  0  0  0  0  0
   18.8040   18.7623   22.8207 C   0  0  0  0  0  0  0  0  0  0  0  0
   18.5608   19.6548   22.2334 H   0  0  0  0  0  0  0  0  0  0  0  0
   18.3338   18.9031   23.8030 H   0  0  0  0  0  0  0  0  0  0  0  0
   20.3396   18.6307   22.9862 C   0  0  0  0  0  0  0  0  0  0  0  0
   20.8095   18.3949   22.0213 H   0  0  0  0  0  0  0  0  0  0  0  0
   20.5475   17.7757   23.6433 H   0  0  0  0  0  0  0  0  0  0  0  0
   21.0017   19.8890   23.6062 C   0  0  0  0  0  0  0  0  0  0  0  0
   20.2940   20.4050   24.2697 H   0  0  0  0  0  0  0  0  0  0  0  0
   21.8259   19.5584   24.2534 H   0  0  0  0  0  0  0  0  0  0  0  0
   21.5905   20.8861   22.5756 C   0  0  0  0  0  0  0  0  0  0  0  0
   22.3706   20.3867   21.9842 H   0  0  0  0  0  0  0  0  0  0  0  0
   22.0951   21.6950   23.1223 H   0  0  0  0  0  0  0  0  0  0  0  0
   20.5462   21.5089   21.6234 C   0  0  0  0  0  0  0  0  0  0  0  0
   19.7211   21.9663   22.1847 H   0  0  0  0  0  0  0  0  0  0  0  0
   20.1313   20.7576   20.9403 H   0  0  0  0  0  0  0  0  0  0  0  0
   21.0076   22.2918   21.0077 H   0  0  0  0  0  0  0  0  0  0  0  0
  1  2  1  0  0  0  0
  1  3  1  0  0  0  0
  1  4  1  0  0  0  0
  1  5  1  0  0  0  0
  5  6  1  0  0  0  0
  5  7  1  0  0  0  0
  5  8  1  0  0  0  0
  8  9  1  0  0  0  0
  8 10  1  0  0  0  0
  8 11  1  0  0  0  0
 11 12  1  0  0  0  0
 11 13  1  0  0  0  0
 11 14  1  0  0  0  0
 14 15  1  0  0  0  0
 14 16  1  0  0  0  0
 14 17  1  0  0  0  0
 17 18  1  0  0  0  0
 17 19  1  0  0  0  0
 17 20  1  0  0  0  0
 20 21  1  0  0  0  0
 20 22  1  0  0  0  0
 20 23  1  0  0  0  0
M  END
> <VConfSearch Rank>
696

> <Conf_Id>
55

> <Delta U+W>
3.232

> <U+W>
-5.150

> <U>
50.625

> <W>
-55.776

> <W(PB)>
-57.839

> <W(SA)>
2.064

> <Valence>
4.837

> <Coulomb>
45.097

> <VdW>
0.692

> <VdW6>
-6.655

> <VdW12>
7.347

> <Bond>
0.223

> <Angle>
1.167

> <Pdih>
3.447

> <Idih>
0.000

> <Tether>
0.000

$$$$
VeraChem MOL file


 23 22  0  0  0  0  0  0  0  0999 V2000     
   22.9233   19.3575   22.0989 N   0  3  0  0  0  0  0  0  0  0  0  0
   23.4746   20.0907   22.5564 H   0  0  0  0  0  0  0  0  0  0  0  0
   23.3168   19.2313   21.1601 H   0  0  0  0  0  0  0  0  0  0  0  0
   23.0939   18.4872   22.6130 H   0  0  0  0  0  0  0  0  0  0  0  0
   21.4496   19.7061   22.0498 C   0  0  0  0  0  0  0  0  0  0  0  0
   20.9345   18.9026   21.5203 H   0  0  0  0  0  0  0  0  0  0  0  0
   21.3408   20.6237   21.4654 H   0  0  0  0  0  0  0  0  0  0  0  0
   20.8317   19.9087   23.4473 C   0  0  0  0  0  0  0  0  0  0  0  0
   20.9748   19.0104   24.0624 H   0  0  0  0  0  0  0  0  0  0  0  0
   21.3804   20.7177   23.9479 H   0  0  0  0  0  0  0  0  0  0  0  0
   19.3300   20.2882   23.3992 C   0  0  0  0  0  0  0  0  0  0  0  0
   19.1376   20.9558   22.5477 H   0  0  0  0  0  0  0  0  0  0  0  0
   19.0979   20.8778   24.2969 H   0  0  0  0  0  0  0  0  0  0  0  0
   18.3518   19.0851   23.3650 C   0  0  0  0  0  0  0  0  0  0  0  0
   18.4819   18.4818   24.2741 H   0  0  0  0  0  0  0  0  0  0  0  0
   17.3263   19.4777   23.4048 H   0  0  0  0  0  0  0  0  0  0  0  0
   18.4918   18.1761   22.1222 C   0  0  0  0  0  0  0  0  0  0  0  0
   19.4559   17.6519   22.1490 H   0  0  0  0  0  0  0  0  0  0  0  0
   18.4776   18.7869   21.2087 H   0  0  0  0  0  0  0  0  0  0  0  0
   17.3617   17.1269   22.0541 C   0  0  0  0  0  0  0  0  0  0  0  0
   16.3778   17.6092   21.9861 H   0  0  0  0  0  0  0  0  0  0  0  0
   17.3665   16.4837   22.9438 H   0  0  0  0  0  0  0  0  0  0  0  0
   17.4825   16.4838   21.1727 H   0  0  0  0  0  0  0  0  0  0  0  0
  1  2  1  0  0  0  0
  1  3  1  0  0  0  0
  1  4  1  0  0  0  0
  1  5  1  0  0  0  0
  5  6  1  0  0  0  0
  5  7  1  0  0  0  0
  5  8  1  0  0  0  0
  8  9  1  0  0  0  0
  8 10  1  0  0  0  0
  8 11  1  0  0  0  0
 11 12  1  0  0  0  0
 11 13  1  0  0  0  0
 11 14  1  0  0  0  0
 14 15  1  0  0  0  0
 14 16  1  0  0  0  0
 14 17  1  0  0  0  0
 17 18  1  0  0  0  0
 17 19  1  0  0  0  0
 17 20  1  0  0  0  0
 20 21  1  0  0  0  0
 20 22  1  0  0  0  0
 20 23  1  0  0  0  0
M  END
> <VConfSearch Rank>
697

> <Conf_Id>
93

> <Delta U+W>
2.589

> <U+W>
-5.793

> <U>
50.122

> <W>
-55.915

> <W(PB)>
-58.031

> <W(SA)>
2.115

> <Valence>
4.132

> <Coulomb>
45.536

> <VdW>
0.454

> <VdW6>
-6.262

> <VdW12>
6.715

> <Bond>
0.182

> <Angle>
1.157

> <Pdih>
2.794

> <Idih>
0.000

> <Tether>
0.000

$$$$
VeraChem MOL file


 23 22  0  0  0  0  0  0  0  0999 V2000     
   21.6402   21.4347   22.6765 N   0  3  0  0  0  0  0  0  0  0  0  0
   21.4228   21.6267   21.6933 H   0  0  0  0  0  0  0  0  0  0  0  0
   22.6556   21.3029   22.7373 H   0  0  0  0  0  0  0  0  0  0  0  0
   21.4183   22.2841   23.2056 H   0  0  0  0  0  0  0  0  0  0  0  0
   20.8837   20.2301   23.1984 C   0  0  0  0  0  0  0  0  0  0  0  0
   21.1848   20.0684   24.2369 H   0  0  0  0  0  0  0  0  0  0  0  0
   21.1956   19.3621   22.6148 H   0  0  0  0  0  0  0  0  0  0  0  0
   19.3536   20.4021   23.1263 C   0  0  0  0  0  0  0  0  0  0  0  0
   19.0824   21.2864   23.7182 H   0  0  0  0  0  0  0  0  0  0  0  0
   19.0407   20.6117   22.0947 H   0  0  0  0  0  0  0  0  0  0  0  0
   18.5775   19.1808   23.6810 C   0  0  0  0  0  0  0  0  0  0  0  0
   17.6077   19.5349   24.0574 H   0  0  0  0  0  0  0  0  0  0  0  0
   19.1013   18.7667   24.5537 H   0  0  0  0  0  0  0  0  0  0  0  0
   18.2957   18.0598   22.6468 C   0  0  0  0  0  0  0  0  0  0  0  0
   17.6837   17.2896   23.1364 H   0  0  0  0  0  0  0  0  0  0  0  0
   17.6816   18.4620   21.8293 H   0  0  0  0  0  0  0  0  0  0  0  0
   19.5607   17.3940   22.0579 C   0  0  0  0  0  0  0  0  0  0  0  0
   20.2361   17.0904   22.8699 H   0  0  0  0  0  0  0  0  0  0  0  0
   20.1052   18.1133   21.4326 H   0  0  0  0  0  0  0  0  0  0  0  0
   19.2075   16.1616   21.1982 C   0  0  0  0  0  0  0  0  0  0  0  0
   20.1152   15.7081   20.7794 H   0  0  0  0  0  0  0  0  0  0  0  0
   18.5525   16.4386   20.3618 H   0  0  0  0  0  0  0  0  0  0  0  0
   18.6944   15.3966   21.7955 H   0  0  0  0  0  0  0  0  0  0  0  0
  1  2  1  0  0  0  0
  1  3  1  0  0  0  0
  1  4  1  0  0  0  0
  1  5  1  0  0  0  0
  5  6  1  0  0  0  0
  5  7  1  0  0  0  0
  5  8  1  0  0  0  0
  8  9  1  0  0  0  0
  8 10  1  0  0  0  0
  8 11  1  0  0  0  0
 11 12  1  0  0  0  0
 11 13  1  0  0  0  0
 11 14  1  0  0  0  0
 14 15  1  0  0  0  0
 14 16  1  0  0  0  0
 14 17  1  0  0  0  0
 17 18  1  0  0  0  0
 17 19  1  0  0  0  0
 17 20  1  0  0  0  0
 20 21  1  0  0  0  0
 20 22  1  0  0  0  0
 20 23  1  0  0  0  0
M  END
> <VConfSearch Rank>
698

> <Conf_Id>
70

> <Delta U+W>
2.599

> <U+W>
-5.783

> <U>
50.122

> <W>
-55.906

> <W(PB)>
-58.010

> <W(SA)>
2.105

> <Valence>
4.132

> <Coulomb>
45.536

> <VdW>
0.454

> <VdW6>
-6.262

> <VdW12>
6.715

> <Bond>
0.182

> <Angle>
1.157

> <Pdih>
2.794

> <Idih>
0.000

> <Tether>
0.000

$$$$
VeraChem MOL file


 23 22  0  0  0  0  0  0  0  0999 V2000     
   22.2415   17.7814   21.7300 N   0  3  0  0  0  0  0  0  0  0  0  0
   23.1682   18.2079   21.8291 H   0  0  0  0  0  0  0  0  0  0  0  0
   22.3475   16.9781   21.1012 H   0  0  0  0  0  0  0  0  0  0  0  0
   21.9781   17.4124   22.6486 H   0  0  0  0  0  0  0  0  0  0  0  0
   21.2185   18.7726   21.2110 C   0  0  0  0  0  0  0  0  0  0  0  0
   20.2658   18.2489   21.0966 H   0  0  0  0  0  0  0  0  0  0  0  0
   21.5461   19.1019   20.2212 H   0  0  0  0  0  0  0  0  0  0  0  0
   21.0304   20.0013   22.1235 C   0  0  0  0  0  0  0  0  0  0  0  0
   21.9847   20.5386   22.2033 H   0  0  0  0  0  0  0  0  0  0  0  0
   20.3347   20.6986   21.6396 H   0  0  0  0  0  0  0  0  0  0  0  0
   20.5189   19.6568   23.5471 C   0  0  0  0  0  0  0  0  0  0  0  0
   20.3772   20.5909   24.1080 H   0  0  0  0  0  0  0  0  0  0  0  0
   21.2979   19.1022   24.0873 H   0  0  0  0  0  0  0  0  0  0  0  0
   19.2025   18.8380   23.5877 C   0  0  0  0  0  0  0  0  0  0  0  0
   19.3526   17.8592   23.1131 H   0  0  0  0  0  0  0  0  0  0  0  0
   18.9565   18.6301   24.6382 H   0  0  0  0  0  0  0  0  0  0  0  0
   18.0053   19.5597   22.9253 C   0  0  0  0  0  0  0  0  0  0  0  0
   18.2008   19.7145   21.8559 H   0  0  0  0  0  0  0  0  0  0  0  0
   17.8779   20.5549   23.3736 H   0  0  0  0  0  0  0  0  0  0  0  0
   16.6974   18.7555   23.0839 C   0  0  0  0  0  0  0  0  0  0  0  0
   15.8596   19.2800   22.6065 H   0  0  0  0  0  0  0  0  0  0  0  0
   16.4463   18.6142   24.1432 H   0  0  0  0  0  0  0  0  0  0  0  0
   16.7843   17.7652   22.6181 H   0  0  0  0  0  0  0  0  0  0  0  0
  1  2  1  0  0  0  0
  1  3  1  0  0  0  0
  1  4  1  0  0  0  0
  1  5  1  0  0  0  0
  5  6  1  0  0  0  0
  5  7  1  0  0  0  0
  5  8  1  0  0  0  0
  8  9  1  0  0  0  0
  8 10  1  0  0  0  0
  8 11  1  0  0  0  0
 11 12  1  0  0  0  0
 11 13  1  0  0  0  0
 11 14  1  0  0  0  0
 14 15  1  0  0  0  0
 14 16  1  0  0  0  0
 14 17  1  0  0  0  0
 17 18  1  0  0  0  0
 17 19  1  0  0  0  0
 17 20  1  0  0  0  0
 20 21  1  0  0  0  0
 20 22  1  0  0  0  0
 20 23  1  0  0  0  0
M  END
> <VConfSearch Rank>
699

> <Conf_Id>
72

> <Delta U+W>
1.051

> <U+W>
-7.331

> <U>
48.590

> <W>
-55.922

> <W(PB)>
-58.012

> <W(SA)>
2.090

> <Valence>
2.601

> <Coulomb>
45.520

> <VdW>
0.469

> <VdW6>
-6.867

> <VdW12>
7.336

> <Bond>
0.205

> <Angle>
0.962

> <Pdih>
1.434

> <Idih>
0.000

> <Tether>
0.000

$$$$
VeraChem MOL file


 23 22  0  0  0  0  0  0  0  0999 V2000     
   17.9789   21.2184   21.3467 N   0  3  0  0  0  0  0  0  0  0  0  0
   17.4843   21.2412   20.4484 H   0  0  0  0  0  0  0  0  0  0  0  0
   18.2908   22.1757   21.5391 H   0  0  0  0  0  0  0  0  0  0  0  0
   17.2860   20.9773   22.0625 H   0  0  0  0  0  0  0  0  0  0  0  0
   19.1361   20.2405   21.3273 C   0  0  0  0  0  0  0  0  0  0  0  0
   19.8178   20.5393   20.5265 H   0  0  0  0  0  0  0  0  0  0  0  0
   18.7363   19.2517   21.0880 H   0  0  0  0  0  0  0  0  0  0  0  0
   19.9003   20.1823   22.6631 C   0  0  0  0  0  0  0  0  0  0  0  0
   20.2652   21.1876   22.9123 H   0  0  0  0  0  0  0  0  0  0  0  0
   19.2140   19.8951   23.4700 H   0  0  0  0  0  0  0  0  0  0  0  0
   21.1048   19.2095   22.6207 C   0  0  0  0  0  0  0  0  0  0  0  0
   21.6180   19.2310   23.5914 H   0  0  0  0  0  0  0  0  0  0  0  0
   21.8366   19.5828   21.8910 H   0  0  0  0  0  0  0  0  0  0  0  0
   20.7459   17.7436   22.2559 C   0  0  0  0  0  0  0  0  0  0  0  0
   20.3853   17.7035   21.2193 H   0  0  0  0  0  0  0  0  0  0  0  0
   21.6660   17.1434   22.2712 H   0  0  0  0  0  0  0  0  0  0  0  0
   19.6963   17.0727   23.1781 C   0  0  0  0  0  0  0  0  0  0  0  0
   19.5153   16.0507   22.8169 H   0  0  0  0  0  0  0  0  0  0  0  0
   18.7329   17.5940   23.0994 H   0  0  0  0  0  0  0  0  0  0  0  0
   20.1345   17.0064   24.6587 C   0  0  0  0  0  0  0  0  0  0  0  0
   21.1029   16.4997   24.7610 H   0  0  0  0  0  0  0  0  0  0  0  0
   19.3992   16.4488   25.2529 H   0  0  0  0  0  0  0  0  0  0  0  0
   20.2227   18.0081   25.0974 H   0  0  0  0  0  0  0  0  0  0  0  0
  1  2  1  0  0  0  0
  1  3  1  0  0  0  0
  1  4  1  0  0  0  0
  1  5  1  0  0  0  0
  5  6  1  0  0  0  0
  5  7  1  0  0  0  0
  5  8  1  0  0  0  0
  8  9  1  0  0  0  0
  8 10  1  0  0  0  0
  8 11  1  0  0  0  0
 11 12  1  0  0  0  0
 11 13  1  0  0  0  0
 11 14  1  0  0  0  0
 14 15  1  0  0  0  0
 14 16  1  0  0  0  0
 14 17  1  0  0  0  0
 17 18  1  0  0  0  0
 17 19  1  0  0  0  0
 17 20  1  0  0  0  0
 20 21  1  0  0  0  0
 20 22  1  0  0  0  0
 20 23  1  0  0  0  0
M  END
> <VConfSearch Rank>
700

> <Conf_Id>
26

> <Delta U+W>
1.076

> <U+W>
-7.306

> <U>
48.641

> <W>
-55.947

> <W(PB)>
-58.031

> <W(SA)>
2.084

> <Valence>
2.922

> <Coulomb>
45.269

> <VdW>
0.449

> <VdW6>
-7.045

> <VdW12>
7.494

> <Bond>
0.220

> <Angle>
1.205

> <Pdih>
1.497

> <Idih>
0.000

> <Tether>
0.000

$$$$
VeraChem MOL file


 23 22  0  0  0  0  0  0  0  0999 V2000     
   22.1750   20.5452   21.2604 N   0  3  0  0  0  0  0  0  0  0  0  0
   23.0848   20.4412   21.7212 H   0  0  0  0  0  0  0  0  0  0  0  0
   22.1807   21.4581   20.7928 H   0  0  0  0  0  0  0  0  0  0  0  0
   22.1266   19.8335   20.5244 H   0  0  0  0  0  0  0  0  0  0  0  0
   21.0274   20.4229   22.2421 C   0  0  0  0  0  0  0  0  0  0  0  0
   20.0959   20.5735   21.6903 H   0  0  0  0  0  0  0  0  0  0  0  0
   21.1251   21.2254   22.9781 H   0  0  0  0  0  0  0  0  0  0  0  0
   20.9905   19.0618   22.9617 C   0  0  0  0  0  0  0  0  0  0  0  0
   20.9055   18.2546   22.2229 H   0  0  0  0  0  0  0  0  0  0  0  0
   21.9447   18.9043   23.4817 H   0  0  0  0  0  0  0  0  0  0  0  0
   19.8376   18.9611   23.9912 C   0  0  0  0  0  0  0  0  0  0  0  0
   20.0079   19.6988   24.7876 H   0  0  0  0  0  0  0  0  0  0  0  0
   19.8801   17.9802   24.4830 H   0  0  0  0  0  0  0  0  0  0  0  0
   18.4181   19.1861   23.4038 C   0  0  0  0  0  0  0  0  0  0  0  0
   17.6827   19.0766   24.2127 H   0  0  0  0  0  0  0  0  0  0  0  0
   18.3257   20.2254   23.0606 H   0  0  0  0  0  0  0  0  0  0  0  0
   18.0274   18.2379   22.2417 C   0  0  0  0  0  0  0  0  0  0  0  0
   18.6856   18.4040   21.3783 H   0  0  0  0  0  0  0  0  0  0  0  0
   17.0152   18.4985   21.9024 H   0  0  0  0  0  0  0  0  0  0  0  0
   18.0505   16.7437   22.6357 C   0  0  0  0  0  0  0  0  0  0  0  0
   19.0661   16.4073   22.8786 H   0  0  0  0  0  0  0  0  0  0  0  0
   17.6853   16.1219   21.8081 H   0  0  0  0  0  0  0  0  0  0  0  0
   17.4086   16.5554   23.5060 H   0  0  0  0  0  0  0  0  0  0  0  0
  1  2  1  0  0  0  0
  1  3  1  0  0  0  0
  1  4  1  0  0  0  0
  1  5  1  0  0  0  0
  5  6  1  0  0  0  0
  5  7  1  0  0  0  0
  5  8  1  0  0  0  0
  8  9  1  0  0  0  0
  8 10  1  0  0  0  0
  8 11  1  0  0  0  0
 11 12  1  0  0  0  0
 11 13  1  0  0  0  0
 11 14  1  0  0  0  0
 14 15  1  0  0  0  0
 14 16  1  0  0  0  0
 14 17  1  0  0  0  0
 17 18  1  0  0  0  0
 17 19  1  0  0  0  0
 17 20  1  0  0  0  0
 20 21  1  0  0  0  0
 20 22  1  0  0  0  0
 20 23  1  0  0  0  0
M  END
> <VConfSearch Rank>
701

> <Conf_Id>
90

> <Delta U+W>
1.131

> <U+W>
-7.251

> <U>
48.641

> <W>
-55.892

> <W(PB)>
-57.962

> <W(SA)>
2.070

> <Valence>
2.922

> <Coulomb>
45.269

> <VdW>
0.450

> <VdW6>
-7.045

> <VdW12>
7.495

> <Bond>
0.220

> <Angle>
1.205

> <Pdih>
1.497

> <Idih>
0.000

> <Tether>
0.000

$$$$
VeraChem MOL file


 23 22  0  0  0  0  0  0  0  0999 V2000     
   21.6444   17.0412   22.6162 N   0  3  0  0  0  0  0  0  0  0  0  0
   21.7447   16.1103   23.0348 H   0  0  0  0  0  0  0  0  0  0  0  0
   21.4269   17.6918   23.3770 H   0  0  0  0  0  0  0  0  0  0  0  0
   22.5635   17.3032   22.2458 H   0  0  0  0  0  0  0  0  0  0  0  0
   20.5769   17.0628   21.5399 C   0  0  0  0  0  0  0  0  0  0  0  0
   19.6336   16.7456   21.9918 H   0  0  0  0  0  0  0  0  0  0  0  0
   20.8539   16.3258   20.7812 H   0  0  0  0  0  0  0  0  0  0  0  0
   20.3977   18.4417   20.8724 C   0  0  0  0  0  0  0  0  0  0  0  0
   21.3372   18.7286   20.3817 H   0  0  0  0  0  0  0  0  0  0  0  0
   19.6505   18.3513   20.0729 H   0  0  0  0  0  0  0  0  0  0  0  0
   19.9668   19.5635   21.8503 C   0  0  0  0  0  0  0  0  0  0  0  0
   19.8808   20.5037   21.2883 H   0  0  0  0  0  0  0  0  0  0  0  0
   20.7569   19.7235   22.5948 H   0  0  0  0  0  0  0  0  0  0  0  0
   18.6191   19.2686   22.5561 C   0  0  0  0  0  0  0  0  0  0  0  0
   17.8623   19.0276   21.7968 H   0  0  0  0  0  0  0  0  0  0  0  0
   18.7118   18.3794   23.1938 H   0  0  0  0  0  0  0  0  0  0  0  0
   18.1009   20.4520   23.4083 C   0  0  0  0  0  0  0  0  0  0  0  0
   17.0985   20.2038   23.7842 H   0  0  0  0  0  0  0  0  0  0  0  0
   17.9796   21.3418   22.7749 H   0  0  0  0  0  0  0  0  0  0  0  0
   19.0138   20.7890   24.6093 C   0  0  0  0  0  0  0  0  0  0  0  0
   19.1724   19.9079   25.2445 H   0  0  0  0  0  0  0  0  0  0  0  0
   18.5586   21.5718   25.2296 H   0  0  0  0  0  0  0  0  0  0  0  0
   19.9933   21.1577   24.2805 H   0  0  0  0  0  0  0  0  0  0  0  0
  1  2  1  0  0  0  0
  1  3  1  0  0  0  0
  1  4  1  0  0  0  0
  1  5  1  0  0  0  0
  5  6  1  0  0  0  0
  5  7  1  0  0  0  0
  5  8  1  0  0  0  0
  8  9  1  0  0  0  0
  8 10  1  0  0  0  0
  8 11  1  0  0  0  0
 11 12  1  0  0  0  0
 11 13  1  0  0  0  0
 11 14  1  0  0  0  0
 14 15  1  0  0  0  0
 14 16  1  0  0  0  0
 14 17  1  0  0  0  0
 17 18  1  0  0  0  0
 17 19  1  0  0  0  0
 17 20  1  0  0  0  0
 20 21  1  0  0  0  0
 20 22  1  0  0  0  0
 20 23  1  0  0  0  0
M  END
> <VConfSearch Rank>
702

> <Conf_Id>
85

> <Delta U+W>
1.193

> <U+W>
-7.189

> <U>
48.775

> <W>
-55.965

> <W(PB)>
-58.038

> <W(SA)>
2.073

> <Valence>
2.602

> <Coulomb>
45.581

> <VdW>
0.592

> <VdW6>
-6.616

> <VdW12>
7.208

> <Bond>
0.196

> <Angle>
0.832

> <Pdih>
1.574

> <Idih>
0.000

> <Tether>
0.000

$$$$
VeraChem MOL file


 23 22  0  0  0  0  0  0  0  0999 V2000     
   21.7411   19.4075   22.5839 N   0  3  0  0  0  0  0  0  0  0  0  0
   21.1011   18.8900   23.1948 H   0  0  0  0  0  0  0  0  0  0  0  0
   22.2931   20.0355   23.1783 H   0  0  0  0  0  0  0  0  0  0  0  0
   22.3942   18.7286   22.1795 H   0  0  0  0  0  0  0  0  0  0  0  0
   20.9861   20.1675   21.5106 C   0  0  0  0  0  0  0  0  0  0  0  0
   21.7317   20.6884   20.9038 H   0  0  0  0  0  0  0  0  0  0  0  0
   20.3552   20.9195   21.9919 H   0  0  0  0  0  0  0  0  0  0  0  0
   20.1277   19.2720   20.5942 C   0  0  0  0  0  0  0  0  0  0  0  0
   19.9600   19.8179   19.6563 H   0  0  0  0  0  0  0  0  0  0  0  0
   20.6939   18.3724   20.3185 H   0  0  0  0  0  0  0  0  0  0  0  0
   18.7400   18.8758   21.1663 C   0  0  0  0  0  0  0  0  0  0  0  0
   18.2208   18.2921   20.3936 H   0  0  0  0  0  0  0  0  0  0  0  0
   18.1260   19.7746   21.3170 H   0  0  0  0  0  0  0  0  0  0  0  0
   18.7751   18.0292   22.4645 C   0  0  0  0  0  0  0  0  0  0  0  0
   17.9504   17.3036   22.4301 H   0  0  0  0  0  0  0  0  0  0  0  0
   19.6943   17.4297   22.5015 H   0  0  0  0  0  0  0  0  0  0  0  0
   18.6087   18.8766   23.7495 C   0  0  0  0  0  0  0  0  0  0  0  0
   17.6073   19.3298   23.7572 H   0  0  0  0  0  0  0  0  0  0  0  0
   19.3182   19.7124   23.7666 H   0  0  0  0  0  0  0  0  0  0  0  0
   18.7885   18.0235   25.0230 C   0  0  0  0  0  0  0  0  0  0  0  0
   18.0535   17.2087   25.0580 H   0  0  0  0  0  0  0  0  0  0  0  0
   18.6524   18.6373   25.9229 H   0  0  0  0  0  0  0  0  0  0  0  0
   19.7914   17.5796   25.0670 H   0  0  0  0  0  0  0  0  0  0  0  0
  1  2  1  0  0  0  0
  1  3  1  0  0  0  0
  1  4  1  0  0  0  0
  1  5  1  0  0  0  0
  5  6  1  0  0  0  0
  5  7  1  0  0  0  0
  5  8  1  0  0  0  0
  8  9  1  0  0  0  0
  8 10  1  0  0  0  0
  8 11  1  0  0  0  0
 11 12  1  0  0  0  0
 11 13  1  0  0  0  0
 11 14  1  0  0  0  0
 14 15  1  0  0  0  0
 14 16  1  0  0  0  0
 14 17  1  0  0  0  0
 17 18  1  0  0  0  0
 17 19  1  0  0  0  0
 17 20  1  0  0  0  0
 20 21  1  0  0  0  0
 20 22  1  0  0  0  0
 20 23  1  0  0  0  0
M  END
> <VConfSearch Rank>
703

> <Conf_Id>
82

> <Delta U+W>
5.994

> <U+W>
-2.388

> <U>
52.836

> <W>
-55.224

> <W(PB)>
-57.261

> <W(SA)>
2.037

> <Valence>
5.785

> <Coulomb>
46.744

> <VdW>
0.307

> <VdW6>
-7.672

> <VdW12>
7.979

> <Bond>
0.217

> <Angle>
1.470

> <Pdih>
4.098

> <Idih>
0.000

> <Tether>
0.000

$$$$
VeraChem MOL file


 23 22  0  0  0  0  0  0  0  0999 V2000     
   20.0531   16.9259   22.6533 N   0  3  0  0  0  0  0  0  0  0  0  0
   20.0531   16.4932   23.5826 H   0  0  0  0  0  0  0  0  0  0  0  0
   19.8492   16.1818   21.9772 H   0  0  0  0  0  0  0  0  0  0  0  0
   19.2724   17.5894   22.6247 H   0  0  0  0  0  0  0  0  0  0  0  0
   21.3719   17.6123   22.3542 C   0  0  0  0  0  0  0  0  0  0  0  0
   21.3421   17.9983   21.3319 H   0  0  0  0  0  0  0  0  0  0  0  0
   22.1496   16.8454   22.4047 H   0  0  0  0  0  0  0  0  0  0  0  0
   21.7230   18.7503   23.3341 C   0  0  0  0  0  0  0  0  0  0  0  0
   21.5018   18.4358   24.3627 H   0  0  0  0  0  0  0  0  0  0  0  0
   22.8101   18.9005   23.2954 H   0  0  0  0  0  0  0  0  0  0  0  0
   21.0455   20.1147   23.0348 C   0  0  0  0  0  0  0  0  0  0  0  0
   21.3750   20.4903   22.0562 H   0  0  0  0  0  0  0  0  0  0  0  0
   21.4254   20.8381   23.7696 H   0  0  0  0  0  0  0  0  0  0  0  0
   19.4973   20.1180   23.1146 C   0  0  0  0  0  0  0  0  0  0  0  0
   19.1528   19.3581   23.8284 H   0  0  0  0  0  0  0  0  0  0  0  0
   19.1714   21.0821   23.5292 H   0  0  0  0  0  0  0  0  0  0  0  0
   18.8156   19.9391   21.7360 C   0  0  0  0  0  0  0  0  0  0  0  0
   19.2133   19.0639   21.2087 H   0  0  0  0  0  0  0  0  0  0  0  0
   19.0487   20.8060   21.1017 H   0  0  0  0  0  0  0  0  0  0  0  0
   17.2838   19.8064   21.8698 C   0  0  0  0  0  0  0  0  0  0  0  0
   17.0107   18.9299   22.4713 H   0  0  0  0  0  0  0  0  0  0  0  0
   16.8169   19.6958   20.8824 H   0  0  0  0  0  0  0  0  0  0  0  0
   16.8519   20.6955   22.3476 H   0  0  0  0  0  0  0  0  0  0  0  0
  1  2  1  0  0  0  0
  1  3  1  0  0  0  0
  1  4  1  0  0  0  0
  1  5  1  0  0  0  0
  5  6  1  0  0  0  0
  5  7  1  0  0  0  0
  5  8  1  0  0  0  0
  8  9  1  0  0  0  0
  8 10  1  0  0  0  0
  8 11  1  0  0  0  0
 11 12  1  0  0  0  0
 11 13  1  0  0  0  0
 11 14  1  0  0  0  0
 14 15  1  0  0  0  0
 14 16  1  0  0  0  0
 14 17  1  0  0  0  0
 17 18  1  0  0  0  0
 17 19  1  0  0  0  0
 17 20  1  0  0  0  0
 20 21  1  0  0  0  0
 20 22  1  0  0  0  0
 20 23  1  0  0  0  0
M  END
> <VConfSearch Rank>
704

> <Conf_Id>
5

> <Delta U+W>
6.087

> <U+W>
-2.295

> <U>
52.836

> <W>
-55.131

> <W(PB)>
-57.202

> <W(SA)>
2.071

> <Valence>
5.785

> <Coulomb>
46.744

> <VdW>
0.307

> <VdW6>
-7.672

> <VdW12>
7.980

> <Bond>
0.217

> <Angle>
1.470

> <Pdih>
4.098

> <Idih>
0.000

> <Tether>
0.000

$$$$
VeraChem MOL file


 23 22  0  0  0  0  0  0  0  0999 V2000     
   19.8749   17.5871   19.0346 N   0  3  0  0  0  0  0  0  0  0  0  0
   20.4078   16.7419   19.2637 H   0  0  0  0  0  0  0  0  0  0  0  0
   20.1511   17.8657   18.0869 H   0  0  0  0  0  0  0  0  0  0  0  0
   18.8868   17.3177   18.9897 H   0  0  0  0  0  0  0  0  0  0  0  0
   20.1137   18.6960   20.0393 C   0  0  0  0  0  0  0  0  0  0  0  0
   19.5415   19.5708   19.7187 H   0  0  0  0  0  0  0  0  0  0  0  0
   21.1763   18.9519   20.0132 H   0  0  0  0  0  0  0  0  0  0  0  0
   19.7090   18.3092   21.4729 C   0  0  0  0  0  0  0  0  0  0  0  0
   18.6451   18.0374   21.4911 H   0  0  0  0  0  0  0  0  0  0  0  0
   20.2742   17.4206   21.7845 H   0  0  0  0  0  0  0  0  0  0  0  0
   19.9679   19.4648   22.4648 C   0  0  0  0  0  0  0  0  0  0  0  0
   19.4050   20.3535   22.1466 H   0  0  0  0  0  0  0  0  0  0  0  0
   21.0323   19.7373   22.4397 H   0  0  0  0  0  0  0  0  0  0  0  0
   19.5649   19.0871   23.9084 C   0  0  0  0  0  0  0  0  0  0  0  0
   18.5006   18.8148   23.9336 H   0  0  0  0  0  0  0  0  0  0  0  0
   20.1277   18.1986   24.2266 H   0  0  0  0  0  0  0  0  0  0  0  0
   19.8240   20.2430   24.9001 C   0  0  0  0  0  0  0  0  0  0  0  0
   19.2612   21.1337   24.5873 H   0  0  0  0  0  0  0  0  0  0  0  0
   20.8881   20.5176   24.8803 H   0  0  0  0  0  0  0  0  0  0  0  0
   19.4204   19.8622   26.3404 C   0  0  0  0  0  0  0  0  0  0  0  0
   19.6116   20.6950   27.0296 H   0  0  0  0  0  0  0  0  0  0  0  0
   19.9920   18.9943   26.6942 H   0  0  0  0  0  0  0  0  0  0  0  0
   18.3523   19.6152   26.3989 H   0  0  0  0  0  0  0  0  0  0  0  0
  1  2  1  0  0  0  0
  1  3  1  0  0  0  0
  1  4  1  0  0  0  0
  1  5  1  0  0  0  0
  5  6  1  0  0  0  0
  5  7  1  0  0  0  0
  5  8  1  0  0  0  0
  8  9  1  0  0  0  0
  8 10  1  0  0  0  0
  8 11  1  0  0  0  0
 11 12  1  0  0  0  0
 11 13  1  0  0  0  0
 11 14  1  0  0  0  0
 14 15  1  0  0  0  0
 14 16  1  0  0  0  0
 14 17  1  0  0  0  0
 17 18  1  0  0  0  0
 17 19  1  0  0  0  0
 17 20  1  0  0  0  0
 20 21  1  0  0  0  0
 20 22  1  0  0  0  0
 20 23  1  0  0  0  0
M  END
> <VConfSearch Rank>
705

> <Conf_Id>
40

> <Delta U+W>
0.000

> <U+W>
-8.382

> <U>
46.604

> <W>
-54.986

> <W(PB)>
-57.162

> <W(SA)>
2.176

> <Valence>
1.727

> <Coulomb>
44.434

> <VdW>
0.443

> <VdW6>
-4.623

> <VdW12>
5.066

> <Bond>
0.112

> <Angle>
0.386

> <Pdih>
1.228

> <Idih>
0.000

> <Tether>
0.000

$$$$
VeraChem MOL file


 23 22  0  0  0  0  0  0  0  0999 V2000     
   22.8201   19.3654   24.4334 N   0  3  0  0  0  0  0  0  0  0  0  0
   22.6401   19.7721   25.3570 H   0  0  0  0  0  0  0  0  0  0  0  0
   23.2290   20.1048   23.8529 H   0  0  0  0  0  0  0  0  0  0  0  0
   23.5445   18.6502   24.5590 H   0  0  0  0  0  0  0  0  0  0  0  0
   21.5625   18.7905   23.8140 C   0  0  0  0  0  0  0  0  0  0  0  0
   21.1986   17.9930   24.4675 H   0  0  0  0  0  0  0  0  0  0  0  0
   21.8348   18.3497   22.8517 H   0  0  0  0  0  0  0  0  0  0  0  0
   20.4543   19.8414   23.6127 C   0  0  0  0  0  0  0  0  0  0  0  0
   20.2253   20.3088   24.5796 H   0  0  0  0  0  0  0  0  0  0  0  0
   20.8189   20.6421   22.9554 H   0  0  0  0  0  0  0  0  0  0  0  0
   19.1549   19.2393   23.0273 C   0  0  0  0  0  0  0  0  0  0  0  0
   18.3856   20.0222   23.0226 H   0  0  0  0  0  0  0  0  0  0  0  0
   18.7874   18.4452   23.6920 H   0  0  0  0  0  0  0  0  0  0  0  0
   19.3361   18.6797   21.5933 C   0  0  0  0  0  0  0  0  0  0  0  0
   19.6838   19.4793   20.9247 H   0  0  0  0  0  0  0  0  0  0  0  0
   20.1230   17.9140   21.5943 H   0  0  0  0  0  0  0  0  0  0  0  0
   18.0490   18.0452   21.0126 C   0  0  0  0  0  0  0  0  0  0  0  0
   17.7023   17.2373   21.6721 H   0  0  0  0  0  0  0  0  0  0  0  0
   18.2928   17.5727   20.0507 H   0  0  0  0  0  0  0  0  0  0  0  0
   16.9061   19.0619   20.7901 C   0  0  0  0  0  0  0  0  0  0  0  0
   16.5387   19.4710   21.7393 H   0  0  0  0  0  0  0  0  0  0  0  0
   16.0564   18.5805   20.2888 H   0  0  0  0  0  0  0  0  0  0  0  0
   17.2376   19.8974   20.1600 H   0  0  0  0  0  0  0  0  0  0  0  0
  1  2  1  0  0  0  0
  1  3  1  0  0  0  0
  1  4  1  0  0  0  0
  1  5  1  0  0  0  0
  5  6  1  0  0  0  0
  5  7  1  0  0  0  0
  5  8  1  0  0  0  0
  8  9  1  0  0  0  0
  8 10  1  0  0  0  0
  8 11  1  0  0  0  0
 11 12  1  0  0  0  0
 11 13  1  0  0  0  0
 11 14  1  0  0  0  0
 14 15  1  0  0  0  0
 14 16  1  0  0  0  0
 14 17  1  0  0  0  0
 17 18  1  0  0  0  0
 17 19  1  0  0  0  0
 17 20  1  0  0  0  0
 20 21  1  0  0  0  0
 20 22  1  0  0  0  0
 20 23  1  0  0  0  0
M  END
> <VConfSearch Rank>
706

> <Conf_Id>
65

> <Delta U+W>
1.004

> <U+W>
-7.378

> <U>
48.047

> <W>
-55.425

> <W(PB)>
-57.542

> <W(SA)>
2.116

> <Valence>
2.583

> <Coulomb>
44.791

> <VdW>
0.673

> <VdW6>
-5.788

> <VdW12>
6.462

> <Bond>
0.177

> <Angle>
0.787

> <Pdih>
1.619

> <Idih>
0.000

> <Tether>
0.000

$$$$
VeraChem MOL file


 23 22  0  0  0  0  0  0  0  0999 V2000     
   18.3264   15.8956   21.6450 N   0  3  0  0  0  0  0  0  0  0  0  0
   18.7052   15.1359   22.2197 H   0  0  0  0  0  0  0  0  0  0  0  0
   18.2351   15.5303   20.6910 H   0  0  0  0  0  0  0  0  0  0  0  0
   17.3776   16.0854   21.9835 H   0  0  0  0  0  0  0  0  0  0  0  0
   19.2018   17.1314   21.6932 C   0  0  0  0  0  0  0  0  0  0  0  0
   18.7557   17.8833   21.0374 H   0  0  0  0  0  0  0  0  0  0  0  0
   20.1840   16.8650   21.2937 H   0  0  0  0  0  0  0  0  0  0  0  0
   19.3588   17.7044   23.1146 C   0  0  0  0  0  0  0  0  0  0  0  0
   18.3726   17.9733   23.5159 H   0  0  0  0  0  0  0  0  0  0  0  0
   19.7632   16.9233   23.7721 H   0  0  0  0  0  0  0  0  0  0  0  0
   20.2943   18.9356   23.1656 C   0  0  0  0  0  0  0  0  0  0  0  0
   21.2830   18.6610   22.7726 H   0  0  0  0  0  0  0  0  0  0  0  0
   20.4429   19.2103   24.2180 H   0  0  0  0  0  0  0  0  0  0  0  0
   19.7398   20.1536   22.3836 C   0  0  0  0  0  0  0  0  0  0  0  0
   19.5682   19.8709   21.3367 H   0  0  0  0  0  0  0  0  0  0  0  0
   18.7605   20.4407   22.7908 H   0  0  0  0  0  0  0  0  0  0  0  0
   20.6852   21.3794   22.4018 C   0  0  0  0  0  0  0  0  0  0  0  0
   20.2755   22.1494   21.7331 H   0  0  0  0  0  0  0  0  0  0  0  0
   21.6635   21.1007   21.9857 H   0  0  0  0  0  0  0  0  0  0  0  0
   20.8734   21.9927   23.8081 C   0  0  0  0  0  0  0  0  0  0  0  0
   21.3963   21.3037   24.4827 H   0  0  0  0  0  0  0  0  0  0  0  0
   19.9064   22.2496   24.2597 H   0  0  0  0  0  0  0  0  0  0  0  0
   21.4706   22.9118   23.7491 H   0  0  0  0  0  0  0  0  0  0  0  0
  1  2  1  0  0  0  0
  1  3  1  0  0  0  0
  1  4  1  0  0  0  0
  1  5  1  0  0  0  0
  5  6  1  0  0  0  0
  5  7  1  0  0  0  0
  5  8  1  0  0  0  0
  8  9  1  0  0  0  0
  8 10  1  0  0  0  0
  8 11  1  0  0  0  0
 11 12  1  0  0  0  0
 11 13  1  0  0  0  0
 11 14  1  0  0  0  0
 14 15  1  0  0  0  0
 14 16  1  0  0  0  0
 14 17  1  0  0  0  0
 17 18  1  0  0  0  0
 17 19  1  0  0  0  0
 17 20  1  0  0  0  0
 20 21  1  0  0  0  0
 20 22  1  0  0  0  0
 20 23  1  0  0  0  0
M  END
> <VConfSearch Rank>
707

> <Conf_Id>
92

> <Delta U+W>
0.973

> <U+W>
-7.409

> <U>
48.047

> <W>
-55.456

> <W(PB)>
-57.595

> <W(SA)>
2.138

> <Valence>
2.583

> <Coulomb>
44.791

> <VdW>
0.674

> <VdW6>
-5.789

> <VdW12>
6.462

> <Bond>
0.177

> <Angle>
0.787

> <Pdih>
1.619

> <Idih>
0.000

> <Tether>
0.000

$$$$
VeraChem MOL file


 23 22  0  0  0  0  0  0  0  0999 V2000     
   19.4650   19.2406   26.1136 N   0  3  0  0  0  0  0  0  0  0  0  0
   20.1961   18.8777   26.7348 H   0  0  0  0  0  0  0  0  0  0  0  0
   18.5652   18.9656   26.5205 H   0  0  0  0  0  0  0  0  0  0  0  0
   19.5163   20.2634   26.1589 H   0  0  0  0  0  0  0  0  0  0  0  0
   19.6248   18.7285   24.6966 C   0  0  0  0  0  0  0  0  0  0  0  0
   19.5892   17.6362   24.7264 H   0  0  0  0  0  0  0  0  0  0  0  0
   20.6129   19.0312   24.3404 H   0  0  0  0  0  0  0  0  0  0  0  0
   18.5404   19.2563   23.7383 C   0  0  0  0  0  0  0  0  0  0  0  0
   17.5516   18.9840   24.1308 H   0  0  0  0  0  0  0  0  0  0  0  0
   18.5757   20.3535   23.7091 H   0  0  0  0  0  0  0  0  0  0  0  0
   18.6837   18.6931   22.3047 C   0  0  0  0  0  0  0  0  0  0  0  0
   17.8292   19.0358   21.7047 H   0  0  0  0  0  0  0  0  0  0  0  0
   18.6223   17.5963   22.3341 H   0  0  0  0  0  0  0  0  0  0  0  0
   19.9981   19.1243   21.6105 C   0  0  0  0  0  0  0  0  0  0  0  0
   20.0719   20.2206   21.6123 H   0  0  0  0  0  0  0  0  0  0  0  0
   20.8618   18.7462   22.1736 H   0  0  0  0  0  0  0  0  0  0  0  0
   20.0757   18.6066   20.1569 C   0  0  0  0  0  0  0  0  0  0  0  0
   19.2199   18.9860   19.5812 H   0  0  0  0  0  0  0  0  0  0  0  0
   20.0017   17.5100   20.1492 H   0  0  0  0  0  0  0  0  0  0  0  0
   21.3875   19.0360   19.4660 C   0  0  0  0  0  0  0  0  0  0  0  0
   21.4743   20.1297   19.4285 H   0  0  0  0  0  0  0  0  0  0  0  0
   21.4240   18.6597   18.4355 H   0  0  0  0  0  0  0  0  0  0  0  0
   22.2623   18.6418   19.9996 H   0  0  0  0  0  0  0  0  0  0  0  0
  1  2  1  0  0  0  0
  1  3  1  0  0  0  0
  1  4  1  0  0  0  0
  1  5  1  0  0  0  0
  5  6  1  0  0  0  0
  5  7  1  0  0  0  0
  5  8  1  0  0  0  0
  8  9  1  0  0  0  0
  8 10  1  0  0  0  0
  8 11  1  0  0  0  0
 11 12  1  0  0  0  0
 11 13  1  0  0  0  0
 11 14  1  0  0  0  0
 14 15  1  0  0  0  0
 14 16  1  0  0  0  0
 14 17  1  0  0  0  0
 17 18  1  0  0  0  0
 17 19  1  0  0  0  0
 17 20  1  0  0  0  0
 20 21  1  0  0  0  0
 20 22  1  0  0  0  0
 20 23  1  0  0  0  0
M  END
> <VConfSearch Rank>
708

> <Conf_Id>
42

> <Delta U+W>
0.365

> <U+W>
-8.017

> <U>
47.375

> <W>
-55.392

> <W(PB)>
-57.543

> <W(SA)>
2.152

> <Valence>
2.032

> <Coulomb>
44.843

> <VdW>
0.499

> <VdW6>
-5.218

> <VdW12>
5.717

> <Bond>
0.135

> <Angle>
0.514

> <Pdih>
1.383

> <Idih>
0.000

> <Tether>
0.000

$$$$
VeraChem MOL file


 23 22  0  0  0  0  0  0  0  0999 V2000     
   18.1653   21.1050   20.8667 N   0  3  0  0  0  0  0  0  0  0  0  0
   17.2785   20.5980   20.9519 H   0  0  0  0  0  0  0  0  0  0  0  0
   18.0593   21.7635   20.0876 H   0  0  0  0  0  0  0  0  0  0  0  0
   18.2773   21.6643   21.7177 H   0  0  0  0  0  0  0  0  0  0  0  0
   19.3347   20.1637   20.6526 C   0  0  0  0  0  0  0  0  0  0  0  0
   20.2412   20.7657   20.5463 H   0  0  0  0  0  0  0  0  0  0  0  0
   19.1647   19.6354   19.7104 H   0  0  0  0  0  0  0  0  0  0  0  0
   19.5238   19.1361   21.7856 C   0  0  0  0  0  0  0  0  0  0  0  0
   18.6027   18.5514   21.9088 H   0  0  0  0  0  0  0  0  0  0  0  0
   20.3088   18.4358   21.4750 H   0  0  0  0  0  0  0  0  0  0  0  0
   19.9228   19.7934   23.1293 C   0  0  0  0  0  0  0  0  0  0  0  0
   19.1903   20.5691   23.3882 H   0  0  0  0  0  0  0  0  0  0  0  0
   20.8853   20.3099   23.0099 H   0  0  0  0  0  0  0  0  0  0  0  0
   20.0130   18.8064   24.3220 C   0  0  0  0  0  0  0  0  0  0  0  0
   20.2574   19.3934   25.2182 H   0  0  0  0  0  0  0  0  0  0  0  0
   19.0277   18.3624   24.5201 H   0  0  0  0  0  0  0  0  0  0  0  0
   21.0818   17.6934   24.1690 C   0  0  0  0  0  0  0  0  0  0  0  0
   21.5231   17.4939   25.1556 H   0  0  0  0  0  0  0  0  0  0  0  0
   21.9084   18.0415   23.5340 H   0  0  0  0  0  0  0  0  0  0  0  0
   20.5093   16.3631   23.6261 C   0  0  0  0  0  0  0  0  0  0  0  0
   19.7339   15.9686   24.2955 H   0  0  0  0  0  0  0  0  0  0  0  0
   21.3009   15.6063   23.5520 H   0  0  0  0  0  0  0  0  0  0  0  0
   20.0670   16.4794   22.6306 H   0  0  0  0  0  0  0  0  0  0  0  0
  1  2  1  0  0  0  0
  1  3  1  0  0  0  0
  1  4  1  0  0  0  0
  1  5  1  0  0  0  0
  5  6  1  0  0  0  0
  5  7  1  0  0  0  0
  5  8  1  0  0  0  0
  8  9  1  0  0  0  0
  8 10  1  0  0  0  0
  8 11  1  0  0  0  0
 11 12  1  0  0  0  0
 11 13  1  0  0  0  0
 11 14  1  0  0  0  0
 14 15  1  0  0  0  0
 14 16  1  0  0  0  0
 14 17  1  0  0  0  0
 17 18  1  0  0  0  0
 17 19  1  0  0  0  0
 17 20  1  0  0  0  0
 20 21  1  0  0  0  0
 20 22  1  0  0  0  0
 20 23  1  0  0  0  0
M  END
> <VConfSearch Rank>
709

> <Conf_Id>
3

> <Delta U+W>
3.283

> <U+W>
-5.099

> <U>
50.701

> <W>
-55.800

> <W(PB)>
-57.867

> <W(SA)>
2.067

> <Valence>
4.880

> <Coulomb>
45.095

> <VdW>
0.726

> <VdW6>
-6.620

> <VdW12>
7.346

> <Bond>
0.222

> <Angle>
1.260

> <Pdih>
3.398

> <Idih>
0.000

> <Tether>
0.000

$$$$
VeraChem MOL file


 23 22  0  0  0  0  0  0  0  0999 V2000     
   17.7503   18.0833   20.7648 N   0  3  0  0  0  0  0  0  0  0  0  0
   17.7766   17.0678   20.6282 H   0  0  0  0  0  0  0  0  0  0  0  0
   16.9520   18.4371   20.2269 H   0  0  0  0  0  0  0  0  0  0  0  0
   17.5444   18.2510   21.7543 H   0  0  0  0  0  0  0  0  0  0  0  0
   19.0495   18.7418   20.3444 C   0  0  0  0  0  0  0  0  0  0  0  0
   18.9443   19.8204   20.4856 H   0  0  0  0  0  0  0  0  0  0  0  0
   19.1878   18.5526   19.2764 H   0  0  0  0  0  0  0  0  0  0  0  0
   20.2824   18.2307   21.1176 C   0  0  0  0  0  0  0  0  0  0  0  0
   20.4054   17.1566   20.9251 H   0  0  0  0  0  0  0  0  0  0  0  0
   21.1792   18.7181   20.7127 H   0  0  0  0  0  0  0  0  0  0  0  0
   20.2174   18.4713   22.6472 C   0  0  0  0  0  0  0  0  0  0  0  0
   21.1181   18.0353   23.0983 H   0  0  0  0  0  0  0  0  0  0  0  0
   19.3663   17.9256   23.0758 H   0  0  0  0  0  0  0  0  0  0  0  0
   20.1229   19.9714   23.0253 C   0  0  0  0  0  0  0  0  0  0  0  0
   20.9896   20.5109   22.6191 H   0  0  0  0  0  0  0  0  0  0  0  0
   19.2354   20.4143   22.5547 H   0  0  0  0  0  0  0  0  0  0  0  0
   20.0307   20.2176   24.5508 C   0  0  0  0  0  0  0  0  0  0  0  0
   19.1589   19.6891   24.9611 H   0  0  0  0  0  0  0  0  0  0  0  0
   19.8501   21.2878   24.7240 H   0  0  0  0  0  0  0  0  0  0  0  0
   21.3034   19.7984   25.3215 C   0  0  0  0  0  0  0  0  0  0  0  0
   22.1947   20.2883   24.9084 H   0  0  0  0  0  0  0  0  0  0  0  0
   21.4589   18.7132   25.2850 H   0  0  0  0  0  0  0  0  0  0  0  0
   21.2235   20.0839   26.3784 H   0  0  0  0  0  0  0  0  0  0  0  0
  1  2  1  0  0  0  0
  1  3  1  0  0  0  0
  1  4  1  0  0  0  0
  1  5  1  0  0  0  0
  5  6  1  0  0  0  0
  5  7  1  0  0  0  0
  5  8  1  0  0  0  0
  8  9  1  0  0  0  0
  8 10  1  0  0  0  0
  8 11  1  0  0  0  0
 11 12  1  0  0  0  0
 11 13  1  0  0  0  0
 11 14  1  0  0  0  0
 14 15  1  0  0  0  0
 14 16  1  0  0  0  0
 14 17  1  0  0  0  0
 17 18  1  0  0  0  0
 17 19  1  0  0  0  0
 17 20  1  0  0  0  0
 20 21  1  0  0  0  0
 20 22  1  0  0  0  0
 20 23  1  0  0  0  0
M  END
> <VConfSearch Rank>
710

> <Conf_Id>
83

> <Delta U+W>
1.229

> <U+W>
-7.154

> <U>
48.727

> <W>
-55.880

> <W(PB)>
-57.960

> <W(SA)>
2.080

> <Valence>
2.671

> <Coulomb>
45.371

> <VdW>
0.684

> <VdW6>
-6.511

> <VdW12>
7.195

> <Bond>
0.203

> <Angle>
0.915

> <Pdih>
1.554

> <Idih>
0.000

> <Tether>
0.000

$$$$
VeraChem MOL file


 23 22  0  0  0  0  0  0  0  0999 V2000     
   20.6251   16.8838   24.3164 N   0  3  0  0  0  0  0  0  0  0  0  0
   21.6295   16.9179   24.5174 H   0  0  0  0  0  0  0  0  0  0  0  0
   20.5223   16.7408   23.3072 H   0  0  0  0  0  0  0  0  0  0  0  0
   20.2557   16.0459   24.7785 H   0  0  0  0  0  0  0  0  0  0  0  0
   19.9153   18.1412   24.7784 C   0  0  0  0  0  0  0  0  0  0  0  0
   20.0361   18.2119   25.8629 H   0  0  0  0  0  0  0  0  0  0  0  0
   18.8497   18.0275   24.5638 H   0  0  0  0  0  0  0  0  0  0  0  0
   20.4469   19.4308   24.1200 C   0  0  0  0  0  0  0  0  0  0  0  0
   19.9170   20.2907   24.5511 H   0  0  0  0  0  0  0  0  0  0  0  0
   21.5044   19.5589   24.3868 H   0  0  0  0  0  0  0  0  0  0  0  0
   20.3017   19.4628   22.5775 C   0  0  0  0  0  0  0  0  0  0  0  0
   20.8902   18.6512   22.1295 H   0  0  0  0  0  0  0  0  0  0  0  0
   20.7455   20.3986   22.2138 H   0  0  0  0  0  0  0  0  0  0  0  0
   18.8297   19.3681   22.1013 C   0  0  0  0  0  0  0  0  0  0  0  0
   18.3776   18.4441   22.4849 H   0  0  0  0  0  0  0  0  0  0  0  0
   18.2484   20.1970   22.5283 H   0  0  0  0  0  0  0  0  0  0  0  0
   18.6793   19.3725   20.5605 C   0  0  0  0  0  0  0  0  0  0  0  0
   17.6257   19.1855   20.3096 H   0  0  0  0  0  0  0  0  0  0  0  0
   19.2501   18.5387   20.1285 H   0  0  0  0  0  0  0  0  0  0  0  0
   19.1179   20.7001   19.9015 C   0  0  0  0  0  0  0  0  0  0  0  0
   18.5849   21.5538   20.3399 H   0  0  0  0  0  0  0  0  0  0  0  0
   18.8995   20.6851   18.8259 H   0  0  0  0  0  0  0  0  0  0  0  0
   20.1953   20.8713   20.0157 H   0  0  0  0  0  0  0  0  0  0  0  0
  1  2  1  0  0  0  0
  1  3  1  0  0  0  0
  1  4  1  0  0  0  0
  1  5  1  0  0  0  0
  5  6  1  0  0  0  0
  5  7  1  0  0  0  0
  5  8  1  0  0  0  0
  8  9  1  0  0  0  0
  8 10  1  0  0  0  0
  8 11  1  0  0  0  0
 11 12  1  0  0  0  0
 11 13  1  0  0  0  0
 11 14  1  0  0  0  0
 14 15  1  0  0  0  0
 14 16  1  0  0  0  0
 14 17  1  0  0  0  0
 17 18  1  0  0  0  0
 17 19  1  0  0  0  0
 17 20  1  0  0  0  0
 20 21  1  0  0  0  0
 20 22  1  0  0  0  0
 20 23  1  0  0  0  0
M  END
> <VConfSearch Rank>
711

> <Conf_Id>
50

> <Delta U+W>
1.252

> <U+W>
-7.130

> <U>
48.727

> <W>
-55.857

> <W(PB)>
-57.937

> <W(SA)>
2.080

> <Valence>
2.671

> <Coulomb>
45.371

> <VdW>
0.684

> <VdW6>
-6.511

> <VdW12>
7.196

> <Bond>
0.203

> <Angle>
0.915

> <Pdih>
1.554

> <Idih>
0.000

> <Tether>
0.000

$$$$
VeraChem MOL file


 23 22  0  0  0  0  0  0  0  0999 V2000     
   17.7305   16.8159   23.5651 N   0  3  0  0  0  0  0  0  0  0  0  0
   17.2313   17.6838   23.7822 H   0  0  0  0  0  0  0  0  0  0  0  0
   17.4732   16.1339   24.2867 H   0  0  0  0  0  0  0  0  0  0  0  0
   17.3578   16.4658   22.6768 H   0  0  0  0  0  0  0  0  0  0  0  0
   19.2303   17.0298   23.5022 C   0  0  0  0  0  0  0  0  0  0  0  0
   19.6955   16.0593   23.3090 H   0  0  0  0  0  0  0  0  0  0  0  0
   19.5648   17.3783   24.4831 H   0  0  0  0  0  0  0  0  0  0  0  0
   19.6712   18.0322   22.4180 C   0  0  0  0  0  0  0  0  0  0  0  0
   20.7662   18.0343   22.3782 H   0  0  0  0  0  0  0  0  0  0  0  0
   19.3286   17.6805   21.4358 H   0  0  0  0  0  0  0  0  0  0  0  0
   19.1409   19.4652   22.6785 C   0  0  0  0  0  0  0  0  0  0  0  0
   19.3982   19.7892   23.6964 H   0  0  0  0  0  0  0  0  0  0  0  0
   18.0438   19.4446   22.6336 H   0  0  0  0  0  0  0  0  0  0  0  0
   19.6473   20.5059   21.6457 C   0  0  0  0  0  0  0  0  0  0  0  0
   19.8350   20.0223   20.6771 H   0  0  0  0  0  0  0  0  0  0  0  0
   18.8396   21.2284   21.4635 H   0  0  0  0  0  0  0  0  0  0  0  0
   20.8967   21.3075   22.0925 C   0  0  0  0  0  0  0  0  0  0  0  0
   20.6658   21.8690   23.0085 H   0  0  0  0  0  0  0  0  0  0  0  0
   21.1213   22.0599   21.3235 H   0  0  0  0  0  0  0  0  0  0  0  0
   22.1571   20.4456   22.3244 C   0  0  0  0  0  0  0  0  0  0  0  0
   22.3813   19.8270   21.4458 H   0  0  0  0  0  0  0  0  0  0  0  0
   22.0360   19.7883   23.1942 H   0  0  0  0  0  0  0  0  0  0  0  0
   23.0286   21.0848   22.5159 H   0  0  0  0  0  0  0  0  0  0  0  0
  1  2  1  0  0  0  0
  1  3  1  0  0  0  0
  1  4  1  0  0  0  0
  1  5  1  0  0  0  0
  5  6  1  0  0  0  0
  5  7  1  0  0  0  0
  5  8  1  0  0  0  0
  8  9  1  0  0  0  0
  8 10  1  0  0  0  0
  8 11  1  0  0  0  0
 11 12  1  0  0  0  0
 11 13  1  0  0  0  0
 11 14  1  0  0  0  0
 14 15  1  0  0  0  0
 14 16  1  0  0  0  0
 14 17  1  0  0  0  0
 17 18  1  0  0  0  0
 17 19  1  0  0  0  0
 17 20  1  0  0  0  0
 20 21  1  0  0  0  0
 20 22  1  0  0  0  0
 20 23  1  0  0  0  0
M  END
> <VConfSearch Rank>
712

> <Conf_Id>
55

> <Delta U+W>
3.232

> <U+W>
-5.150

> <U>
50.625

> <W>
-55.776

> <W(PB)>
-57.839

> <W(SA)>
2.064

> <Valence>
4.837

> <Coulomb>
45.097

> <VdW>
0.692

> <VdW6>
-6.655

> <VdW12>
7.347

> <Bond>
0.223

> <Angle>
1.167

> <Pdih>
3.447

> <Idih>
0.000

> <Tether>
0.000

$$$$
VeraChem MOL file


 23 22  0  0  0  0  0  0  0  0999 V2000     
   16.7848   19.5135   23.0737 N   0  3  0  0  0  0  0  0  0  0  0  0
   16.2830   19.1065   23.8695 H   0  0  0  0  0  0  0  0  0  0  0  0
   16.1296   19.5280   22.2847 H   0  0  0  0  0  0  0  0  0  0  0  0
   16.9863   20.4899   23.3120 H   0  0  0  0  0  0  0  0  0  0  0  0
   18.0453   18.7397   22.7449 C   0  0  0  0  0  0  0  0  0  0  0  0
   18.5040   19.2056   21.8709 H   0  0  0  0  0  0  0  0  0  0  0  0
   17.7533   17.7214   22.4742 H   0  0  0  0  0  0  0  0  0  0  0  0
   19.0470   18.6946   23.9154 C   0  0  0  0  0  0  0  0  0  0  0  0
   19.3142   19.7124   24.2294 H   0  0  0  0  0  0  0  0  0  0  0  0
   18.5466   18.2268   24.7738 H   0  0  0  0  0  0  0  0  0  0  0  0
   20.3270   17.8840   23.5897 C   0  0  0  0  0  0  0  0  0  0  0  0
   20.0726   17.0097   22.9745 H   0  0  0  0  0  0  0  0  0  0  0  0
   20.7235   17.4791   24.5312 H   0  0  0  0  0  0  0  0  0  0  0  0
   21.4630   18.6974   22.9163 C   0  0  0  0  0  0  0  0  0  0  0  0
   21.7808   19.5071   23.5875 H   0  0  0  0  0  0  0  0  0  0  0  0
   22.3341   18.0374   22.8021 H   0  0  0  0  0  0  0  0  0  0  0  0
   21.0995   19.2896   21.5351 C   0  0  0  0  0  0  0  0  0  0  0  0
   20.3351   20.0686   21.6517 H   0  0  0  0  0  0  0  0  0  0  0  0
   20.6725   18.5065   20.8931 H   0  0  0  0  0  0  0  0  0  0  0  0
   22.3309   19.9073   20.8387 C   0  0  0  0  0  0  0  0  0  0  0  0
   23.1082   19.1515   20.6661 H   0  0  0  0  0  0  0  0  0  0  0  0
   22.7653   20.7120   21.4462 H   0  0  0  0  0  0  0  0  0  0  0  0
   22.0531   20.3323   19.8654 H   0  0  0  0  0  0  0  0  0  0  0  0
  1  2  1  0  0  0  0
  1  3  1  0  0  0  0
  1  4  1  0  0  0  0
  1  5  1  0  0  0  0
  5  6  1  0  0  0  0
  5  7  1  0  0  0  0
  5  8  1  0  0  0  0
  8  9  1  0  0  0  0
  8 10  1  0  0  0  0
  8 11  1  0  0  0  0
 11 12  1  0  0  0  0
 11 13  1  0  0  0  0
 11 14  1  0  0  0  0
 14 15  1  0  0  0  0
 14 16  1  0  0  0  0
 14 17  1  0  0  0  0
 17 18  1  0  0  0  0
 17 19  1  0  0  0  0
 17 20  1  0  0  0  0
 20 21  1  0  0  0  0
 20 22  1  0  0  0  0
 20 23  1  0  0  0  0
M  END
> <VConfSearch Rank>
713

> <Conf_Id>
93

> <Delta U+W>
2.589

> <U+W>
-5.793

> <U>
50.122

> <W>
-55.915

> <W(PB)>
-58.031

> <W(SA)>
2.115

> <Valence>
4.132

> <Coulomb>
45.536

> <VdW>
0.454

> <VdW6>
-6.262

> <VdW12>
6.715

> <Bond>
0.182

> <Angle>
1.157

> <Pdih>
2.794

> <Idih>
0.000

> <Tether>
0.000

$$$$
VeraChem MOL file


 23 22  0  0  0  0  0  0  0  0999 V2000     
   17.9812   20.4938   20.4709 N   0  3  0  0  0  0  0  0  0  0  0  0
   18.6794   20.2703   19.7544 H   0  0  0  0  0  0  0  0  0  0  0  0
   17.9000   21.5158   20.4998 H   0  0  0  0  0  0  0  0  0  0  0  0
   17.0814   20.1332   20.1375 H   0  0  0  0  0  0  0  0  0  0  0  0
   18.3540   19.9199   21.8226 C   0  0  0  0  0  0  0  0  0  0  0  0
   17.5845   20.2203   22.5389 H   0  0  0  0  0  0  0  0  0  0  0  0
   19.2986   20.3735   22.1282 H   0  0  0  0  0  0  0  0  0  0  0  0
   18.4765   18.3835   21.8118 C   0  0  0  0  0  0  0  0  0  0  0  0
   17.5112   17.9675   21.4938 H   0  0  0  0  0  0  0  0  0  0  0  0
   19.2135   18.0640   21.0630 H   0  0  0  0  0  0  0  0  0  0  0  0
   18.8350   17.7921   23.1986 C   0  0  0  0  0  0  0  0  0  0  0  0
   18.4301   16.7718   23.2497 H   0  0  0  0  0  0  0  0  0  0  0  0
   18.3227   18.3546   23.9915 H   0  0  0  0  0  0  0  0  0  0  0  0
   20.3538   17.7073   23.5011 C   0  0  0  0  0  0  0  0  0  0  0  0
   20.4812   17.2103   24.4728 H   0  0  0  0  0  0  0  0  0  0  0  0
   20.8386   17.0562   22.7606 H   0  0  0  0  0  0  0  0  0  0  0  0
   21.0804   19.0716   23.5378 C   0  0  0  0  0  0  0  0  0  0  0  0
   20.5353   19.7682   24.1899 H   0  0  0  0  0  0  0  0  0  0  0  0
   21.0989   19.5125   22.5327 H   0  0  0  0  0  0  0  0  0  0  0  0
   22.5328   18.9296   24.0409 C   0  0  0  0  0  0  0  0  0  0  0  0
   23.0368   19.9047   24.0502 H   0  0  0  0  0  0  0  0  0  0  0  0
   23.1108   18.2577   23.3930 H   0  0  0  0  0  0  0  0  0  0  0  0
   22.5601   18.5272   25.0620 H   0  0  0  0  0  0  0  0  0  0  0  0
  1  2  1  0  0  0  0
  1  3  1  0  0  0  0
  1  4  1  0  0  0  0
  1  5  1  0  0  0  0
  5  6  1  0  0  0  0
  5  7  1  0  0  0  0
  5  8  1  0  0  0  0
  8  9  1  0  0  0  0
  8 10  1  0  0  0  0
  8 11  1  0  0  0  0
 11 12  1  0  0  0  0
 11 13  1  0  0  0  0
 11 14  1  0  0  0  0
 14 15  1  0  0  0  0
 14 16  1  0  0  0  0
 14 17  1  0  0  0  0
 17 18  1  0  0  0  0
 17 19  1  0  0  0  0
 17 20  1  0  0  0  0
 20 21  1  0  0  0  0
 20 22  1  0  0  0  0
 20 23  1  0  0  0  0
M  END
> <VConfSearch Rank>
714

> <Conf_Id>
70

> <Delta U+W>
2.599

> <U+W>
-5.783

> <U>
50.122

> <W>
-55.906

> <W(PB)>
-58.010

> <W(SA)>
2.105

> <Valence>
4.132

> <Coulomb>
45.536

> <VdW>
0.454

> <VdW6>
-6.262

> <VdW12>
6.715

> <Bond>
0.182

> <Angle>
1.157

> <Pdih>
2.794

> <Idih>
0.000

> <Tether>
0.000

$$$$
VeraChem MOL file


 23 22  0  0  0  0  0  0  0  0999 V2000     
   19.6065   20.1108   25.1891 N   0  3  0  0  0  0  0  0  0  0  0  0
   19.0073   20.9059   25.4327 H   0  0  0  0  0  0  0  0  0  0  0  0
   20.2374   19.9573   25.9829 H   0  0  0  0  0  0  0  0  0  0  0  0
   19.0024   19.2863   25.1203 H   0  0  0  0  0  0  0  0  0  0  0  0
   20.3691   20.3545   23.9017 C   0  0  0  0  0  0  0  0  0  0  0  0
   21.0106   19.4887   23.7178 H   0  0  0  0  0  0  0  0  0  0  0  0
   21.0109   21.2264   24.0547 H   0  0  0  0  0  0  0  0  0  0  0  0
   19.4589   20.5963   22.6807 C   0  0  0  0  0  0  0  0  0  0  0  0
   18.8442   21.4879   22.8622 H   0  0  0  0  0  0  0  0  0  0  0  0
   20.0865   20.8378   21.8134 H   0  0  0  0  0  0  0  0  0  0  0  0
   18.5326   19.3998   22.3382 C   0  0  0  0  0  0  0  0  0  0  0  0
   17.9547   19.6463   21.4369 H   0  0  0  0  0  0  0  0  0  0  0  0
   17.7923   19.2741   23.1396 H   0  0  0  0  0  0  0  0  0  0  0  0
   19.2640   18.0504   22.1167 C   0  0  0  0  0  0  0  0  0  0  0  0
   19.7712   17.7404   23.0400 H   0  0  0  0  0  0  0  0  0  0  0  0
   18.5101   17.2776   21.9119 H   0  0  0  0  0  0  0  0  0  0  0  0
   20.2795   18.0821   20.9503 C   0  0  0  0  0  0  0  0  0  0  0  0
   21.0829   18.7988   21.1668 H   0  0  0  0  0  0  0  0  0  0  0  0
   19.7815   18.4287   20.0340 H   0  0  0  0  0  0  0  0  0  0  0  0
   20.9025   16.6923   20.6999 C   0  0  0  0  0  0  0  0  0  0  0  0
   21.6218   16.7334   19.8717 H   0  0  0  0  0  0  0  0  0  0  0  0
   20.1319   15.9548   20.4401 H   0  0  0  0  0  0  0  0  0  0  0  0
   21.4342   16.3321   21.5903 H   0  0  0  0  0  0  0  0  0  0  0  0
  1  2  1  0  0  0  0
  1  3  1  0  0  0  0
  1  4  1  0  0  0  0
  1  5  1  0  0  0  0
  5  6  1  0  0  0  0
  5  7  1  0  0  0  0
  5  8  1  0  0  0  0
  8  9  1  0  0  0  0
  8 10  1  0  0  0  0
  8 11  1  0  0  0  0
 11 12  1  0  0  0  0
 11 13  1  0  0  0  0
 11 14  1  0  0  0  0
 14 15  1  0  0  0  0
 14 16  1  0  0  0  0
 14 17  1  0  0  0  0
 17 18  1  0  0  0  0
 17 19  1  0  0  0  0
 17 20  1  0  0  0  0
 20 21  1  0  0  0  0
 20 22  1  0  0  0  0
 20 23  1  0  0  0  0
M  END
> <VConfSearch Rank>
715

> <Conf_Id>
72

> <Delta U+W>
1.051

> <U+W>
-7.331

> <U>
48.590

> <W>
-55.922

> <W(PB)>
-58.012

> <W(SA)>
2.090

> <Valence>
2.601

> <Coulomb>
45.520

> <VdW>
0.469

> <VdW6>
-6.867

> <VdW12>
7.336

> <Bond>
0.205

> <Angle>
0.962

> <Pdih>
1.434

> <Idih>
0.000

> <Tether>
0.000

$$$$
VeraChem MOL file


 23 22  0  0  0  0  0  0  0  0999 V2000     
   18.1692   21.0479   24.3394 N   0  3  0  0  0  0  0  0  0  0  0  0
   18.5075   21.8626   24.8628 H   0  0  0  0  0  0  0  0  0  0  0  0
   17.3776   20.6640   24.8654 H   0  0  0  0  0  0  0  0  0  0  0  0
   17.7991   21.3977   23.4499 H   0  0  0  0  0  0  0  0  0  0  0  0
   19.2619   20.0189   24.1321 C   0  0  0  0  0  0  0  0  0  0  0  0
   19.6286   19.7124   25.1154 H   0  0  0  0  0  0  0  0  0  0  0  0
   20.0815   20.5029   23.5945 H   0  0  0  0  0  0  0  0  0  0  0  0
   18.7857   18.7818   23.3482 C   0  0  0  0  0  0  0  0  0  0  0  0
   17.9387   18.3253   23.8773 H   0  0  0  0  0  0  0  0  0  0  0  0
   18.4053   19.0897   22.3659 H   0  0  0  0  0  0  0  0  0  0  0  0
   19.8988   17.7187   23.1757 C   0  0  0  0  0  0  0  0  0  0  0  0
   19.4908   16.8568   22.6310 H   0  0  0  0  0  0  0  0  0  0  0  0
   20.1804   17.3360   24.1664 H   0  0  0  0  0  0  0  0  0  0  0  0
   21.1793   18.2264   22.4592 C   0  0  0  0  0  0  0  0  0  0  0  0
   21.6771   18.9759   23.0892 H   0  0  0  0  0  0  0  0  0  0  0  0
   21.8893   17.3920   22.3774 H   0  0  0  0  0  0  0  0  0  0  0  0
   20.9513   18.8285   21.0493 C   0  0  0  0  0  0  0  0  0  0  0  0
   21.9194   19.1623   20.6505 H   0  0  0  0  0  0  0  0  0  0  0  0
   20.3276   19.7299   21.1175 H   0  0  0  0  0  0  0  0  0  0  0  0
   20.3199   17.8311   20.0518 C   0  0  0  0  0  0  0  0  0  0  0  0
   20.9203   16.9153   19.9764 H   0  0  0  0  0  0  0  0  0  0  0  0
   20.2583   18.2758   19.0502 H   0  0  0  0  0  0  0  0  0  0  0  0
   19.3025   17.5513   20.3522 H   0  0  0  0  0  0  0  0  0  0  0  0
  1  2  1  0  0  0  0
  1  3  1  0  0  0  0
  1  4  1  0  0  0  0
  1  5  1  0  0  0  0
  5  6  1  0  0  0  0
  5  7  1  0  0  0  0
  5  8  1  0  0  0  0
  8  9  1  0  0  0  0
  8 10  1  0  0  0  0
  8 11  1  0  0  0  0
 11 12  1  0  0  0  0
 11 13  1  0  0  0  0
 11 14  1  0  0  0  0
 14 15  1  0  0  0  0
 14 16  1  0  0  0  0
 14 17  1  0  0  0  0
 17 18  1  0  0  0  0
 17 19  1  0  0  0  0
 17 20  1  0  0  0  0
 20 21  1  0  0  0  0
 20 22  1  0  0  0  0
 20 23  1  0  0  0  0
M  END
> <VConfSearch Rank>
716

> <Conf_Id>
26

> <Delta U+W>
1.076

> <U+W>
-7.306

> <U>
48.641

> <W>
-55.947

> <W(PB)>
-58.031

> <W(SA)>
2.084

> <Valence>
2.922

> <Coulomb>
45.269

> <VdW>
0.449

> <VdW6>
-7.045

> <VdW12>
7.494

> <Bond>
0.220

> <Angle>
1.205

> <Pdih>
1.497

> <Idih>
0.000

> <Tether>
0.000

$$$$
VeraChem MOL file


 23 22  0  0  0  0  0  0  0  0999 V2000     
   17.5889   17.5877   24.3160 N   0  3  0  0  0  0  0  0  0  0  0  0
   16.6323   17.9015   24.1231 H   0  0  0  0  0  0  0  0  0  0  0  0
   17.6067   17.2688   25.2907 H   0  0  0  0  0  0  0  0  0  0  0  0
   17.7602   16.7645   23.7299 H   0  0  0  0  0  0  0  0  0  0  0  0
   18.6045   18.6833   24.0636 C   0  0  0  0  0  0  0  0  0  0  0  0
   19.5925   18.2904   24.3172 H   0  0  0  0  0  0  0  0  0  0  0  0
   18.3806   19.5139   24.7384 H   0  0  0  0  0  0  0  0  0  0  0  0
   18.6031   19.1844   22.6073 C   0  0  0  0  0  0  0  0  0  0  0  0
   18.8149   18.3488   21.9281 H   0  0  0  0  0  0  0  0  0  0  0  0
   17.5970   19.5421   22.3514 H   0  0  0  0  0  0  0  0  0  0  0  0
   19.6169   20.3309   22.3689 C   0  0  0  0  0  0  0  0  0  0  0  0
   19.3159   21.2009   22.9687 H   0  0  0  0  0  0  0  0  0  0  0  0
   19.5509   20.6566   21.3222 H   0  0  0  0  0  0  0  0  0  0  0  0
   21.0900   19.9797   22.7112 C   0  0  0  0  0  0  0  0  0  0  0  0
   21.7189   20.8532   22.4904 H   0  0  0  0  0  0  0  0  0  0  0  0
   21.1840   19.8152   23.7930 H   0  0  0  0  0  0  0  0  0  0  0  0
   21.6649   18.7488   21.9651 C   0  0  0  0  0  0  0  0  0  0  0  0
   21.1173   17.8410   22.2518 H   0  0  0  0  0  0  0  0  0  0  0  0
   22.7011   18.5916   22.2956 H   0  0  0  0  0  0  0  0  0  0  0  0
   21.6513   18.9027   20.4274 C   0  0  0  0  0  0  0  0  0  0  0  0
   20.6273   18.9534   20.0371 H   0  0  0  0  0  0  0  0  0  0  0  0
   22.1448   18.0460   19.9506 H   0  0  0  0  0  0  0  0  0  0  0  0
   22.1829   19.8117   20.1174 H   0  0  0  0  0  0  0  0  0  0  0  0
  1  2  1  0  0  0  0
  1  3  1  0  0  0  0
  1  4  1  0  0  0  0
  1  5  1  0  0  0  0
  5  6  1  0  0  0  0
  5  7  1  0  0  0  0
  5  8  1  0  0  0  0
  8  9  1  0  0  0  0
  8 10  1  0  0  0  0
  8 11  1  0  0  0  0
 11 12  1  0  0  0  0
 11 13  1  0  0  0  0
 11 14  1  0  0  0  0
 14 15  1  0  0  0  0
 14 16  1  0  0  0  0
 14 17  1  0  0  0  0
 17 18  1  0  0  0  0
 17 19  1  0  0  0  0
 17 20  1  0  0  0  0
 20 21  1  0  0  0  0
 20 22  1  0  0  0  0
 20 23  1  0  0  0  0
M  END
> <VConfSearch Rank>
717

> <Conf_Id>
90

> <Delta U+W>
1.131

> <U+W>
-7.251

> <U>
48.641

> <W>
-55.892

> <W(PB)>
-57.962

> <W(SA)>
2.070

> <Valence>
2.922

> <Coulomb>
45.269

> <VdW>
0.450

> <VdW6>
-7.045

> <VdW12>
7.495

> <Bond>
0.220

> <Angle>
1.205

> <Pdih>
1.497

> <Idih>
0.000

> <Tether>
0.000

$$$$
VeraChem MOL file


 23 22  0  0  0  0  0  0  0  0999 V2000     
   19.8734   21.2421   21.2813 N   0  3  0  0  0  0  0  0  0  0  0  0
   19.9393   21.5389   20.3018 H   0  0  0  0  0  0  0  0  0  0  0  0
   20.6659   20.6181   21.4611 H   0  0  0  0  0  0  0  0  0  0  0  0
   20.0090   22.0791   21.8572 H   0  0  0  0  0  0  0  0  0  0  0  0
   18.5500   20.5640   21.5767 C   0  0  0  0  0  0  0  0  0  0  0  0
   18.4548   19.7022   20.9111 H   0  0  0  0  0  0  0  0  0  0  0  0
   17.7520   21.2705   21.3325 H   0  0  0  0  0  0  0  0  0  0  0  0
   18.4002   20.1096   23.0429 C   0  0  0  0  0  0  0  0  0  0  0  0
   18.4501   20.9888   23.6989 H   0  0  0  0  0  0  0  0  0  0  0  0
   17.3972   19.6836   23.1787 H   0  0  0  0  0  0  0  0  0  0  0  0
   19.4608   19.0736   23.4927 C   0  0  0  0  0  0  0  0  0  0  0  0
   19.2818   18.8251   24.5479 H   0  0  0  0  0  0  0  0  0  0  0  0
   20.4582   19.5291   23.4508 H   0  0  0  0  0  0  0  0  0  0  0  0
   19.4319   17.7718   22.6524 C   0  0  0  0  0  0  0  0  0  0  0  0
   18.4062   17.3780   22.6371 H   0  0  0  0  0  0  0  0  0  0  0  0
   19.6959   17.9884   21.6087 H   0  0  0  0  0  0  0  0  0  0  0  0
   20.3734   16.6700   23.1955 C   0  0  0  0  0  0  0  0  0  0  0  0
   20.2149   15.7518   22.6127 H   0  0  0  0  0  0  0  0  0  0  0  0
   20.1021   16.4263   24.2322 H   0  0  0  0  0  0  0  0  0  0  0  0
   21.8694   17.0524   23.1255 C   0  0  0  0  0  0  0  0  0  0  0  0
   22.1598   17.3262   22.1029 H   0  0  0  0  0  0  0  0  0  0  0  0
   22.4965   16.2070   23.4370 H   0  0  0  0  0  0  0  0  0  0  0  0
   22.1016   17.8959   23.7873 H   0  0  0  0  0  0  0  0  0  0  0  0
  1  2  1  0  0  0  0
  1  3  1  0  0  0  0
  1  4  1  0  0  0  0
  1  5  1  0  0  0  0
  5  6  1  0  0  0  0
  5  7  1  0  0  0  0
  5  8  1  0  0  0  0
  8  9  1  0  0  0  0
  8 10  1  0  0  0  0
  8 11  1  0  0  0  0
 11 12  1  0  0  0  0
 11 13  1  0  0  0  0
 11 14  1  0  0  0  0
 14 15  1  0  0  0  0
 14 16  1  0  0  0  0
 14 17  1  0  0  0  0
 17 18  1  0  0  0  0
 17 19  1  0  0  0  0
 17 20  1  0  0  0  0
 20 21  1  0  0  0  0
 20 22  1  0  0  0  0
 20 23  1  0  0  0  0
M  END
> <VConfSearch Rank>
718

> <Conf_Id>
85

> <Delta U+W>
1.193

> <U+W>
-7.189

> <U>
48.775

> <W>
-55.965

> <W(PB)>
-58.038

> <W(SA)>
2.073

> <Valence>
2.602

> <Coulomb>
45.581

> <VdW>
0.592

> <VdW6>
-6.616

> <VdW12>
7.208

> <Bond>
0.196

> <Angle>
0.832

> <Pdih>
1.574

> <Idih>
0.000

> <Tether>
0.000

$$$$
VeraChem MOL file


 23 22  0  0  0  0  0  0  0  0999 V2000     
   18.1828   17.5533   22.6634 N   0  3  0  0  0  0  0  0  0  0  0  0
   19.1727   17.5675   22.9291 H   0  0  0  0  0  0  0  0  0  0  0  0
   18.0088   16.6696   22.1724 H   0  0  0  0  0  0  0  0  0  0  0  0
   17.6340   17.5271   23.5289 H   0  0  0  0  0  0  0  0  0  0  0  0
   17.8239   18.7528   21.8078 C   0  0  0  0  0  0  0  0  0  0  0  0
   16.7604   18.6675   21.5685 H   0  0  0  0  0  0  0  0  0  0  0  0
   18.3874   18.6974   20.8727 H   0  0  0  0  0  0  0  0  0  0  0  0
   18.0781   20.1108   22.4933 C   0  0  0  0  0  0  0  0  0  0  0  0
   17.4447   20.8585   21.9978 H   0  0  0  0  0  0  0  0  0  0  0  0
   17.7332   20.0710   23.5351 H   0  0  0  0  0  0  0  0  0  0  0  0
   19.5441   20.6182   22.4347 C   0  0  0  0  0  0  0  0  0  0  0  0
   19.5673   21.6103   22.9067 H   0  0  0  0  0  0  0  0  0  0  0  0
   19.8423   20.7835   21.3900 H   0  0  0  0  0  0  0  0  0  0  0  0
   20.5855   19.7213   23.1518 C   0  0  0  0  0  0  0  0  0  0  0  0
   21.3433   20.3686   23.6150 H   0  0  0  0  0  0  0  0  0  0  0  0
   20.1124   19.1802   23.9819 H   0  0  0  0  0  0  0  0  0  0  0  0
   21.3142   18.7477   22.1935 C   0  0  0  0  0  0  0  0  0  0  0  0
   21.9136   19.3263   21.4766 H   0  0  0  0  0  0  0  0  0  0  0  0
   20.5982   18.1733   21.5938 H   0  0  0  0  0  0  0  0  0  0  0  0
   22.2380   17.7775   22.9597 C   0  0  0  0  0  0  0  0  0  0  0  0
   23.0004   18.3261   23.5281 H   0  0  0  0  0  0  0  0  0  0  0  0
   22.7569   17.1056   22.2637 H   0  0  0  0  0  0  0  0  0  0  0  0
   21.6685   17.1576   23.6642 H   0  0  0  0  0  0  0  0  0  0  0  0
  1  2  1  0  0  0  0
  1  3  1  0  0  0  0
  1  4  1  0  0  0  0
  1  5  1  0  0  0  0
  5  6  1  0  0  0  0
  5  7  1  0  0  0  0
  5  8  1  0  0  0  0
  8  9  1  0  0  0  0
  8 10  1  0  0  0  0
  8 11  1  0  0  0  0
 11 12  1  0  0  0  0
 11 13  1  0  0  0  0
 11 14  1  0  0  0  0
 14 15  1  0  0  0  0
 14 16  1  0  0  0  0
 14 17  1  0  0  0  0
 17 18  1  0  0  0  0
 17 19  1  0  0  0  0
 17 20  1  0  0  0  0
 20 21  1  0  0  0  0
 20 22  1  0  0  0  0
 20 23  1  0  0  0  0
M  END
> <VConfSearch Rank>
719

> <Conf_Id>
82

> <Delta U+W>
5.994

> <U+W>
-2.388

> <U>
52.836

> <W>
-55.224

> <W(PB)>
-57.261

> <W(SA)>
2.037

> <Valence>
5.785

> <Coulomb>
46.744

> <VdW>
0.307

> <VdW6>
-7.672

> <VdW12>
7.979

> <Bond>
0.217

> <Angle>
1.470

> <Pdih>
4.098

> <Idih>
0.000

> <Tether>
0.000

$$$$
VeraChem MOL file


 23 22  0  0  0  0  0  0  0  0999 V2000     
   20.1930   20.8084   21.6342 N   0  3  0  0  0  0  0  0  0  0  0  0
   20.2682   20.8124   20.6118 H   0  0  0  0  0  0  0  0  0  0  0  0
   20.0049   21.7743   21.9239 H   0  0  0  0  0  0  0  0  0  0  0  0
   19.3697   20.2486   21.8783 H   0  0  0  0  0  0  0  0  0  0  0  0
   21.4470   20.2591   22.2866 C   0  0  0  0  0  0  0  0  0  0  0  0
   21.3405   20.3375   23.3718 H   0  0  0  0  0  0  0  0  0  0  0  0
   22.2751   20.9037   21.9796 H   0  0  0  0  0  0  0  0  0  0  0  0
   21.7710   18.8028   21.8956 C   0  0  0  0  0  0  0  0  0  0  0  0
   21.6229   18.6667   20.8160 H   0  0  0  0  0  0  0  0  0  0  0  0
   22.8425   18.6404   22.0725 H   0  0  0  0  0  0  0  0  0  0  0  0
   20.9908   17.7162   22.6834 C   0  0  0  0  0  0  0  0  0  0  0  0
   21.2453   17.7717   23.7510 H   0  0  0  0  0  0  0  0  0  0  0  0
   21.3586   16.7376   22.3448 H   0  0  0  0  0  0  0  0  0  0  0  0
   19.4517   17.7403   22.4993 C   0  0  0  0  0  0  0  0  0  0  0  0
   19.1943   18.1448   21.5114 H   0  0  0  0  0  0  0  0  0  0  0  0
   19.0842   16.7046   22.4993 H   0  0  0  0  0  0  0  0  0  0  0  0
   18.7150   18.5056   23.6256 C   0  0  0  0  0  0  0  0  0  0  0  0
   19.1426   19.5049   23.7698 H   0  0  0  0  0  0  0  0  0  0  0  0
   18.8583   17.9751   24.5775 H   0  0  0  0  0  0  0  0  0  0  0  0
   17.2040   18.6299   23.3372 C   0  0  0  0  0  0  0  0  0  0  0  0
   17.0198   19.1844   22.4080 H   0  0  0  0  0  0  0  0  0  0  0  0
   16.6963   19.1614   24.1527 H   0  0  0  0  0  0  0  0  0  0  0  0
   16.7389   17.6400   23.2410 H   0  0  0  0  0  0  0  0  0  0  0  0
  1  2  1  0  0  0  0
  1  3  1  0  0  0  0
  1  4  1  0  0  0  0
  1  5  1  0  0  0  0
  5  6  1  0  0  0  0
  5  7  1  0  0  0  0
  5  8  1  0  0  0  0
  8  9  1  0  0  0  0
  8 10  1  0  0  0  0
  8 11  1  0  0  0  0
 11 12  1  0  0  0  0
 11 13  1  0  0  0  0
 11 14  1  0  0  0  0
 14 15  1  0  0  0  0
 14 16  1  0  0  0  0
 14 17  1  0  0  0  0
 17 18  1  0  0  0  0
 17 19  1  0  0  0  0
 17 20  1  0  0  0  0
 20 21  1  0  0  0  0
 20 22  1  0  0  0  0
 20 23  1  0  0  0  0
M  END
> <VConfSearch Rank>
720

> <Conf_Id>
5

> <Delta U+W>
6.087

> <U+W>
-2.295

> <U>
52.836

> <W>
-55.131

> <W(PB)>
-57.202

> <W(SA)>
2.071

> <Valence>
5.785

> <Coulomb>
46.744

> <VdW>
0.307

> <VdW6>
-7.672

> <VdW12>
7.980

> <Bond>
0.217

> <Angle>
1.470

> <Pdih>
4.098

> <Idih>
0.000

> <Tether>
0.000

$$$$
VeraChem MOL file


 23 22  0  0  0  0  0  0  0  0999 V2000     
   16.0228   18.4827   23.2613 N   0  3  0  0  0  0  0  0  0  0  0  0
   16.1330   17.9489   24.1295 H   0  0  0  0  0  0  0  0  0  0  0  0
   15.1874   18.1177   22.7912 H   0  0  0  0  0  0  0  0  0  0  0  0
   15.8159   19.4510   23.5268 H   0  0  0  0  0  0  0  0  0  0  0  0
   17.2513   18.3882   22.3794 C   0  0  0  0  0  0  0  0  0  0  0  0
   17.0537   18.9524   21.4639 H   0  0  0  0  0  0  0  0  0  0  0  0
   17.3946   17.3379   22.1116 H   0  0  0  0  0  0  0  0  0  0  0  0
   18.5235   18.9285   23.0564 C   0  0  0  0  0  0  0  0  0  0  0  0
   18.3692   19.9787   23.3381 H   0  0  0  0  0  0  0  0  0  0  0  0
   18.7088   18.3699   23.9836 H   0  0  0  0  0  0  0  0  0  0  0  0
   19.7512   18.8142   22.1259 C   0  0  0  0  0  0  0  0  0  0  0  0
   19.5598   19.3699   21.1972 H   0  0  0  0  0  0  0  0  0  0  0  0
   19.8991   17.7628   21.8421 H   0  0  0  0  0  0  0  0  0  0  0  0
   21.0351   19.3542   22.7960 C   0  0  0  0  0  0  0  0  0  0  0  0
   20.8875   20.4055   23.0797 H   0  0  0  0  0  0  0  0  0  0  0  0
   21.2267   18.7987   23.7246 H   0  0  0  0  0  0  0  0  0  0  0  0
   22.2628   19.2397   21.8652 C   0  0  0  0  0  0  0  0  0  0  0  0
   22.0771   19.7960   20.9357 H   0  0  0  0  0  0  0  0  0  0  0  0
   22.4162   18.1893   21.5806 H   0  0  0  0  0  0  0  0  0  0  0  0
   23.5429   19.7799   22.5378 C   0  0  0  0  0  0  0  0  0  0  0  0
   24.4032   19.6902   21.8619 H   0  0  0  0  0  0  0  0  0  0  0  0
   23.7741   19.2200   23.4534 H   0  0  0  0  0  0  0  0  0  0  0  0
   23.4323   20.8393   22.8035 H   0  0  0  0  0  0  0  0  0  0  0  0
  1  2  1  0  0  0  0
  1  3  1  0  0  0  0
  1  4  1  0  0  0  0
  1  5  1  0  0  0  0
  5  6  1  0  0  0  0
  5  7  1  0  0  0  0
  5  8  1  0  0  0  0
  8  9  1  0  0  0  0
  8 10  1  0  0  0  0
  8 11  1  0  0  0  0
 11 12  1  0  0  0  0
 11 13  1  0  0  0  0
 11 14  1  0  0  0  0
 14 15  1  0  0  0  0
 14 16  1  0  0  0  0
 14 17  1  0  0  0  0
 17 18  1  0  0  0  0
 17 19  1  0  0  0  0
 17 20  1  0  0  0  0
 20 21  1  0  0  0  0
 20 22  1  0  0  0  0
 20 23  1  0  0  0  0
M  END
> <VConfSearch Rank>
721

> <Conf_Id>
40

> <Delta U+W>
0.000

> <U+W>
-8.382

> <U>
46.604

> <W>
-54.986

> <W(PB)>
-57.162

> <W(SA)>
2.176

> <Valence>
1.727

> <Coulomb>
44.434

> <VdW>
0.443

> <VdW6>
-4.623

> <VdW12>
5.066

> <Bond>
0.112

> <Angle>
0.386

> <Pdih>
1.228

> <Idih>
0.000

> <Tether>
0.000

$$$$
VeraChem MOL file


 23 22  0  0  0  0  0  0  0  0999 V2000     
   20.9604   16.7408   25.0912 N   0  3  0  0  0  0  0  0  0  0  0  0
   21.3005   15.8802   24.6499 H   0  0  0  0  0  0  0  0  0  0  0  0
   20.0507   16.5249   25.5115 H   0  0  0  0  0  0  0  0  0  0  0  0
   21.6021   16.9536   25.8625 H   0  0  0  0  0  0  0  0  0  0  0  0
   20.8692   17.8853   24.1025 C   0  0  0  0  0  0  0  0  0  0  0  0
   21.8738   18.0793   23.7172 H   0  0  0  0  0  0  0  0  0  0  0  0
   20.5320   18.7713   24.6463 H   0  0  0  0  0  0  0  0  0  0  0  0
   19.9120   17.5954   22.9307 C   0  0  0  0  0  0  0  0  0  0  0  0
   20.2359   16.6768   22.4237 H   0  0  0  0  0  0  0  0  0  0  0  0
   18.9025   17.4016   23.3170 H   0  0  0  0  0  0  0  0  0  0  0  0
   19.8616   18.7462   21.8979 C   0  0  0  0  0  0  0  0  0  0  0  0
   19.2527   18.4165   21.0461 H   0  0  0  0  0  0  0  0  0  0  0  0
   20.8714   18.9312   21.5061 H   0  0  0  0  0  0  0  0  0  0  0  0
   19.2764   20.0590   22.4781 C   0  0  0  0  0  0  0  0  0  0  0  0
   18.2588   19.8781   22.8508 H   0  0  0  0  0  0  0  0  0  0  0  0
   19.8713   20.3748   23.3452 H   0  0  0  0  0  0  0  0  0  0  0  0
   19.2530   21.2255   21.4606 C   0  0  0  0  0  0  0  0  0  0  0  0
   20.2704   21.4179   21.0920 H   0  0  0  0  0  0  0  0  0  0  0  0
   18.9372   22.1403   21.9814 H   0  0  0  0  0  0  0  0  0  0  0  0
   18.3037   20.9825   20.2651 C   0  0  0  0  0  0  0  0  0  0  0  0
   18.6490   20.1520   19.6372 H   0  0  0  0  0  0  0  0  0  0  0  0
   18.2511   21.8757   19.6292 H   0  0  0  0  0  0  0  0  0  0  0  0
   17.2862   20.7551   20.6085 H   0  0  0  0  0  0  0  0  0  0  0  0
  1  2  1  0  0  0  0
  1  3  1  0  0  0  0
  1  4  1  0  0  0  0
  1  5  1  0  0  0  0
  5  6  1  0  0  0  0
  5  7  1  0  0  0  0
  5  8  1  0  0  0  0
  8  9  1  0  0  0  0
  8 10  1  0  0  0  0
  8 11  1  0  0  0  0
 11 12  1  0  0  0  0
 11 13  1  0  0  0  0
 11 14  1  0  0  0  0
 14 15  1  0  0  0  0
 14 16  1  0  0  0  0
 14 17  1  0  0  0  0
 17 18  1  0  0  0  0
 17 19  1  0  0  0  0
 17 20  1  0  0  0  0
 20 21  1  0  0  0  0
 20 22  1  0  0  0  0
 20 23  1  0  0  0  0
M  END
> <VConfSearch Rank>
722

> <Conf_Id>
65

> <Delta U+W>
1.004

> <U+W>
-7.378

> <U>
48.047

> <W>
-55.425

> <W(PB)>
-57.542

> <W(SA)>
2.116

> <Valence>
2.583

> <Coulomb>
44.791

> <VdW>
0.673

> <VdW6>
-5.788

> <VdW12>
6.462

> <Bond>
0.177

> <Angle>
0.787

> <Pdih>
1.619

> <Idih>
0.000

> <Tether>
0.000

$$$$
VeraChem MOL file


 23 22  0  0  0  0  0  0  0  0999 V2000     
   18.1916   19.4107   25.7960 N   0  3  0  0  0  0  0  0  0  0  0  0
   18.8973   19.4919   26.5351 H   0  0  0  0  0  0  0  0  0  0  0  0
   17.4263   18.8435   26.1761 H   0  0  0  0  0  0  0  0  0  0  0  0
   17.8145   20.3502   25.6348 H   0  0  0  0  0  0  0  0  0  0  0  0
   18.7653   18.8068   24.5303 C   0  0  0  0  0  0  0  0  0  0  0  0
   17.9545   18.7225   23.8024 H   0  0  0  0  0  0  0  0  0  0  0  0
   19.1210   17.8006   24.7677 H   0  0  0  0  0  0  0  0  0  0  0  0
   19.9184   19.6368   23.9347 C   0  0  0  0  0  0  0  0  0  0  0  0
   19.5614   20.6472   23.6950 H   0  0  0  0  0  0  0  0  0  0  0  0
   20.7039   19.7530   24.6933 H   0  0  0  0  0  0  0  0  0  0  0  0
   20.5340   18.9894   22.6716 C   0  0  0  0  0  0  0  0  0  0  0  0
   20.8991   17.9825   22.9169 H   0  0  0  0  0  0  0  0  0  0  0  0
   21.4138   19.5770   22.3789 H   0  0  0  0  0  0  0  0  0  0  0  0
   19.5420   18.9116   21.4831 C   0  0  0  0  0  0  0  0  0  0  0  0
   18.6513   18.3448   21.7844 H   0  0  0  0  0  0  0  0  0  0  0  0
   19.1932   19.9210   21.2248 H   0  0  0  0  0  0  0  0  0  0  0  0
   20.1395   18.2350   20.2254 C   0  0  0  0  0  0  0  0  0  0  0  0
   19.3425   18.1153   19.4782 H   0  0  0  0  0  0  0  0  0  0  0  0
   20.4806   17.2207   20.4754 H   0  0  0  0  0  0  0  0  0  0  0  0
   21.3006   19.0324   19.5886 C   0  0  0  0  0  0  0  0  0  0  0  0
   22.1742   19.0724   20.2508 H   0  0  0  0  0  0  0  0  0  0  0  0
   20.9943   20.0613   19.3595 H   0  0  0  0  0  0  0  0  0  0  0  0
   21.6205   18.5611   18.6503 H   0  0  0  0  0  0  0  0  0  0  0  0
  1  2  1  0  0  0  0
  1  3  1  0  0  0  0
  1  4  1  0  0  0  0
  1  5  1  0  0  0  0
  5  6  1  0  0  0  0
  5  7  1  0  0  0  0
  5  8  1  0  0  0  0
  8  9  1  0  0  0  0
  8 10  1  0  0  0  0
  8 11  1  0  0  0  0
 11 12  1  0  0  0  0
 11 13  1  0  0  0  0
 11 14  1  0  0  0  0
 14 15  1  0  0  0  0
 14 16  1  0  0  0  0
 14 17  1  0  0  0  0
 17 18  1  0  0  0  0
 17 19  1  0  0  0  0
 17 20  1  0  0  0  0
 20 21  1  0  0  0  0
 20 22  1  0  0  0  0
 20 23  1  0  0  0  0
M  END
> <VConfSearch Rank>
723

> <Conf_Id>
92

> <Delta U+W>
0.973

> <U+W>
-7.409

> <U>
48.047

> <W>
-55.456

> <W(PB)>
-57.595

> <W(SA)>
2.138

> <Valence>
2.583

> <Coulomb>
44.791

> <VdW>
0.674

> <VdW6>
-5.789

> <VdW12>
6.462

> <Bond>
0.177

> <Angle>
0.787

> <Pdih>
1.619

> <Idih>
0.000

> <Tether>
0.000

$$$$
VeraChem MOL file


 23 22  0  0  0  0  0  0  0  0999 V2000     
   22.4407   18.7939   20.3219 N   0  3  0  0  0  0  0  0  0  0  0  0
   23.0655   19.5938   20.1744 H   0  0  0  0  0  0  0  0  0  0  0  0
   22.2292   18.4068   19.3966 H   0  0  0  0  0  0  0  0  0  0  0  0
   22.9795   18.0846   20.8294 H   0  0  0  0  0  0  0  0  0  0  0  0
   21.1840   19.1913   21.0693 C   0  0  0  0  0  0  0  0  0  0  0  0
   20.6768   19.9664   20.4886 H   0  0  0  0  0  0  0  0  0  0  0  0
   21.4859   19.6213   22.0277 H   0  0  0  0  0  0  0  0  0  0  0  0
   20.2240   18.0102   21.3065 C   0  0  0  0  0  0  0  0  0  0  0  0
   19.9639   17.5596   20.3394 H   0  0  0  0  0  0  0  0  0  0  0  0
   20.7338   17.2312   21.8891 H   0  0  0  0  0  0  0  0  0  0  0  0
   18.9232   18.4326   22.0294 C   0  0  0  0  0  0  0  0  0  0  0  0
   18.2512   17.5647   22.0808 H   0  0  0  0  0  0  0  0  0  0  0  0
   18.4024   19.1934   21.4316 H   0  0  0  0  0  0  0  0  0  0  0  0
   19.1696   18.9705   23.4596 C   0  0  0  0  0  0  0  0  0  0  0  0
   19.7196   18.2203   24.0445 H   0  0  0  0  0  0  0  0  0  0  0  0
   19.8008   19.8683   23.4197 H   0  0  0  0  0  0  0  0  0  0  0  0
   17.8463   19.3138   24.1792 C   0  0  0  0  0  0  0  0  0  0  0  0
   17.2095   18.4196   24.2325 H   0  0  0  0  0  0  0  0  0  0  0  0
   17.2915   20.0636   23.5978 H   0  0  0  0  0  0  0  0  0  0  0  0
   18.0932   19.8515   25.6049 C   0  0  0  0  0  0  0  0  0  0  0  0
   18.6175   19.1096   26.2213 H   0  0  0  0  0  0  0  0  0  0  0  0
   17.1425   20.0891   26.0996 H   0  0  0  0  0  0  0  0  0  0  0  0
   18.6990   20.7668   25.5823 H   0  0  0  0  0  0  0  0  0  0  0  0
  1  2  1  0  0  0  0
  1  3  1  0  0  0  0
  1  4  1  0  0  0  0
  1  5  1  0  0  0  0
  5  6  1  0  0  0  0
  5  7  1  0  0  0  0
  5  8  1  0  0  0  0
  8  9  1  0  0  0  0
  8 10  1  0  0  0  0
  8 11  1  0  0  0  0
 11 12  1  0  0  0  0
 11 13  1  0  0  0  0
 11 14  1  0  0  0  0
 14 15  1  0  0  0  0
 14 16  1  0  0  0  0
 14 17  1  0  0  0  0
 17 18  1  0  0  0  0
 17 19  1  0  0  0  0
 17 20  1  0  0  0  0
 20 21  1  0  0  0  0
 20 22  1  0  0  0  0
 20 23  1  0  0  0  0
M  END
> <VConfSearch Rank>
724

> <Conf_Id>
42

> <Delta U+W>
0.365

> <U+W>
-8.017

> <U>
47.375

> <W>
-55.392

> <W(PB)>
-57.543

> <W(SA)>
2.152

> <Valence>
2.032

> <Coulomb>
44.843

> <VdW>
0.499

> <VdW6>
-5.218

> <VdW12>
5.717

> <Bond>
0.135

> <Angle>
0.514

> <Pdih>
1.383

> <Idih>
0.000

> <Tether>
0.000

$$$$
VeraChem MOL file


 23 22  0  0  0  0  0  0  0  0999 V2000     
   16.9930   17.9388   23.7848 N   0  3  0  0  0  0  0  0  0  0  0  0
   16.8182   17.3273   22.9810 H   0  0  0  0  0  0  0  0  0  0  0  0
   16.1003   18.0457   24.2785 H   0  0  0  0  0  0  0  0  0  0  0  0
   17.6251   17.4367   24.4155 H   0  0  0  0  0  0  0  0  0  0  0  0
   17.5652   19.2776   23.3610 C   0  0  0  0  0  0  0  0  0  0  0  0
   17.7049   19.8872   24.2578 H   0  0  0  0  0  0  0  0  0  0  0  0
   16.8212   19.7689   22.7281 H   0  0  0  0  0  0  0  0  0  0  0  0
   18.8971   19.1715   22.5928 C   0  0  0  0  0  0  0  0  0  0  0  0
   18.7610   18.5363   21.7075 H   0  0  0  0  0  0  0  0  0  0  0  0
   19.1559   20.1741   22.2309 H   0  0  0  0  0  0  0  0  0  0  0  0
   20.0516   18.6267   23.4686 C   0  0  0  0  0  0  0  0  0  0  0  0
   19.7510   17.6700   23.9155 H   0  0  0  0  0  0  0  0  0  0  0  0
   20.2271   19.3141   24.3078 H   0  0  0  0  0  0  0  0  0  0  0  0
   21.3813   18.3983   22.7040 C   0  0  0  0  0  0  0  0  0  0  0  0
   22.1023   17.9729   23.4158 H   0  0  0  0  0  0  0  0  0  0  0  0
   21.2444   17.6313   21.9293 H   0  0  0  0  0  0  0  0  0  0  0  0
   22.0085   19.6760   22.0889 C   0  0  0  0  0  0  0  0  0  0  0  0
   23.1024   19.6005   22.1650 H   0  0  0  0  0  0  0  0  0  0  0  0
   21.7260   20.5613   22.6755 H   0  0  0  0  0  0  0  0  0  0  0  0
   21.6484   19.8803   20.5987 C   0  0  0  0  0  0  0  0  0  0  0  0
   21.9951   19.0332   19.9926 H   0  0  0  0  0  0  0  0  0  0  0  0
   22.1287   20.7868   20.2084 H   0  0  0  0  0  0  0  0  0  0  0  0
   20.5687   19.9844   20.4451 H   0  0  0  0  0  0  0  0  0  0  0  0
  1  2  1  0  0  0  0
  1  3  1  0  0  0  0
  1  4  1  0  0  0  0
  1  5  1  0  0  0  0
  5  6  1  0  0  0  0
  5  7  1  0  0  0  0
  5  8  1  0  0  0  0
  8  9  1  0  0  0  0
  8 10  1  0  0  0  0
  8 11  1  0  0  0  0
 11 12  1  0  0  0  0
 11 13  1  0  0  0  0
 11 14  1  0  0  0  0
 14 15  1  0  0  0  0
 14 16  1  0  0  0  0
 14 17  1  0  0  0  0
 17 18  1  0  0  0  0
 17 19  1  0  0  0  0
 17 20  1  0  0  0  0
 20 21  1  0  0  0  0
 20 22  1  0  0  0  0
 20 23  1  0  0  0  0
M  END
> <VConfSearch Rank>
725

> <Conf_Id>
3

> <Delta U+W>
3.283

> <U+W>
-5.099

> <U>
50.701

> <W>
-55.800

> <W(PB)>
-57.867

> <W(SA)>
2.067

> <Valence>
4.880

> <Coulomb>
45.095

> <VdW>
0.726

> <VdW6>
-6.620

> <VdW12>
7.346

> <Bond>
0.222

> <Angle>
1.260

> <Pdih>
3.398

> <Idih>
0.000

> <Tether>
0.000

$$$$
VeraChem MOL file


 23 22  0  0  0  0  0  0  0  0999 V2000     
   18.5452   17.7816   24.8716 N   0  3  0  0  0  0  0  0  0  0  0  0
   18.4555   18.3966   25.6867 H   0  0  0  0  0  0  0  0  0  0  0  0
   18.1097   16.8875   25.1219 H   0  0  0  0  0  0  0  0  0  0  0  0
   17.9822   18.1905   24.1197 H   0  0  0  0  0  0  0  0  0  0  0  0
   19.9923   17.6065   24.4551 C   0  0  0  0  0  0  0  0  0  0  0  0
   20.0200   16.9195   23.6055 H   0  0  0  0  0  0  0  0  0  0  0  0
   20.5234   17.1365   25.2873 H   0  0  0  0  0  0  0  0  0  0  0  0
   20.6946   18.9282   24.0821 C   0  0  0  0  0  0  0  0  0  0  0  0
   20.7048   19.5880   24.9599 H   0  0  0  0  0  0  0  0  0  0  0  0
   21.7461   18.7147   23.8484 H   0  0  0  0  0  0  0  0  0  0  0  0
   20.0482   19.6760   22.8885 C   0  0  0  0  0  0  0  0  0  0  0  0
   20.5976   20.6142   22.7377 H   0  0  0  0  0  0  0  0  0  0  0  0
   19.0183   19.9620   23.1397 H   0  0  0  0  0  0  0  0  0  0  0  0
   20.0586   18.8528   21.5752 C   0  0  0  0  0  0  0  0  0  0  0  0
   21.0923   18.5911   21.3105 H   0  0  0  0  0  0  0  0  0  0  0  0
   19.5302   17.9033   21.7319 H   0  0  0  0  0  0  0  0  0  0  0  0
   19.3904   19.5833   20.3850 C   0  0  0  0  0  0  0  0  0  0  0  0
   18.3523   19.8381   20.6401 H   0  0  0  0  0  0  0  0  0  0  0  0
   19.3360   18.8909   19.5333 H   0  0  0  0  0  0  0  0  0  0  0  0
   20.1447   20.8574   19.9410 C   0  0  0  0  0  0  0  0  0  0  0  0
   21.1950   20.6350   19.7120 H   0  0  0  0  0  0  0  0  0  0  0  0
   20.1180   21.6335   20.7157 H   0  0  0  0  0  0  0  0  0  0  0  0
   19.6866   21.2791   19.0370 H   0  0  0  0  0  0  0  0  0  0  0  0
  1  2  1  0  0  0  0
  1  3  1  0  0  0  0
  1  4  1  0  0  0  0
  1  5  1  0  0  0  0
  5  6  1  0  0  0  0
  5  7  1  0  0  0  0
  5  8  1  0  0  0  0
  8  9  1  0  0  0  0
  8 10  1  0  0  0  0
  8 11  1  0  0  0  0
 11 12  1  0  0  0  0
 11 13  1  0  0  0  0
 11 14  1  0  0  0  0
 14 15  1  0  0  0  0
 14 16  1  0  0  0  0
 14 17  1  0  0  0  0
 17 18  1  0  0  0  0
 17 19  1  0  0  0  0
 17 20  1  0  0  0  0
 20 21  1  0  0  0  0
 20 22  1  0  0  0  0
 20 23  1  0  0  0  0
M  END
> <VConfSearch Rank>
726

> <Conf_Id>
83

> <Delta U+W>
1.229

> <U+W>
-7.154

> <U>
48.727

> <W>
-55.880

> <W(PB)>
-57.960

> <W(SA)>
2.080

> <Valence>
2.671

> <Coulomb>
45.371

> <VdW>
0.684

> <VdW6>
-6.511

> <VdW12>
7.195

> <Bond>
0.203

> <Angle>
0.915

> <Pdih>
1.554

> <Idih>
0.000

> <Tether>
0.000

$$$$
VeraChem MOL file


 23 22  0  0  0  0  0  0  0  0999 V2000     
   17.5285   18.2861   20.8120 N   0  3  0  0  0  0  0  0  0  0  0  0
   17.5734   18.7373   19.8928 H   0  0  0  0  0  0  0  0  0  0  0  0
   17.4177   19.0285   21.5092 H   0  0  0  0  0  0  0  0  0  0  0  0
   16.6694   17.7263   20.8290 H   0  0  0  0  0  0  0  0  0  0  0  0
   18.7572   17.4411   21.0850 C   0  0  0  0  0  0  0  0  0  0  0  0
   18.7936   16.6528   20.3282 H   0  0  0  0  0  0  0  0  0  0  0  0
   18.6323   16.9665   22.0616 H   0  0  0  0  0  0  0  0  0  0  0  0
   20.0772   18.2386   21.0560 C   0  0  0  0  0  0  0  0  0  0  0  0
   20.9128   17.5424   21.2080 H   0  0  0  0  0  0  0  0  0  0  0  0
   20.2147   18.6664   20.0541 H   0  0  0  0  0  0  0  0  0  0  0  0
   20.1583   19.3712   22.1107 C   0  0  0  0  0  0  0  0  0  0  0  0
   19.3726   20.1147   21.9223 H   0  0  0  0  0  0  0  0  0  0  0  0
   21.1134   19.8948   21.9741 H   0  0  0  0  0  0  0  0  0  0  0  0
   20.0541   18.8556   23.5687 C   0  0  0  0  0  0  0  0  0  0  0  0
   19.1100   18.3107   23.6997 H   0  0  0  0  0  0  0  0  0  0  0  0
   20.8579   18.1325   23.7641 H   0  0  0  0  0  0  0  0  0  0  0  0
   20.1075   19.9846   24.6265 C   0  0  0  0  0  0  0  0  0  0  0  0
   19.9107   19.5488   25.6161 H   0  0  0  0  0  0  0  0  0  0  0  0
   19.2987   20.7056   24.4425 H   0  0  0  0  0  0  0  0  0  0  0  0
   21.4639   20.7246   24.6713 C   0  0  0  0  0  0  0  0  0  0  0  0
   22.2930   20.0209   24.8213 H   0  0  0  0  0  0  0  0  0  0  0  0
   21.4811   21.4444   25.4999 H   0  0  0  0  0  0  0  0  0  0  0  0
   21.6499   21.2838   23.7462 H   0  0  0  0  0  0  0  0  0  0  0  0
  1  2  1  0  0  0  0
  1  3  1  0  0  0  0
  1  4  1  0  0  0  0
  1  5  1  0  0  0  0
  5  6  1  0  0  0  0
  5  7  1  0  0  0  0
  5  8  1  0  0  0  0
  8  9  1  0  0  0  0
  8 10  1  0  0  0  0
  8 11  1  0  0  0  0
 11 12  1  0  0  0  0
 11 13  1  0  0  0  0
 11 14  1  0  0  0  0
 14 15  1  0  0  0  0
 14 16  1  0  0  0  0
 14 17  1  0  0  0  0
 17 18  1  0  0  0  0
 17 19  1  0  0  0  0
 17 20  1  0  0  0  0
 20 21  1  0  0  0  0
 20 22  1  0  0  0  0
 20 23  1  0  0  0  0
M  END
> <VConfSearch Rank>
727

> <Conf_Id>
50

> <Delta U+W>
1.252

> <U+W>
-7.130

> <U>
48.727

> <W>
-55.857

> <W(PB)>
-57.937

> <W(SA)>
2.080

> <Valence>
2.671

> <Coulomb>
45.371

> <VdW>
0.684

> <VdW6>
-6.511

> <VdW12>
7.196

> <Bond>
0.203

> <Angle>
0.915

> <Pdih>
1.554

> <Idih>
0.000

> <Tether>
0.000

$$$$
VeraChem MOL file


 23 22  0  0  0  0  0  0  0  0999 V2000     
   21.5907   21.6552   22.3183 N   0  3  0  0  0  0  0  0  0  0  0  0
   22.0197   21.1844   23.1207 H   0  0  0  0  0  0  0  0  0  0  0  0
   21.6747   22.6641   22.4829 H   0  0  0  0  0  0  0  0  0  0  0  0
   22.1641   21.4378   21.4970 H   0  0  0  0  0  0  0  0  0  0  0  0
   20.1467   21.2349   22.1251 C   0  0  0  0  0  0  0  0  0  0  0  0
   19.7456   21.8049   21.2826 H   0  0  0  0  0  0  0  0  0  0  0  0
   19.5886   21.5156   23.0224 H   0  0  0  0  0  0  0  0  0  0  0  0
   19.9678   19.7286   21.8537 C   0  0  0  0  0  0  0  0  0  0  0  0
   18.9129   19.5453   21.6205 H   0  0  0  0  0  0  0  0  0  0  0  0
   20.5341   19.4506   20.9549 H   0  0  0  0  0  0  0  0  0  0  0  0
   20.4136   18.8492   23.0498 C   0  0  0  0  0  0  0  0  0  0  0  0
   19.9220   19.1828   23.9741 H   0  0  0  0  0  0  0  0  0  0  0  0
   21.4905   18.9954   23.2077 H   0  0  0  0  0  0  0  0  0  0  0  0
   20.1587   17.3351   22.8289 C   0  0  0  0  0  0  0  0  0  0  0  0
   20.2073   17.0920   21.7585 H   0  0  0  0  0  0  0  0  0  0  0  0
   20.9824   16.7776   23.2961 H   0  0  0  0  0  0  0  0  0  0  0  0
   18.8347   16.8053   23.4367 C   0  0  0  0  0  0  0  0  0  0  0  0
   18.8401   16.9619   24.5244 H   0  0  0  0  0  0  0  0  0  0  0  0
   18.7932   15.7174   23.2867 H   0  0  0  0  0  0  0  0  0  0  0  0
   17.5601   17.4366   22.8350 C   0  0  0  0  0  0  0  0  0  0  0  0
   17.5527   17.3484   21.7409 H   0  0  0  0  0  0  0  0  0  0  0  0
   17.4767   18.4974   23.1016 H   0  0  0  0  0  0  0  0  0  0  0  0
   16.6643   16.9313   23.2185 H   0  0  0  0  0  0  0  0  0  0  0  0
  1  2  1  0  0  0  0
  1  3  1  0  0  0  0
  1  4  1  0  0  0  0
  1  5  1  0  0  0  0
  5  6  1  0  0  0  0
  5  7  1  0  0  0  0
  5  8  1  0  0  0  0
  8  9  1  0  0  0  0
  8 10  1  0  0  0  0
  8 11  1  0  0  0  0
 11 12  1  0  0  0  0
 11 13  1  0  0  0  0
 11 14  1  0  0  0  0
 14 15  1  0  0  0  0
 14 16  1  0  0  0  0
 14 17  1  0  0  0  0
 17 18  1  0  0  0  0
 17 19  1  0  0  0  0
 17 20  1  0  0  0  0
 20 21  1  0  0  0  0
 20 22  1  0  0  0  0
 20 23  1  0  0  0  0
M  END
> <VConfSearch Rank>
728

> <Conf_Id>
55

> <Delta U+W>
3.232

> <U+W>
-5.150

> <U>
50.625

> <W>
-55.776

> <W(PB)>
-57.839

> <W(SA)>
2.064

> <Valence>
4.837

> <Coulomb>
45.097

> <VdW>
0.692

> <VdW6>
-6.655

> <VdW12>
7.347

> <Bond>
0.223

> <Angle>
1.167

> <Pdih>
3.447

> <Idih>
0.000

> <Tether>
0.000

$$$$
VeraChem MOL file


 23 22  0  0  0  0  0  0  0  0999 V2000     
   19.1683   21.9649   21.7545 N   0  3  0  0  0  0  0  0  0  0  0  0
   18.2778   22.4113   21.9965 H   0  0  0  0  0  0  0  0  0  0  0  0
   19.4364   22.3179   20.8296 H   0  0  0  0  0  0  0  0  0  0  0  0
   19.8684   22.3092   22.4194 H   0  0  0  0  0  0  0  0  0  0  0  0
   19.0660   20.4534   21.7726 C   0  0  0  0  0  0  0  0  0  0  0  0
   20.0346   20.0501   21.4716 H   0  0  0  0  0  0  0  0  0  0  0  0
   18.3263   20.1577   21.0236 H   0  0  0  0  0  0  0  0  0  0  0  0
   18.6574   19.8937   23.1494 C   0  0  0  0  0  0  0  0  0  0  0  0
   19.3666   20.2215   23.9210 H   0  0  0  0  0  0  0  0  0  0  0  0
   17.6848   20.3273   23.4179 H   0  0  0  0  0  0  0  0  0  0  0  0
   18.5294   18.3494   23.1646 C   0  0  0  0  0  0  0  0  0  0  0  0
   18.1020   17.9977   22.2152 H   0  0  0  0  0  0  0  0  0  0  0  0
   17.7992   18.0749   23.9384 H   0  0  0  0  0  0  0  0  0  0  0  0
   19.8444   17.5867   23.4721 C   0  0  0  0  0  0  0  0  0  0  0  0
   20.2067   17.8696   24.4701 H   0  0  0  0  0  0  0  0  0  0  0  0
   19.6125   16.5140   23.5255 H   0  0  0  0  0  0  0  0  0  0  0  0
   20.9721   17.8038   22.4369 C   0  0  0  0  0  0  0  0  0  0  0  0
   21.3256   18.8421   22.4813 H   0  0  0  0  0  0  0  0  0  0  0  0
   20.5862   17.6334   21.4221 H   0  0  0  0  0  0  0  0  0  0  0  0
   22.1693   16.8639   22.6937 C   0  0  0  0  0  0  0  0  0  0  0  0
   21.8682   15.8107   22.6198 H   0  0  0  0  0  0  0  0  0  0  0  0
   22.5932   17.0290   23.6929 H   0  0  0  0  0  0  0  0  0  0  0  0
   22.9643   17.0387   21.9573 H   0  0  0  0  0  0  0  0  0  0  0  0
  1  2  1  0  0  0  0
  1  3  1  0  0  0  0
  1  4  1  0  0  0  0
  1  5  1  0  0  0  0
  5  6  1  0  0  0  0
  5  7  1  0  0  0  0
  5  8  1  0  0  0  0
  8  9  1  0  0  0  0
  8 10  1  0  0  0  0
  8 11  1  0  0  0  0
 11 12  1  0  0  0  0
 11 13  1  0  0  0  0
 11 14  1  0  0  0  0
 14 15  1  0  0  0  0
 14 16  1  0  0  0  0
 14 17  1  0  0  0  0
 17 18  1  0  0  0  0
 17 19  1  0  0  0  0
 17 20  1  0  0  0  0
 20 21  1  0  0  0  0
 20 22  1  0  0  0  0
 20 23  1  0  0  0  0
M  END
> <VConfSearch Rank>
729

> <Conf_Id>
93

> <Delta U+W>
2.589

> <U+W>
-5.793

> <U>
50.122

> <W>
-55.915

> <W(PB)>
-58.031

> <W(SA)>
2.115

> <Valence>
4.132

> <Coulomb>
45.536

> <VdW>
0.454

> <VdW6>
-6.262

> <VdW12>
6.715

> <Bond>
0.182

> <Angle>
1.157

> <Pdih>
2.794

> <Idih>
0.000

> <Tether>
0.000

$$$$
VeraChem MOL file


 23 22  0  0  0  0  0  0  0  0999 V2000     
   20.7825   21.8901   22.2386 N   0  3  0  0  0  0  0  0  0  0  0  0
   19.8308   22.2472   22.3706 H   0  0  0  0  0  0  0  0  0  0  0  0
   21.1013   22.2222   21.3221 H   0  0  0  0  0  0  0  0  0  0  0  0
   21.3747   22.3438   22.9418 H   0  0  0  0  0  0  0  0  0  0  0  0
   20.8395   20.3796   22.3414 C   0  0  0  0  0  0  0  0  0  0  0  0
   21.8726   20.0694   22.1626 H   0  0  0  0  0  0  0  0  0  0  0  0
   20.2180   19.9676   21.5444 H   0  0  0  0  0  0  0  0  0  0  0  0
   20.3726   19.8510   23.7120 C   0  0  0  0  0  0  0  0  0  0  0  0
   21.0164   20.2927   24.4843 H   0  0  0  0  0  0  0  0  0  0  0  0
   19.3517   20.1939   23.9263 H   0  0  0  0  0  0  0  0  0  0  0  0
   20.4519   18.3077   23.8279 C   0  0  0  0  0  0  0  0  0  0  0  0
   20.5987   18.0519   24.8864 H   0  0  0  0  0  0  0  0  0  0  0  0
   21.3451   17.9365   23.3063 H   0  0  0  0  0  0  0  0  0  0  0  0
   19.1925   17.5489   23.3345 C   0  0  0  0  0  0  0  0  0  0  0  0
   19.3396   16.4781   23.5326 H   0  0  0  0  0  0  0  0  0  0  0  0
   18.3237   17.8526   23.9348 H   0  0  0  0  0  0  0  0  0  0  0  0
   18.8713   17.7407   21.8344 C   0  0  0  0  0  0  0  0  0  0  0  0
   19.7702   17.5492   21.2320 H   0  0  0  0  0  0  0  0  0  0  0  0
   18.5680   18.7789   21.6467 H   0  0  0  0  0  0  0  0  0  0  0  0
   17.7355   16.8037   21.3711 C   0  0  0  0  0  0  0  0  0  0  0  0
   17.5131   16.9607   20.3076 H   0  0  0  0  0  0  0  0  0  0  0  0
   16.8144   16.9895   21.9389 H   0  0  0  0  0  0  0  0  0  0  0  0
   18.0129   15.7499   21.5046 H   0  0  0  0  0  0  0  0  0  0  0  0
  1  2  1  0  0  0  0
  1  3  1  0  0  0  0
  1  4  1  0  0  0  0
  1  5  1  0  0  0  0
  5  6  1  0  0  0  0
  5  7  1  0  0  0  0
  5  8  1  0  0  0  0
  8  9  1  0  0  0  0
  8 10  1  0  0  0  0
  8 11  1  0  0  0  0
 11 12  1  0  0  0  0
 11 13  1  0  0  0  0
 11 14  1  0  0  0  0
 14 15  1  0  0  0  0
 14 16  1  0  0  0  0
 14 17  1  0  0  0  0
 17 18  1  0  0  0  0
 17 19  1  0  0  0  0
 17 20  1  0  0  0  0
 20 21  1  0  0  0  0
 20 22  1  0  0  0  0
 20 23  1  0  0  0  0
M  END
> <VConfSearch Rank>
730

> <Conf_Id>
70

> <Delta U+W>
2.599

> <U+W>
-5.783

> <U>
50.122

> <W>
-55.906

> <W(PB)>
-58.010

> <W(SA)>
2.105

> <Valence>
4.132

> <Coulomb>
45.536

> <VdW>
0.454

> <VdW6>
-6.262

> <VdW12>
6.715

> <Bond>
0.182

> <Angle>
1.157

> <Pdih>
2.794

> <Idih>
0.000

> <Tether>
0.000

$$$$
VeraChem MOL file


 23 22  0  0  0  0  0  0  0  0999 V2000     
   18.7049   17.4413   20.4722 N   0  3  0  0  0  0  0  0  0  0  0  0
   17.7064   17.2376   20.3627 H   0  0  0  0  0  0  0  0  0  0  0  0
   19.2084   16.8286   19.8220 H   0  0  0  0  0  0  0  0  0  0  0  0
   18.8540   18.4041   20.1556 H   0  0  0  0  0  0  0  0  0  0  0  0
   19.1655   17.2453   21.9031 C   0  0  0  0  0  0  0  0  0  0  0  0
   20.2395   17.4447   21.9445 H   0  0  0  0  0  0  0  0  0  0  0  0
   19.0047   16.1957   22.1640 H   0  0  0  0  0  0  0  0  0  0  0  0
   18.4301   18.1439   22.9176 C   0  0  0  0  0  0  0  0  0  0  0  0
   17.3573   17.9108   22.8920 H   0  0  0  0  0  0  0  0  0  0  0  0
   18.7677   17.8857   23.9294 H   0  0  0  0  0  0  0  0  0  0  0  0
   18.6274   19.6632   22.6730 C   0  0  0  0  0  0  0  0  0  0  0  0
   18.1040   20.2197   23.4626 H   0  0  0  0  0  0  0  0  0  0  0  0
   18.1329   19.9459   21.7339 H   0  0  0  0  0  0  0  0  0  0  0  0
   20.1054   20.1296   22.6203 C   0  0  0  0  0  0  0  0  0  0  0  0
   20.6211   19.6534   21.7759 H   0  0  0  0  0  0  0  0  0  0  0  0
   20.1206   21.2088   22.4141 H   0  0  0  0  0  0  0  0  0  0  0  0
   20.8862   19.8575   23.9276 C   0  0  0  0  0  0  0  0  0  0  0  0
   20.9446   18.7773   24.1162 H   0  0  0  0  0  0  0  0  0  0  0  0
   20.3509   20.3013   24.7787 H   0  0  0  0  0  0  0  0  0  0  0  0
   22.3171   20.4331   23.8663 C   0  0  0  0  0  0  0  0  0  0  0  0
   22.8572   20.2291   24.7999 H   0  0  0  0  0  0  0  0  0  0  0  0
   22.2995   21.5208   23.7185 H   0  0  0  0  0  0  0  0  0  0  0  0
   22.8875   19.9851   23.0422 H   0  0  0  0  0  0  0  0  0  0  0  0
  1  2  1  0  0  0  0
  1  3  1  0  0  0  0
  1  4  1  0  0  0  0
  1  5  1  0  0  0  0
  5  6  1  0  0  0  0
  5  7  1  0  0  0  0
  5  8  1  0  0  0  0
  8  9  1  0  0  0  0
  8 10  1  0  0  0  0
  8 11  1  0  0  0  0
 11 12  1  0  0  0  0
 11 13  1  0  0  0  0
 11 14  1  0  0  0  0
 14 15  1  0  0  0  0
 14 16  1  0  0  0  0
 14 17  1  0  0  0  0
 17 18  1  0  0  0  0
 17 19  1  0  0  0  0
 17 20  1  0  0  0  0
 20 21  1  0  0  0  0
 20 22  1  0  0  0  0
 20 23  1  0  0  0  0
M  END
> <VConfSearch Rank>
731

> <Conf_Id>
72

> <Delta U+W>
1.051

> <U+W>
-7.331

> <U>
48.590

> <W>
-55.922

> <W(PB)>
-58.012

> <W(SA)>
2.090

> <Valence>
2.601

> <Coulomb>
45.520

> <VdW>
0.469

> <VdW6>
-6.867

> <VdW12>
7.336

> <Bond>
0.205

> <Angle>
0.962

> <Pdih>
1.434

> <Idih>
0.000

> <Tether>
0.000

$$$$
VeraChem MOL file


 23 22  0  0  0  0  0  0  0  0999 V2000     
   18.8598   16.8001   20.5304 N   0  3  0  0  0  0  0  0  0  0  0  0
   18.1827   16.8635   19.7626 H   0  0  0  0  0  0  0  0  0  0  0  0
   18.8087   15.8430   20.8939 H   0  0  0  0  0  0  0  0  0  0  0  0
   19.7907   16.9166   20.1175 H   0  0  0  0  0  0  0  0  0  0  0  0
   18.5862   17.8291   21.6083 C   0  0  0  0  0  0  0  0  0  0  0  0
   17.5720   17.6653   21.9825 H   0  0  0  0  0  0  0  0  0  0  0  0
   18.6268   18.8188   21.1460 H   0  0  0  0  0  0  0  0  0  0  0  0
   19.5867   17.7604   22.7771 C   0  0  0  0  0  0  0  0  0  0  0  0
   19.5647   16.7515   23.2100 H   0  0  0  0  0  0  0  0  0  0  0  0
   20.6065   17.9118   22.4008 H   0  0  0  0  0  0  0  0  0  0  0  0
   19.2752   18.7896   23.8919 C   0  0  0  0  0  0  0  0  0  0  0  0
   20.0077   18.6743   24.7018 H   0  0  0  0  0  0  0  0  0  0  0  0
   18.3009   18.5457   24.3375 H   0  0  0  0  0  0  0  0  0  0  0  0
   19.2483   20.2696   23.4232 C   0  0  0  0  0  0  0  0  0  0  0  0
   18.4058   20.4190   22.7346 H   0  0  0  0  0  0  0  0  0  0  0  0
   19.0359   20.9083   24.2916 H   0  0  0  0  0  0  0  0  0  0  0  0
   20.5475   20.7691   22.7415 C   0  0  0  0  0  0  0  0  0  0  0  0
   20.4060   21.8175   22.4440 H   0  0  0  0  0  0  0  0  0  0  0  0
   20.7256   20.2142   21.8107 H   0  0  0  0  0  0  0  0  0  0  0  0
   21.7928   20.6744   23.6520 C   0  0  0  0  0  0  0  0  0  0  0  0
   21.6332   21.2121   24.5955 H   0  0  0  0  0  0  0  0  0  0  0  0
   22.6662   21.1175   23.1564 H   0  0  0  0  0  0  0  0  0  0  0  0
   22.0403   19.6320   23.8880 H   0  0  0  0  0  0  0  0  0  0  0  0
  1  2  1  0  0  0  0
  1  3  1  0  0  0  0
  1  4  1  0  0  0  0
  1  5  1  0  0  0  0
  5  6  1  0  0  0  0
  5  7  1  0  0  0  0
  5  8  1  0  0  0  0
  8  9  1  0  0  0  0
  8 10  1  0  0  0  0
  8 11  1  0  0  0  0
 11 12  1  0  0  0  0
 11 13  1  0  0  0  0
 11 14  1  0  0  0  0
 14 15  1  0  0  0  0
 14 16  1  0  0  0  0
 14 17  1  0  0  0  0
 17 18  1  0  0  0  0
 17 19  1  0  0  0  0
 17 20  1  0  0  0  0
 20 21  1  0  0  0  0
 20 22  1  0  0  0  0
 20 23  1  0  0  0  0
M  END
> <VConfSearch Rank>
732

> <Conf_Id>
26

> <Delta U+W>
1.076

> <U+W>
-7.306

> <U>
48.641

> <W>
-55.947

> <W(PB)>
-58.031

> <W(SA)>
2.084

> <Valence>
2.922

> <Coulomb>
45.269

> <VdW>
0.449

> <VdW6>
-7.045

> <VdW12>
7.494

> <Bond>
0.220

> <Angle>
1.205

> <Pdih>
1.497

> <Idih>
0.000

> <Tether>
0.000

$$$$
VeraChem MOL file


 23 22  0  0  0  0  0  0  0  0999 V2000     
   22.3784   20.6955   22.0271 N   0  3  0  0  0  0  0  0  0  0  0  0
   22.6850   21.2991   22.7969 H   0  0  0  0  0  0  0  0  0  0  0  0
   22.6872   21.1425   21.1572 H   0  0  0  0  0  0  0  0  0  0  0  0
   22.8961   19.8148   22.1099 H   0  0  0  0  0  0  0  0  0  0  0  0
   20.8796   20.4746   22.0451 C   0  0  0  0  0  0  0  0  0  0  0  0
   20.6215   19.8514   21.1849 H   0  0  0  0  0  0  0  0  0  0  0  0
   20.3931   21.4463   21.9246 H   0  0  0  0  0  0  0  0  0  0  0  0
   20.3833   19.8040   23.3397 C   0  0  0  0  0  0  0  0  0  0  0  0
   20.8806   18.8342   23.4684 H   0  0  0  0  0  0  0  0  0  0  0  0
   20.6801   20.4191   24.1995 H   0  0  0  0  0  0  0  0  0  0  0  0
   18.8458   19.6183   23.3650 C   0  0  0  0  0  0  0  0  0  0  0  0
   18.3688   20.6081   23.3572 H   0  0  0  0  0  0  0  0  0  0  0  0
   18.5554   19.1579   24.3188 H   0  0  0  0  0  0  0  0  0  0  0  0
   18.2710   18.7828   22.1893 C   0  0  0  0  0  0  0  0  0  0  0  0
   17.1826   18.7020   22.3160 H   0  0  0  0  0  0  0  0  0  0  0  0
   18.4181   19.3286   21.2476 H   0  0  0  0  0  0  0  0  0  0  0  0
   18.8638   17.3584   22.0408 C   0  0  0  0  0  0  0  0  0  0  0  0
   19.9355   17.4154   21.8079 H   0  0  0  0  0  0  0  0  0  0  0  0
   18.3935   16.8720   21.1749 H   0  0  0  0  0  0  0  0  0  0  0  0
   18.6471   16.4714   23.2878 C   0  0  0  0  0  0  0  0  0  0  0  0
   19.1914   16.8600   24.1574 H   0  0  0  0  0  0  0  0  0  0  0  0
   19.0068   15.4513   23.1013 H   0  0  0  0  0  0  0  0  0  0  0  0
   17.5824   16.4099   23.5477 H   0  0  0  0  0  0  0  0  0  0  0  0
  1  2  1  0  0  0  0
  1  3  1  0  0  0  0
  1  4  1  0  0  0  0
  1  5  1  0  0  0  0
  5  6  1  0  0  0  0
  5  7  1  0  0  0  0
  5  8  1  0  0  0  0
  8  9  1  0  0  0  0
  8 10  1  0  0  0  0
  8 11  1  0  0  0  0
 11 12  1  0  0  0  0
 11 13  1  0  0  0  0
 11 14  1  0  0  0  0
 14 15  1  0  0  0  0
 14 16  1  0  0  0  0
 14 17  1  0  0  0  0
 17 18  1  0  0  0  0
 17 19  1  0  0  0  0
 17 20  1  0  0  0  0
 20 21  1  0  0  0  0
 20 22  1  0  0  0  0
 20 23  1  0  0  0  0
M  END
> <VConfSearch Rank>
733

> <Conf_Id>
90

> <Delta U+W>
1.131

> <U+W>
-7.251

> <U>
48.641

> <W>
-55.892

> <W(PB)>
-57.962

> <W(SA)>
2.070

> <Valence>
2.922

> <Coulomb>
45.269

> <VdW>
0.450

> <VdW6>
-7.045

> <VdW12>
7.495

> <Bond>
0.220

> <Angle>
1.205

> <Pdih>
1.497

> <Idih>
0.000

> <Tether>
0.000

$$$$
VeraChem MOL file


 23 22  0  0  0  0  0  0  0  0999 V2000     
   18.7754   18.1056   24.8756 N   0  3  0  0  0  0  0  0  0  0  0  0
   18.3554   17.2392   25.2288 H   0  0  0  0  0  0  0  0  0  0  0  0
   18.2571   18.3697   24.0323 H   0  0  0  0  0  0  0  0  0  0  0  0
   18.6013   18.8307   25.5788 H   0  0  0  0  0  0  0  0  0  0  0  0
   20.2556   17.9396   24.5928 C   0  0  0  0  0  0  0  0  0  0  0  0
   20.3729   17.1349   23.8624 H   0  0  0  0  0  0  0  0  0  0  0  0
   20.7391   17.6267   25.5222 H   0  0  0  0  0  0  0  0  0  0  0  0
   20.9342   19.2220   24.0695 C   0  0  0  0  0  0  0  0  0  0  0  0
   20.8513   20.0090   24.8307 H   0  0  0  0  0  0  0  0  0  0  0  0
   22.0079   19.0272   23.9469 H   0  0  0  0  0  0  0  0  0  0  0  0
   20.3526   19.7407   22.7304 C   0  0  0  0  0  0  0  0  0  0  0  0
   20.8864   20.6590   22.4494 H   0  0  0  0  0  0  0  0  0  0  0  0
   19.3035   20.0285   22.8740 H   0  0  0  0  0  0  0  0  0  0  0  0
   20.4715   18.7114   21.5781 C   0  0  0  0  0  0  0  0  0  0  0  0
   21.5143   18.3724   21.5067 H   0  0  0  0  0  0  0  0  0  0  0  0
   19.8709   17.8199   21.8026 H   0  0  0  0  0  0  0  0  0  0  0  0
   20.0436   19.2779   20.2028 C   0  0  0  0  0  0  0  0  0  0  0  0
   20.2578   18.5267   19.4298 H   0  0  0  0  0  0  0  0  0  0  0  0
   20.6560   20.1563   19.9553 H   0  0  0  0  0  0  0  0  0  0  0  0
   18.5455   19.6518   20.1327 C   0  0  0  0  0  0  0  0  0  0  0  0
   17.9119   18.7968   20.4019 H   0  0  0  0  0  0  0  0  0  0  0  0
   18.2747   19.9624   19.1153 H   0  0  0  0  0  0  0  0  0  0  0  0
   18.3055   20.4841   20.8058 H   0  0  0  0  0  0  0  0  0  0  0  0
  1  2  1  0  0  0  0
  1  3  1  0  0  0  0
  1  4  1  0  0  0  0
  1  5  1  0  0  0  0
  5  6  1  0  0  0  0
  5  7  1  0  0  0  0
  5  8  1  0  0  0  0
  8  9  1  0  0  0  0
  8 10  1  0  0  0  0
  8 11  1  0  0  0  0
 11 12  1  0  0  0  0
 11 13  1  0  0  0  0
 11 14  1  0  0  0  0
 14 15  1  0  0  0  0
 14 16  1  0  0  0  0
 14 17  1  0  0  0  0
 17 18  1  0  0  0  0
 17 19  1  0  0  0  0
 17 20  1  0  0  0  0
 20 21  1  0  0  0  0
 20 22  1  0  0  0  0
 20 23  1  0  0  0  0
M  END
> <VConfSearch Rank>
734

> <Conf_Id>
85

> <Delta U+W>
1.193

> <U+W>
-7.189

> <U>
48.775

> <W>
-55.965

> <W(PB)>
-58.038

> <W(SA)>
2.073

> <Valence>
2.602

> <Coulomb>
45.581

> <VdW>
0.592

> <VdW6>
-6.616

> <VdW12>
7.208

> <Bond>
0.196

> <Angle>
0.832

> <Pdih>
1.574

> <Idih>
0.000

> <Tether>
0.000

$$$$
VeraChem MOL file


 23 22  0  0  0  0  0  0  0  0999 V2000     
   21.7929   18.9201   22.4175 N   0  3  0  0  0  0  0  0  0  0  0  0
   21.0765   19.6148   22.6517 H   0  0  0  0  0  0  0  0  0  0  0  0
   22.4437   19.3599   21.7577 H   0  0  0  0  0  0  0  0  0  0  0  0
   22.3219   18.7253   23.2737 H   0  0  0  0  0  0  0  0  0  0  0  0
   21.1734   17.6611   21.8424 C   0  0  0  0  0  0  0  0  0  0  0  0
   21.9944   16.9736   21.6211 H   0  0  0  0  0  0  0  0  0  0  0  0
   20.6786   17.9127   20.9006 H   0  0  0  0  0  0  0  0  0  0  0  0
   20.1750   16.9644   22.7892 C   0  0  0  0  0  0  0  0  0  0  0  0
   20.0989   15.9136   22.4793 H   0  0  0  0  0  0  0  0  0  0  0  0
   20.5817   16.9460   23.8090 H   0  0  0  0  0  0  0  0  0  0  0  0
   18.7418   17.5611   22.7959 C   0  0  0  0  0  0  0  0  0  0  0  0
   18.1303   16.9390   23.4641 H   0  0  0  0  0  0  0  0  0  0  0  0
   18.2875   17.4568   21.8008 H   0  0  0  0  0  0  0  0  0  0  0  0
   18.6374   19.0303   23.2793 C   0  0  0  0  0  0  0  0  0  0  0  0
   17.7028   19.1457   23.8457 H   0  0  0  0  0  0  0  0  0  0  0  0
   19.4433   19.2535   23.9911 H   0  0  0  0  0  0  0  0  0  0  0  0
   18.6185   20.0542   22.1181 C   0  0  0  0  0  0  0  0  0  0  0  0
   17.7073   19.9077   21.5211 H   0  0  0  0  0  0  0  0  0  0  0  0
   19.4581   19.8900   21.4323 H   0  0  0  0  0  0  0  0  0  0  0  0
   18.6557   21.5070   22.6376 C   0  0  0  0  0  0  0  0  0  0  0  0
   17.7946   21.7154   23.2860 H   0  0  0  0  0  0  0  0  0  0  0  0
   18.6265   22.2182   21.8018 H   0  0  0  0  0  0  0  0  0  0  0  0
   19.5701   21.7013   23.2129 H   0  0  0  0  0  0  0  0  0  0  0  0
  1  2  1  0  0  0  0
  1  3  1  0  0  0  0
  1  4  1  0  0  0  0
  1  5  1  0  0  0  0
  5  6  1  0  0  0  0
  5  7  1  0  0  0  0
  5  8  1  0  0  0  0
  8  9  1  0  0  0  0
  8 10  1  0  0  0  0
  8 11  1  0  0  0  0
 11 12  1  0  0  0  0
 11 13  1  0  0  0  0
 11 14  1  0  0  0  0
 14 15  1  0  0  0  0
 14 16  1  0  0  0  0
 14 17  1  0  0  0  0
 17 18  1  0  0  0  0
 17 19  1  0  0  0  0
 17 20  1  0  0  0  0
 20 21  1  0  0  0  0
 20 22  1  0  0  0  0
 20 23  1  0  0  0  0
M  END
> <VConfSearch Rank>
735

> <Conf_Id>
82

> <Delta U+W>
5.994

> <U+W>
-2.388

> <U>
52.836

> <W>
-55.224

> <W(PB)>
-57.261

> <W(SA)>
2.037

> <Valence>
5.785

> <Coulomb>
46.744

> <VdW>
0.307

> <VdW6>
-7.672

> <VdW12>
7.979

> <Bond>
0.217

> <Angle>
1.470

> <Pdih>
4.098

> <Idih>
0.000

> <Tether>
0.000

$$$$
VeraChem MOL file


 23 22  0  0  0  0  0  0  0  0999 V2000     
   18.4700   19.5064   24.0011 N   0  3  0  0  0  0  0  0  0  0  0  0
   17.9541   20.3819   23.8653 H   0  0  0  0  0  0  0  0  0  0  0  0
   17.9430   18.9520   24.6847 H   0  0  0  0  0  0  0  0  0  0  0  0
   18.4492   18.9978   23.1114 H   0  0  0  0  0  0  0  0  0  0  0  0
   19.8934   19.7594   24.4590 C   0  0  0  0  0  0  0  0  0  0  0  0
   20.3760   18.7974   24.6507 H   0  0  0  0  0  0  0  0  0  0  0  0
   19.8324   20.3030   25.4057 H   0  0  0  0  0  0  0  0  0  0  0  0
   20.7367   20.5793   23.4613 C   0  0  0  0  0  0  0  0  0  0  0  0
   20.1410   21.4151   23.0709 H   0  0  0  0  0  0  0  0  0  0  0  0
   21.5631   21.0377   24.0207 H   0  0  0  0  0  0  0  0  0  0  0  0
   21.3511   19.7674   22.2894 C   0  0  0  0  0  0  0  0  0  0  0  0
   22.0510   19.0158   22.6802 H   0  0  0  0  0  0  0  0  0  0  0  0
   21.9650   20.4597   21.6967 H   0  0  0  0  0  0  0  0  0  0  0  0
   20.3266   19.0990   21.3369 C   0  0  0  0  0  0  0  0  0  0  0  0
   19.3952   19.6800   21.3139 H   0  0  0  0  0  0  0  0  0  0  0  0
   20.7247   19.1384   20.3134 H   0  0  0  0  0  0  0  0  0  0  0  0
   20.0511   17.6152   21.6825 C   0  0  0  0  0  0  0  0  0  0  0  0
   19.7888   17.4977   22.7407 H   0  0  0  0  0  0  0  0  0  0  0  0
   20.9704   17.0317   21.5322 H   0  0  0  0  0  0  0  0  0  0  0  0
   18.9268   17.0243   20.8057 C   0  0  0  0  0  0  0  0  0  0  0  0
   17.9815   17.5621   20.9538 H   0  0  0  0  0  0  0  0  0  0  0  0
   18.7560   15.9687   21.0542 H   0  0  0  0  0  0  0  0  0  0  0  0
   19.1875   17.0806   19.7407 H   0  0  0  0  0  0  0  0  0  0  0  0
  1  2  1  0  0  0  0
  1  3  1  0  0  0  0
  1  4  1  0  0  0  0
  1  5  1  0  0  0  0
  5  6  1  0  0  0  0
  5  7  1  0  0  0  0
  5  8  1  0  0  0  0
  8  9  1  0  0  0  0
  8 10  1  0  0  0  0
  8 11  1  0  0  0  0
 11 12  1  0  0  0  0
 11 13  1  0  0  0  0
 11 14  1  0  0  0  0
 14 15  1  0  0  0  0
 14 16  1  0  0  0  0
 14 17  1  0  0  0  0
 17 18  1  0  0  0  0
 17 19  1  0  0  0  0
 17 20  1  0  0  0  0
 20 21  1  0  0  0  0
 20 22  1  0  0  0  0
 20 23  1  0  0  0  0
M  END
> <VConfSearch Rank>
736

> <Conf_Id>
5

> <Delta U+W>
6.087

> <U+W>
-2.295

> <U>
52.836

> <W>
-55.131

> <W(PB)>
-57.202

> <W(SA)>
2.071

> <Valence>
5.785

> <Coulomb>
46.744

> <VdW>
0.307

> <VdW6>
-7.672

> <VdW12>
7.980

> <Bond>
0.217

> <Angle>
1.470

> <Pdih>
4.098

> <Idih>
0.000

> <Tether>
0.000

$$$$
VeraChem MOL file


 23 22  0  0  0  0  0  0  0  0999 V2000     
   20.8873   19.2798   18.9359 N   0  3  0  0  0  0  0  0  0  0  0  0
   20.1162   18.7321   18.5406 H   0  0  0  0  0  0  0  0  0  0  0  0
   21.7108   19.0999   18.3515 H   0  0  0  0  0  0  0  0  0  0  0  0
   20.6472   20.2691   18.8156 H   0  0  0  0  0  0  0  0  0  0  0  0
   21.1414   18.9321   20.3887 C   0  0  0  0  0  0  0  0  0  0  0  0
   21.9902   19.5280   20.7348 H   0  0  0  0  0  0  0  0  0  0  0  0
   21.4196   17.8759   20.4392 H   0  0  0  0  0  0  0  0  0  0  0  0
   19.9235   19.1909   21.2933 C   0  0  0  0  0  0  0  0  0  0  0  0
   19.6378   20.2492   21.2268 H   0  0  0  0  0  0  0  0  0  0  0  0
   19.0691   18.6030   20.9322 H   0  0  0  0  0  0  0  0  0  0  0  0
   20.2232   18.8242   22.7637 C   0  0  0  0  0  0  0  0  0  0  0  0
   21.0819   19.4105   23.1196 H   0  0  0  0  0  0  0  0  0  0  0  0
   20.5137   17.7661   22.8252 H   0  0  0  0  0  0  0  0  0  0  0  0
   19.0063   19.0803   23.6816 C   0  0  0  0  0  0  0  0  0  0  0  0
   18.7157   20.1383   23.6203 H   0  0  0  0  0  0  0  0  0  0  0  0
   18.1476   18.4941   23.3259 H   0  0  0  0  0  0  0  0  0  0  0  0
   19.3063   18.7133   25.1520 C   0  0  0  0  0  0  0  0  0  0  0  0
   20.1632   19.2991   25.5134 H   0  0  0  0  0  0  0  0  0  0  0  0
   19.5951   17.6550   25.2190 H   0  0  0  0  0  0  0  0  0  0  0  0
   18.0890   18.9704   26.0655 C   0  0  0  0  0  0  0  0  0  0  0  0
   18.3211   18.7041   27.1049 H   0  0  0  0  0  0  0  0  0  0  0  0
   17.2248   18.3717   25.7494 H   0  0  0  0  0  0  0  0  0  0  0  0
   17.7973   20.0286   26.0461 H   0  0  0  0  0  0  0  0  0  0  0  0
  1  2  1  0  0  0  0
  1  3  1  0  0  0  0
  1  4  1  0  0  0  0
  1  5  1  0  0  0  0
  5  6  1  0  0  0  0
  5  7  1  0  0  0  0
  5  8  1  0  0  0  0
  8  9  1  0  0  0  0
  8 10  1  0  0  0  0
  8 11  1  0  0  0  0
 11 12  1  0  0  0  0
 11 13  1  0  0  0  0
 11 14  1  0  0  0  0
 14 15  1  0  0  0  0
 14 16  1  0  0  0  0
 14 17  1  0  0  0  0
 17 18  1  0  0  0  0
 17 19  1  0  0  0  0
 17 20  1  0  0  0  0
 20 21  1  0  0  0  0
 20 22  1  0  0  0  0
 20 23  1  0  0  0  0
M  END
> <VConfSearch Rank>
737

> <Conf_Id>
40

> <Delta U+W>
0.000

> <U+W>
-8.382

> <U>
46.604

> <W>
-54.986

> <W(PB)>
-57.162

> <W(SA)>
2.176

> <Valence>
1.727

> <Coulomb>
44.434

> <VdW>
0.443

> <VdW6>
-4.623

> <VdW12>
5.066

> <Bond>
0.112

> <Angle>
0.386

> <Pdih>
1.228

> <Idih>
0.000

> <Tether>
0.000

$$$$
VeraChem MOL file


 23 22  0  0  0  0  0  0  0  0999 V2000     
   17.7243   21.3584   24.3853 N   0  3  0  0  0  0  0  0  0  0  0  0
   18.1905   21.6546   25.2488 H   0  0  0  0  0  0  0  0  0  0  0  0
   16.9844   20.7011   24.6524 H   0  0  0  0  0  0  0  0  0  0  0  0
   17.2610   22.1873   23.9975 H   0  0  0  0  0  0  0  0  0  0  0  0
   18.6973   20.7443   23.3994 C   0  0  0  0  0  0  0  0  0  0  0  0
   19.4378   21.5050   23.1378 H   0  0  0  0  0  0  0  0  0  0  0  0
   18.1390   20.4826   22.4970 H   0  0  0  0  0  0  0  0  0  0  0  0
   19.4103   19.4962   23.9533 C   0  0  0  0  0  0  0  0  0  0  0  0
   19.9271   19.7637   24.8846 H   0  0  0  0  0  0  0  0  0  0  0  0
   18.6671   18.7313   24.2151 H   0  0  0  0  0  0  0  0  0  0  0  0
   20.4397   18.9033   22.9621 C   0  0  0  0  0  0  0  0  0  0  0  0
   20.9804   18.0951   23.4714 H   0  0  0  0  0  0  0  0  0  0  0  0
   21.1874   19.6678   22.7095 H   0  0  0  0  0  0  0  0  0  0  0  0
   19.7902   18.3573   21.6649 C   0  0  0  0  0  0  0  0  0  0  0  0
   19.0576   17.5782   21.9168 H   0  0  0  0  0  0  0  0  0  0  0  0
   19.2290   19.1602   21.1689 H   0  0  0  0  0  0  0  0  0  0  0  0
   20.8165   17.7923   20.6529 C   0  0  0  0  0  0  0  0  0  0  0  0
   21.5460   18.5708   20.3891 H   0  0  0  0  0  0  0  0  0  0  0  0
   20.2896   17.5377   19.7227 H   0  0  0  0  0  0  0  0  0  0  0  0
   21.5580   16.5355   21.1629 C   0  0  0  0  0  0  0  0  0  0  0  0
   22.2016   16.7663   22.0207 H   0  0  0  0  0  0  0  0  0  0  0  0
   22.1983   16.1211   20.3735 H   0  0  0  0  0  0  0  0  0  0  0  0
   20.8490   15.7536   21.4644 H   0  0  0  0  0  0  0  0  0  0  0  0
  1  2  1  0  0  0  0
  1  3  1  0  0  0  0
  1  4  1  0  0  0  0
  1  5  1  0  0  0  0
  5  6  1  0  0  0  0
  5  7  1  0  0  0  0
  5  8  1  0  0  0  0
  8  9  1  0  0  0  0
  8 10  1  0  0  0  0
  8 11  1  0  0  0  0
 11 12  1  0  0  0  0
 11 13  1  0  0  0  0
 11 14  1  0  0  0  0
 14 15  1  0  0  0  0
 14 16  1  0  0  0  0
 14 17  1  0  0  0  0
 17 18  1  0  0  0  0
 17 19  1  0  0  0  0
 17 20  1  0  0  0  0
 20 21  1  0  0  0  0
 20 22  1  0  0  0  0
 20 23  1  0  0  0  0
M  END
> <VConfSearch Rank>
738

> <Conf_Id>
65

> <Delta U+W>
1.004

> <U+W>
-7.378

> <U>
48.047

> <W>
-55.425

> <W(PB)>
-57.542

> <W(SA)>
2.116

> <Valence>
2.583

> <Coulomb>
44.791

> <VdW>
0.673

> <VdW6>
-5.788

> <VdW12>
6.462

> <Bond>
0.177

> <Angle>
0.787

> <Pdih>
1.619

> <Idih>
0.000

> <Tether>
0.000

$$$$
VeraChem MOL file


 23 22  0  0  0  0  0  0  0  0999 V2000     
   16.2820   19.6379   23.1136 N   0  3  0  0  0  0  0  0  0  0  0  0
   15.8369   18.8275   23.5562 H   0  0  0  0  0  0  0  0  0  0  0  0
   15.6171   20.0027   22.4231 H   0  0  0  0  0  0  0  0  0  0  0  0
   16.3855   20.3573   23.8366 H   0  0  0  0  0  0  0  0  0  0  0  0
   17.6105   19.2776   22.4803 C   0  0  0  0  0  0  0  0  0  0  0  0
   18.0092   20.1770   22.0042 H   0  0  0  0  0  0  0  0  0  0  0  0
   17.4228   18.5312   21.7037 H   0  0  0  0  0  0  0  0  0  0  0  0
   18.6317   18.7258   23.4931 C   0  0  0  0  0  0  0  0  0  0  0  0
   18.8216   19.4755   24.2727 H   0  0  0  0  0  0  0  0  0  0  0  0
   18.1985   17.8515   23.9970 H   0  0  0  0  0  0  0  0  0  0  0  0
   19.9684   18.3119   22.8330 C   0  0  0  0  0  0  0  0  0  0  0  0
   19.7764   17.5546   22.0604 H   0  0  0  0  0  0  0  0  0  0  0  0
   20.5922   17.8276   23.5955 H   0  0  0  0  0  0  0  0  0  0  0  0
   20.7373   19.5074   22.2149 C   0  0  0  0  0  0  0  0  0  0  0  0
   20.1035   20.0063   21.4701 H   0  0  0  0  0  0  0  0  0  0  0  0
   20.9472   20.2548   22.9925 H   0  0  0  0  0  0  0  0  0  0  0  0
   22.0601   19.0975   21.5232 C   0  0  0  0  0  0  0  0  0  0  0  0
   22.4785   19.9774   21.0146 H   0  0  0  0  0  0  0  0  0  0  0  0
   21.8549   18.3575   20.7370 H   0  0  0  0  0  0  0  0  0  0  0  0
   23.1198   18.5387   22.5000 C   0  0  0  0  0  0  0  0  0  0  0  0
   22.8003   17.5867   22.9415 H   0  0  0  0  0  0  0  0  0  0  0  0
   23.3186   19.2470   23.3147 H   0  0  0  0  0  0  0  0  0  0  0  0
   24.0669   18.3565   21.9757 H   0  0  0  0  0  0  0  0  0  0  0  0
  1  2  1  0  0  0  0
  1  3  1  0  0  0  0
  1  4  1  0  0  0  0
  1  5  1  0  0  0  0
  5  6  1  0  0  0  0
  5  7  1  0  0  0  0
  5  8  1  0  0  0  0
  8  9  1  0  0  0  0
  8 10  1  0  0  0  0
  8 11  1  0  0  0  0
 11 12  1  0  0  0  0
 11 13  1  0  0  0  0
 11 14  1  0  0  0  0
 14 15  1  0  0  0  0
 14 16  1  0  0  0  0
 14 17  1  0  0  0  0
 17 18  1  0  0  0  0
 17 19  1  0  0  0  0
 17 20  1  0  0  0  0
 20 21  1  0  0  0  0
 20 22  1  0  0  0  0
 20 23  1  0  0  0  0
M  END
> <VConfSearch Rank>
739

> <Conf_Id>
92

> <Delta U+W>
0.973

> <U+W>
-7.409

> <U>
48.047

> <W>
-55.456

> <W(PB)>
-57.595

> <W(SA)>
2.138

> <Valence>
2.583

> <Coulomb>
44.791

> <VdW>
0.674

> <VdW6>
-5.789

> <VdW12>
6.462

> <Bond>
0.177

> <Angle>
0.787

> <Pdih>
1.619

> <Idih>
0.000

> <Tether>
0.000

$$$$
VeraChem MOL file


 23 22  0  0  0  0  0  0  0  0999 V2000     
   20.7583   21.6965   20.5928 N   0  3  0  0  0  0  0  0  0  0  0  0
   20.3460   21.8571   19.6675 H   0  0  0  0  0  0  0  0  0  0  0  0
   21.7687   21.8407   20.4976 H   0  0  0  0  0  0  0  0  0  0  0  0
   20.4050   22.4359   21.2087 H   0  0  0  0  0  0  0  0  0  0  0  0
   20.4317   20.3150   21.1227 C   0  0  0  0  0  0  0  0  0  0  0  0
   20.8101   19.5806   20.4065 H   0  0  0  0  0  0  0  0  0  0  0  0
   19.3436   20.2223   21.1685 H   0  0  0  0  0  0  0  0  0  0  0  0
   21.0376   20.0430   22.5125 C   0  0  0  0  0  0  0  0  0  0  0  0
   22.1257   20.1830   22.4630 H   0  0  0  0  0  0  0  0  0  0  0  0
   20.6582   20.7812   23.2317 H   0  0  0  0  0  0  0  0  0  0  0  0
   20.7383   18.6150   23.0264 C   0  0  0  0  0  0  0  0  0  0  0  0
   21.2754   18.4615   23.9727 H   0  0  0  0  0  0  0  0  0  0  0  0
   21.1416   17.8785   22.3176 H   0  0  0  0  0  0  0  0  0  0  0  0
   19.2293   18.3530   23.2498 C   0  0  0  0  0  0  0  0  0  0  0  0
   18.8221   19.1110   23.9331 H   0  0  0  0  0  0  0  0  0  0  0  0
   18.6859   18.4550   22.3010 H   0  0  0  0  0  0  0  0  0  0  0  0
   18.9714   16.9453   23.8318 C   0  0  0  0  0  0  0  0  0  0  0  0
   19.5042   16.8347   24.7867 H   0  0  0  0  0  0  0  0  0  0  0  0
   19.3775   16.1828   23.1523 H   0  0  0  0  0  0  0  0  0  0  0  0
   17.4662   16.6846   24.0528 C   0  0  0  0  0  0  0  0  0  0  0  0
   17.0386   17.4119   24.7552 H   0  0  0  0  0  0  0  0  0  0  0  0
   17.3034   15.6809   24.4666 H   0  0  0  0  0  0  0  0  0  0  0  0
   16.9106   16.7537   23.1085 H   0  0  0  0  0  0  0  0  0  0  0  0
  1  2  1  0  0  0  0
  1  3  1  0  0  0  0
  1  4  1  0  0  0  0
  1  5  1  0  0  0  0
  5  6  1  0  0  0  0
  5  7  1  0  0  0  0
  5  8  1  0  0  0  0
  8  9  1  0  0  0  0
  8 10  1  0  0  0  0
  8 11  1  0  0  0  0
 11 12  1  0  0  0  0
 11 13  1  0  0  0  0
 11 14  1  0  0  0  0
 14 15  1  0  0  0  0
 14 16  1  0  0  0  0
 14 17  1  0  0  0  0
 17 18  1  0  0  0  0
 17 19  1  0  0  0  0
 17 20  1  0  0  0  0
 20 21  1  0  0  0  0
 20 22  1  0  0  0  0
 20 23  1  0  0  0  0
M  END
> <VConfSearch Rank>
740

> <Conf_Id>
42

> <Delta U+W>
0.365

> <U+W>
-8.017

> <U>
47.375

> <W>
-55.392

> <W(PB)>
-57.543

> <W(SA)>
2.152

> <Valence>
2.032

> <Coulomb>
44.843

> <VdW>
0.499

> <VdW6>
-5.218

> <VdW12>
5.717

> <Bond>
0.135

> <Angle>
0.514

> <Pdih>
1.383

> <Idih>
0.000

> <Tether>
0.000

$$$$
VeraChem MOL file


 23 22  0  0  0  0  0  0  0  0999 V2000     
   19.6157   16.5421   24.6424 N   0  3  0  0  0  0  0  0  0  0  0  0
   19.2389   15.9025   23.9357 H   0  0  0  0  0  0  0  0  0  0  0  0
   19.4455   16.1106   25.5571 H   0  0  0  0  0  0  0  0  0  0  0  0
   20.6312   16.5741   24.5113 H   0  0  0  0  0  0  0  0  0  0  0  0
   18.9910   17.9205   24.5457 C   0  0  0  0  0  0  0  0  0  0  0  0
   19.4162   18.5431   25.3375 H   0  0  0  0  0  0  0  0  0  0  0  0
   17.9199   17.8114   24.7368 H   0  0  0  0  0  0  0  0  0  0  0  0
   19.1976   18.6045   23.1802 C   0  0  0  0  0  0  0  0  0  0  0  0
   18.7945   17.9647   22.3840 H   0  0  0  0  0  0  0  0  0  0  0  0
   18.6086   19.5299   23.1765 H   0  0  0  0  0  0  0  0  0  0  0  0
   20.6824   18.9385   22.8965 C   0  0  0  0  0  0  0  0  0  0  0  0
   21.2881   18.0290   23.0029 H   0  0  0  0  0  0  0  0  0  0  0  0
   21.0493   19.6406   23.6580 H   0  0  0  0  0  0  0  0  0  0  0  0
   20.9476   19.5250   21.4856 C   0  0  0  0  0  0  0  0  0  0  0  0
   22.0317   19.6769   21.3899 H   0  0  0  0  0  0  0  0  0  0  0  0
   20.6840   18.7879   20.7146 H   0  0  0  0  0  0  0  0  0  0  0  0
   20.2447   20.8768   21.1978 C   0  0  0  0  0  0  0  0  0  0  0  0
   20.9107   21.4925   20.5771 H   0  0  0  0  0  0  0  0  0  0  0  0
   20.0983   21.4381   22.1312 H   0  0  0  0  0  0  0  0  0  0  0  0
   18.9018   20.7225   20.4462 C   0  0  0  0  0  0  0  0  0  0  0  0
   19.0503   20.2294   19.4767 H   0  0  0  0  0  0  0  0  0  0  0  0
   18.4544   21.7062   20.2536 H   0  0  0  0  0  0  0  0  0  0  0  0
   18.1749   20.1331   21.0157 H   0  0  0  0  0  0  0  0  0  0  0  0
  1  2  1  0  0  0  0
  1  3  1  0  0  0  0
  1  4  1  0  0  0  0
  1  5  1  0  0  0  0
  5  6  1  0  0  0  0
  5  7  1  0  0  0  0
  5  8  1  0  0  0  0
  8  9  1  0  0  0  0
  8 10  1  0  0  0  0
  8 11  1  0  0  0  0
 11 12  1  0  0  0  0
 11 13  1  0  0  0  0
 11 14  1  0  0  0  0
 14 15  1  0  0  0  0
 14 16  1  0  0  0  0
 14 17  1  0  0  0  0
 17 18  1  0  0  0  0
 17 19  1  0  0  0  0
 17 20  1  0  0  0  0
 20 21  1  0  0  0  0
 20 22  1  0  0  0  0
 20 23  1  0  0  0  0
M  END
> <VConfSearch Rank>
741

> <Conf_Id>
3

> <Delta U+W>
3.283

> <U+W>
-5.099

> <U>
50.701

> <W>
-55.800

> <W(PB)>
-57.867

> <W(SA)>
2.067

> <Valence>
4.880

> <Coulomb>
45.095

> <VdW>
0.726

> <VdW6>
-6.620

> <VdW12>
7.346

> <Bond>
0.222

> <Angle>
1.260

> <Pdih>
3.398

> <Idih>
0.000

> <Tether>
0.000

$$$$
VeraChem MOL file


 23 22  0  0  0  0  0  0  0  0999 V2000     
   22.0257   20.4145   21.2916 N   0  3  0  0  0  0  0  0  0  0  0  0
   21.8640   21.4148   21.1372 H   0  0  0  0  0  0  0  0  0  0  0  0
   22.9765   20.2111   20.9654 H   0  0  0  0  0  0  0  0  0  0  0  0
   22.0151   20.2583   22.3041 H   0  0  0  0  0  0  0  0  0  0  0  0
   20.9922   19.5611   20.5832 C   0  0  0  0  0  0  0  0  0  0  0  0
   21.2388   18.5114   20.7620 H   0  0  0  0  0  0  0  0  0  0  0  0
   21.0826   19.7515   19.5103 H   0  0  0  0  0  0  0  0  0  0  0  0
   19.5433   19.8418   21.0316 C   0  0  0  0  0  0  0  0  0  0  0  0
   19.2926   20.8852   20.7988 H   0  0  0  0  0  0  0  0  0  0  0  0
   18.8627   19.2231   20.4317 H   0  0  0  0  0  0  0  0  0  0  0  0
   19.2815   19.5769   22.5359 C   0  0  0  0  0  0  0  0  0  0  0  0
   18.2396   19.8465   22.7521 H   0  0  0  0  0  0  0  0  0  0  0  0
   19.9030   20.2447   23.1471 H   0  0  0  0  0  0  0  0  0  0  0  0
   19.5316   18.1039   22.9485 C   0  0  0  0  0  0  0  0  0  0  0  0
   18.8888   17.4390   22.3554 H   0  0  0  0  0  0  0  0  0  0  0  0
   20.5667   17.8258   22.7104 H   0  0  0  0  0  0  0  0  0  0  0  0
   19.2977   17.8381   24.4556 C   0  0  0  0  0  0  0  0  0  0  0  0
   19.9463   18.4930   25.0540 H   0  0  0  0  0  0  0  0  0  0  0  0
   19.6075   16.8085   24.6832 H   0  0  0  0  0  0  0  0  0  0  0  0
   17.8267   18.0217   24.8934 C   0  0  0  0  0  0  0  0  0  0  0  0
   17.1537   17.4017   24.2870 H   0  0  0  0  0  0  0  0  0  0  0  0
   17.5059   19.0669   24.8042 H   0  0  0  0  0  0  0  0  0  0  0  0
   17.6991   17.7269   25.9431 H   0  0  0  0  0  0  0  0  0  0  0  0
  1  2  1  0  0  0  0
  1  3  1  0  0  0  0
  1  4  1  0  0  0  0
  1  5  1  0  0  0  0
  5  6  1  0  0  0  0
  5  7  1  0  0  0  0
  5  8  1  0  0  0  0
  8  9  1  0  0  0  0
  8 10  1  0  0  0  0
  8 11  1  0  0  0  0
 11 12  1  0  0  0  0
 11 13  1  0  0  0  0
 11 14  1  0  0  0  0
 14 15  1  0  0  0  0
 14 16  1  0  0  0  0
 14 17  1  0  0  0  0
 17 18  1  0  0  0  0
 17 19  1  0  0  0  0
 17 20  1  0  0  0  0
 20 21  1  0  0  0  0
 20 22  1  0  0  0  0
 20 23  1  0  0  0  0
M  END
> <VConfSearch Rank>
742

> <Conf_Id>
83

> <Delta U+W>
1.229

> <U+W>
-7.154

> <U>
48.727

> <W>
-55.880

> <W(PB)>
-57.960

> <W(SA)>
2.080

> <Valence>
2.671

> <Coulomb>
45.371

> <VdW>
0.684

> <VdW6>
-6.511

> <VdW12>
7.195

> <Bond>
0.203

> <Angle>
0.915

> <Pdih>
1.554

> <Idih>
0.000

> <Tether>
0.000

$$$$
VeraChem MOL file


 23 22  0  0  0  0  0  0  0  0999 V2000     
   21.3918   20.8813   24.0659 N   0  3  0  0  0  0  0  0  0  0  0  0
   22.2035   20.4358   24.5054 H   0  0  0  0  0  0  0  0  0  0  0  0
   20.5541   20.4687   24.4876 H   0  0  0  0  0  0  0  0  0  0  0  0
   21.4097   21.8702   24.3372 H   0  0  0  0  0  0  0  0  0  0  0  0
   21.4022   20.7098   22.5597 C   0  0  0  0  0  0  0  0  0  0  0  0
   22.3005   21.2006   22.1753 H   0  0  0  0  0  0  0  0  0  0  0  0
   20.5320   21.2312   22.1529 H   0  0  0  0  0  0  0  0  0  0  0  0
   21.3900   19.2365   22.1031 C   0  0  0  0  0  0  0  0  0  0  0  0
   21.4541   19.2067   21.0073 H   0  0  0  0  0  0  0  0  0  0  0  0
   22.2954   18.7391   22.4756 H   0  0  0  0  0  0  0  0  0  0  0  0
   20.1432   18.4393   22.5633 C   0  0  0  0  0  0  0  0  0  0  0  0
   20.1097   18.3976   23.6600 H   0  0  0  0  0  0  0  0  0  0  0  0
   20.2578   17.4025   22.2215 H   0  0  0  0  0  0  0  0  0  0  0  0
   18.8130   19.0200   22.0194 C   0  0  0  0  0  0  0  0  0  0  0  0
   18.7091   20.0648   22.3405 H   0  0  0  0  0  0  0  0  0  0  0  0
   18.8373   19.0352   20.9211 H   0  0  0  0  0  0  0  0  0  0  0  0
   17.5614   18.2443   22.4971 C   0  0  0  0  0  0  0  0  0  0  0  0
   16.6644   18.7861   22.1659 H   0  0  0  0  0  0  0  0  0  0  0  0
   17.5260   18.2350   23.5955 H   0  0  0  0  0  0  0  0  0  0  0  0
   17.4917   16.7958   21.9620 C   0  0  0  0  0  0  0  0  0  0  0  0
   17.5587   16.7757   20.8665 H   0  0  0  0  0  0  0  0  0  0  0  0
   16.5418   16.3262   22.2484 H   0  0  0  0  0  0  0  0  0  0  0  0
   18.3004   16.1757   22.3679 H   0  0  0  0  0  0  0  0  0  0  0  0
  1  2  1  0  0  0  0
  1  3  1  0  0  0  0
  1  4  1  0  0  0  0
  1  5  1  0  0  0  0
  5  6  1  0  0  0  0
  5  7  1  0  0  0  0
  5  8  1  0  0  0  0
  8  9  1  0  0  0  0
  8 10  1  0  0  0  0
  8 11  1  0  0  0  0
 11 12  1  0  0  0  0
 11 13  1  0  0  0  0
 11 14  1  0  0  0  0
 14 15  1  0  0  0  0
 14 16  1  0  0  0  0
 14 17  1  0  0  0  0
 17 18  1  0  0  0  0
 17 19  1  0  0  0  0
 17 20  1  0  0  0  0
 20 21  1  0  0  0  0
 20 22  1  0  0  0  0
 20 23  1  0  0  0  0
M  END
> <VConfSearch Rank>
743

> <Conf_Id>
50

> <Delta U+W>
1.252

> <U+W>
-7.130

> <U>
48.727

> <W>
-55.857

> <W(PB)>
-57.937

> <W(SA)>
2.080

> <Valence>
2.671

> <Coulomb>
45.371

> <VdW>
0.684

> <VdW6>
-6.511

> <VdW12>
7.196

> <Bond>
0.203

> <Angle>
0.915

> <Pdih>
1.554

> <Idih>
0.000

> <Tether>
0.000

$$$$
VeraChem MOL file


 23 22  0  0  0  0  0  0  0  0999 V2000     
   17.1218   19.8646   21.1097 N   0  3  0  0  0  0  0  0  0  0  0  0
   16.7775   19.2369   21.8425 H   0  0  0  0  0  0  0  0  0  0  0  0
   16.5254   19.7211   20.2877 H   0  0  0  0  0  0  0  0  0  0  0  0
   16.9605   20.8242   21.4319 H   0  0  0  0  0  0  0  0  0  0  0  0
   18.5838   19.6138   20.7949 C   0  0  0  0  0  0  0  0  0  0  0  0
   18.8677   20.2870   19.9814 H   0  0  0  0  0  0  0  0  0  0  0  0
   18.6821   18.5857   20.4359 H   0  0  0  0  0  0  0  0  0  0  0  0
   19.5258   19.8363   21.9940 C   0  0  0  0  0  0  0  0  0  0  0  0
   20.5586   19.7392   21.6409 H   0  0  0  0  0  0  0  0  0  0  0  0
   19.4197   20.8682   22.3540 H   0  0  0  0  0  0  0  0  0  0  0  0
   19.2598   18.8438   23.1545 C   0  0  0  0  0  0  0  0  0  0  0  0
   19.2701   17.8096   22.7834 H   0  0  0  0  0  0  0  0  0  0  0  0
   18.2460   19.0196   23.5383 H   0  0  0  0  0  0  0  0  0  0  0  0
   20.2560   18.9950   24.3339 C   0  0  0  0  0  0  0  0  0  0  0  0
   20.6121   20.0322   24.4022 H   0  0  0  0  0  0  0  0  0  0  0  0
   19.7103   18.8079   25.2691 H   0  0  0  0  0  0  0  0  0  0  0  0
   21.4600   18.0193   24.2945 C   0  0  0  0  0  0  0  0  0  0  0  0
   21.0956   16.9831   24.3293 H   0  0  0  0  0  0  0  0  0  0  0  0
   22.0549   18.1628   25.2074 H   0  0  0  0  0  0  0  0  0  0  0  0
   22.3835   18.1962   23.0694 C   0  0  0  0  0  0  0  0  0  0  0  0
   22.7186   19.2370   22.9727 H   0  0  0  0  0  0  0  0  0  0  0  0
   21.8759   17.9039   22.1419 H   0  0  0  0  0  0  0  0  0  0  0  0
   23.2756   17.5643   23.1674 H   0  0  0  0  0  0  0  0  0  0  0  0
  1  2  1  0  0  0  0
  1  3  1  0  0  0  0
  1  4  1  0  0  0  0
  1  5  1  0  0  0  0
  5  6  1  0  0  0  0
  5  7  1  0  0  0  0
  5  8  1  0  0  0  0
  8  9  1  0  0  0  0
  8 10  1  0  0  0  0
  8 11  1  0  0  0  0
 11 12  1  0  0  0  0
 11 13  1  0  0  0  0
 11 14  1  0  0  0  0
 14 15  1  0  0  0  0
 14 16  1  0  0  0  0
 14 17  1  0  0  0  0
 17 18  1  0  0  0  0
 17 19  1  0  0  0  0
 17 20  1  0  0  0  0
 20 21  1  0  0  0  0
 20 22  1  0  0  0  0
 20 23  1  0  0  0  0
M  END
> <VConfSearch Rank>
744

> <Conf_Id>
55

> <Delta U+W>
3.232

> <U+W>
-5.150

> <U>
50.625

> <W>
-55.776

> <W(PB)>
-57.839

> <W(SA)>
2.064

> <Valence>
4.837

> <Coulomb>
45.097

> <VdW>
0.692

> <VdW6>
-6.655

> <VdW12>
7.347

> <Bond>
0.223

> <Angle>
1.167

> <Pdih>
3.447

> <Idih>
0.000

> <Tether>
0.000

$$$$
VeraChem MOL file


 23 22  0  0  0  0  0  0  0  0999 V2000     
   20.6788   17.5167   19.9803 N   0  3  0  0  0  0  0  0  0  0  0  0
   21.3327   16.7273   19.9885 H   0  0  0  0  0  0  0  0  0  0  0  0
   20.8479   18.0341   19.1109 H   0  0  0  0  0  0  0  0  0  0  0  0
   19.7339   17.1247   19.9149 H   0  0  0  0  0  0  0  0  0  0  0  0
   20.8423   18.3986   21.2015 C   0  0  0  0  0  0  0  0  0  0  0  0
   20.1441   19.2321   21.1065 H   0  0  0  0  0  0  0  0  0  0  0  0
   21.8583   18.8023   21.1907 H   0  0  0  0  0  0  0  0  0  0  0  0
   20.6009   17.6459   22.5247 C   0  0  0  0  0  0  0  0  0  0  0  0
   19.5997   17.1948   22.5307 H   0  0  0  0  0  0  0  0  0  0  0  0
   21.3159   16.8141   22.5783 H   0  0  0  0  0  0  0  0  0  0  0  0
   20.7902   18.5398   23.7763 C   0  0  0  0  0  0  0  0  0  0  0  0
   21.6247   19.2371   23.6181 H   0  0  0  0  0  0  0  0  0  0  0  0
   21.0959   17.8960   24.6126 H   0  0  0  0  0  0  0  0  0  0  0  0
   19.5242   19.3162   24.2235 C   0  0  0  0  0  0  0  0  0  0  0  0
   18.7287   18.6028   24.4794 H   0  0  0  0  0  0  0  0  0  0  0  0
   19.7627   19.8520   25.1527 H   0  0  0  0  0  0  0  0  0  0  0  0
   18.9896   20.3293   23.1850 C   0  0  0  0  0  0  0  0  0  0  0  0
   18.6001   19.7957   22.3083 H   0  0  0  0  0  0  0  0  0  0  0  0
   19.8077   20.9753   22.8372 H   0  0  0  0  0  0  0  0  0  0  0  0
   17.8609   21.2037   23.7717 C   0  0  0  0  0  0  0  0  0  0  0  0
   18.2183   21.7871   24.6302 H   0  0  0  0  0  0  0  0  0  0  0  0
   17.0166   20.5864   24.1053 H   0  0  0  0  0  0  0  0  0  0  0  0
   17.4858   21.9089   23.0187 H   0  0  0  0  0  0  0  0  0  0  0  0
  1  2  1  0  0  0  0
  1  3  1  0  0  0  0
  1  4  1  0  0  0  0
  1  5  1  0  0  0  0
  5  6  1  0  0  0  0
  5  7  1  0  0  0  0
  5  8  1  0  0  0  0
  8  9  1  0  0  0  0
  8 10  1  0  0  0  0
  8 11  1  0  0  0  0
 11 12  1  0  0  0  0
 11 13  1  0  0  0  0
 11 14  1  0  0  0  0
 14 15  1  0  0  0  0
 14 16  1  0  0  0  0
 14 17  1  0  0  0  0
 17 18  1  0  0  0  0
 17 19  1  0  0  0  0
 17 20  1  0  0  0  0
 20 21  1  0  0  0  0
 20 22  1  0  0  0  0
 20 23  1  0  0  0  0
M  END
> <VConfSearch Rank>
745

> <Conf_Id>
93

> <Delta U+W>
2.589

> <U+W>
-5.793

> <U>
50.122

> <W>
-55.915

> <W(PB)>
-58.031

> <W(SA)>
2.115

> <Valence>
4.132

> <Coulomb>
45.536

> <VdW>
0.454

> <VdW6>
-6.262

> <VdW12>
6.715

> <Bond>
0.182

> <Angle>
1.157

> <Pdih>
2.794

> <Idih>
0.000

> <Tether>
0.000

$$$$
VeraChem MOL file


 23 22  0  0  0  0  0  0  0  0999 V2000     
   19.1160   20.1015   19.7334 N   0  3  0  0  0  0  0  0  0  0  0  0
   19.1672   19.1506   19.3541 H   0  0  0  0  0  0  0  0  0  0  0  0
   19.8185   20.6593   19.2361 H   0  0  0  0  0  0  0  0  0  0  0  0
   18.1988   20.4797   19.4754 H   0  0  0  0  0  0  0  0  0  0  0  0
   19.3358   20.1254   21.2323 C   0  0  0  0  0  0  0  0  0  0  0  0
   19.2965   21.1675   21.5610 H   0  0  0  0  0  0  0  0  0  0  0  0
   20.3398   19.7448   21.4281 H   0  0  0  0  0  0  0  0  0  0  0  0
   18.2897   19.3007   22.0078 C   0  0  0  0  0  0  0  0  0  0  0  0
   17.2965   19.7097   21.7792 H   0  0  0  0  0  0  0  0  0  0  0  0
   18.2852   18.2607   21.6554 H   0  0  0  0  0  0  0  0  0  0  0  0
   18.4984   19.3424   23.5428 C   0  0  0  0  0  0  0  0  0  0  0  0
   17.5219   19.1938   24.0243 H   0  0  0  0  0  0  0  0  0  0  0  0
   18.8315   20.3435   23.8502 H   0  0  0  0  0  0  0  0  0  0  0  0
   19.4634   18.2644   24.1015 C   0  0  0  0  0  0  0  0  0  0  0  0
   19.4733   18.3499   25.1970 H   0  0  0  0  0  0  0  0  0  0  0  0
   19.0647   17.2652   23.8780 H   0  0  0  0  0  0  0  0  0  0  0  0
   20.9149   18.3660   23.5786 C   0  0  0  0  0  0  0  0  0  0  0  0
   21.2829   19.3950   23.6941 H   0  0  0  0  0  0  0  0  0  0  0  0
   20.9440   18.1274   22.5076 H   0  0  0  0  0  0  0  0  0  0  0  0
   21.8578   17.3984   24.3252 C   0  0  0  0  0  0  0  0  0  0  0  0
   22.8807   17.4755   23.9344 H   0  0  0  0  0  0  0  0  0  0  0  0
   21.5294   16.3575   24.2067 H   0  0  0  0  0  0  0  0  0  0  0  0
   21.8898   17.6268   25.3985 H   0  0  0  0  0  0  0  0  0  0  0  0
  1  2  1  0  0  0  0
  1  3  1  0  0  0  0
  1  4  1  0  0  0  0
  1  5  1  0  0  0  0
  5  6  1  0  0  0  0
  5  7  1  0  0  0  0
  5  8  1  0  0  0  0
  8  9  1  0  0  0  0
  8 10  1  0  0  0  0
  8 11  1  0  0  0  0
 11 12  1  0  0  0  0
 11 13  1  0  0  0  0
 11 14  1  0  0  0  0
 14 15  1  0  0  0  0
 14 16  1  0  0  0  0
 14 17  1  0  0  0  0
 17 18  1  0  0  0  0
 17 19  1  0  0  0  0
 17 20  1  0  0  0  0
 20 21  1  0  0  0  0
 20 22  1  0  0  0  0
 20 23  1  0  0  0  0
M  END
> <VConfSearch Rank>
746

> <Conf_Id>
70

> <Delta U+W>
2.599

> <U+W>
-5.783

> <U>
50.122

> <W>
-55.906

> <W(PB)>
-58.010

> <W(SA)>
2.105

> <Valence>
4.132

> <Coulomb>
45.536

> <VdW>
0.454

> <VdW6>
-6.262

> <VdW12>
6.715

> <Bond>
0.182

> <Angle>
1.157

> <Pdih>
2.794

> <Idih>
0.000

> <Tether>
0.000

$$$$
VeraChem MOL file


 23 22  0  0  0  0  0  0  0  0999 V2000     
   18.3105   21.2146   23.5116 N   0  3  0  0  0  0  0  0  0  0  0  0
   17.5387   21.1569   24.1836 H   0  0  0  0  0  0  0  0  0  0  0  0
   18.2842   22.1562   23.1059 H   0  0  0  0  0  0  0  0  0  0  0  0
   19.1822   21.1403   24.0445 H   0  0  0  0  0  0  0  0  0  0  0  0
   18.2118   20.1392   22.4477 C   0  0  0  0  0  0  0  0  0  0  0  0
   19.0402   20.2767   21.7479 H   0  0  0  0  0  0  0  0  0  0  0  0
   17.2771   20.2951   21.9022 H   0  0  0  0  0  0  0  0  0  0  0  0
   18.2417   18.7053   23.0139 C   0  0  0  0  0  0  0  0  0  0  0  0
   17.3860   18.5677   23.6882 H   0  0  0  0  0  0  0  0  0  0  0  0
   18.0898   17.9960   22.1903 H   0  0  0  0  0  0  0  0  0  0  0  0
   19.5492   18.3538   23.7714 C   0  0  0  0  0  0  0  0  0  0  0  0
   19.4966   17.3071   24.1014 H   0  0  0  0  0  0  0  0  0  0  0  0
   19.6068   18.9517   24.6909 H   0  0  0  0  0  0  0  0  0  0  0  0
   20.8521   18.5623   22.9567 C   0  0  0  0  0  0  0  0  0  0  0  0
   20.9695   19.6231   22.6982 H   0  0  0  0  0  0  0  0  0  0  0  0
   21.7066   18.3117   23.6003 H   0  0  0  0  0  0  0  0  0  0  0  0
   20.9221   17.7027   21.6725 C   0  0  0  0  0  0  0  0  0  0  0  0
   20.1168   17.9868   20.9821 H   0  0  0  0  0  0  0  0  0  0  0  0
   20.7668   16.6446   21.9254 H   0  0  0  0  0  0  0  0  0  0  0  0
   22.2782   17.8635   20.9532 C   0  0  0  0  0  0  0  0  0  0  0  0
   22.3098   17.2495   20.0438 H   0  0  0  0  0  0  0  0  0  0  0  0
   23.1082   17.5501   21.5998 H   0  0  0  0  0  0  0  0  0  0  0  0
   22.4482   18.9079   20.6606 H   0  0  0  0  0  0  0  0  0  0  0  0
  1  2  1  0  0  0  0
  1  3  1  0  0  0  0
  1  4  1  0  0  0  0
  1  5  1  0  0  0  0
  5  6  1  0  0  0  0
  5  7  1  0  0  0  0
  5  8  1  0  0  0  0
  8  9  1  0  0  0  0
  8 10  1  0  0  0  0
  8 11  1  0  0  0  0
 11 12  1  0  0  0  0
 11 13  1  0  0  0  0
 11 14  1  0  0  0  0
 14 15  1  0  0  0  0
 14 16  1  0  0  0  0
 14 17  1  0  0  0  0
 17 18  1  0  0  0  0
 17 19  1  0  0  0  0
 17 20  1  0  0  0  0
 20 21  1  0  0  0  0
 20 22  1  0  0  0  0
 20 23  1  0  0  0  0
M  END
> <VConfSearch Rank>
747

> <Conf_Id>
72

> <Delta U+W>
1.051

> <U+W>
-7.331

> <U>
48.590

> <W>
-55.922

> <W(PB)>
-58.012

> <W(SA)>
2.090

> <Valence>
2.601

> <Coulomb>
45.520

> <VdW>
0.469

> <VdW6>
-6.867

> <VdW12>
7.336

> <Bond>
0.205

> <Angle>
0.962

> <Pdih>
1.434

> <Idih>
0.000

> <Tether>
0.000

$$$$
VeraChem MOL file


 23 22  0  0  0  0  0  0  0  0999 V2000     
   20.0172   19.3376   25.7129 N   0  3  0  0  0  0  0  0  0  0  0  0
   20.4392   20.1019   26.2511 H   0  0  0  0  0  0  0  0  0  0  0  0
   20.1829   18.4749   26.2412 H   0  0  0  0  0  0  0  0  0  0  0  0
   19.0050   19.4991   25.7089 H   0  0  0  0  0  0  0  0  0  0  0  0
   20.5830   19.2581   24.3096 C   0  0  0  0  0  0  0  0  0  0  0  0
   21.6640   19.1146   24.3886 H   0  0  0  0  0  0  0  0  0  0  0  0
   20.3980   20.2167   23.8180 H   0  0  0  0  0  0  0  0  0  0  0  0
   19.9691   18.1191   23.4744 C   0  0  0  0  0  0  0  0  0  0  0  0
   20.1278   17.1656   23.9954 H   0  0  0  0  0  0  0  0  0  0  0  0
   18.8822   18.2550   23.4053 H   0  0  0  0  0  0  0  0  0  0  0  0
   20.5819   18.0213   22.0553 C   0  0  0  0  0  0  0  0  0  0  0  0
   20.1197   17.1800   21.5218 H   0  0  0  0  0  0  0  0  0  0  0  0
   21.6466   17.7651   22.1456 H   0  0  0  0  0  0  0  0  0  0  0  0
   20.4542   19.3110   21.2002 C   0  0  0  0  0  0  0  0  0  0  0  0
   21.0567   20.1100   21.6529 H   0  0  0  0  0  0  0  0  0  0  0  0
   20.9045   19.1246   20.2154 H   0  0  0  0  0  0  0  0  0  0  0  0
   19.0070   19.8276   20.9981 C   0  0  0  0  0  0  0  0  0  0  0  0
   19.0438   20.7443   20.3931 H   0  0  0  0  0  0  0  0  0  0  0  0
   18.5704   20.1213   21.9621 H   0  0  0  0  0  0  0  0  0  0  0  0
   18.0838   18.8058   20.2967 C   0  0  0  0  0  0  0  0  0  0  0  0
   18.5066   18.4875   19.3350 H   0  0  0  0  0  0  0  0  0  0  0  0
   17.0988   19.2486   20.1005 H   0  0  0  0  0  0  0  0  0  0  0  0
   17.9277   17.9135   20.9156 H   0  0  0  0  0  0  0  0  0  0  0  0
  1  2  1  0  0  0  0
  1  3  1  0  0  0  0
  1  4  1  0  0  0  0
  1  5  1  0  0  0  0
  5  6  1  0  0  0  0
  5  7  1  0  0  0  0
  5  8  1  0  0  0  0
  8  9  1  0  0  0  0
  8 10  1  0  0  0  0
  8 11  1  0  0  0  0
 11 12  1  0  0  0  0
 11 13  1  0  0  0  0
 11 14  1  0  0  0  0
 14 15  1  0  0  0  0
 14 16  1  0  0  0  0
 14 17  1  0  0  0  0
 17 18  1  0  0  0  0
 17 19  1  0  0  0  0
 17 20  1  0  0  0  0
 20 21  1  0  0  0  0
 20 22  1  0  0  0  0
 20 23  1  0  0  0  0
M  END
> <VConfSearch Rank>
748

> <Conf_Id>
26

> <Delta U+W>
1.076

> <U+W>
-7.306

> <U>
48.641

> <W>
-55.947

> <W(PB)>
-58.031

> <W(SA)>
2.084

> <Valence>
2.922

> <Coulomb>
45.269

> <VdW>
0.449

> <VdW6>
-7.045

> <VdW12>
7.494

> <Bond>
0.220

> <Angle>
1.205

> <Pdih>
1.497

> <Idih>
0.000

> <Tether>
0.000

$$$$
VeraChem MOL file


 23 22  0  0  0  0  0  0  0  0999 V2000     
   17.7344   19.1871   20.2810 N   0  3  0  0  0  0  0  0  0  0  0  0
   18.1379   19.1883   19.3387 H   0  0  0  0  0  0  0  0  0  0  0  0
   16.8509   19.7052   20.2272 H   0  0  0  0  0  0  0  0  0  0  0  0
   17.4972   18.2157   20.5063 H   0  0  0  0  0  0  0  0  0  0  0  0
   18.6791   19.7899   21.3007 C   0  0  0  0  0  0  0  0  0  0  0  0
   18.1749   19.7838   22.2706 H   0  0  0  0  0  0  0  0  0  0  0  0
   18.8655   20.8290   21.0161 H   0  0  0  0  0  0  0  0  0  0  0  0
   20.0167   19.0339   21.4061 C   0  0  0  0  0  0  0  0  0  0  0  0
   19.8299   17.9874   21.6790 H   0  0  0  0  0  0  0  0  0  0  0  0
   20.4967   19.0138   20.4187 H   0  0  0  0  0  0  0  0  0  0  0  0
   20.9903   19.6807   22.4223 C   0  0  0  0  0  0  0  0  0  0  0  0
   21.2591   20.6848   22.0662 H   0  0  0  0  0  0  0  0  0  0  0  0
   21.9286   19.1102   22.4336 H   0  0  0  0  0  0  0  0  0  0  0  0
   20.4381   19.8001   23.8685 C   0  0  0  0  0  0  0  0  0  0  0  0
   21.2118   20.2542   24.5027 H   0  0  0  0  0  0  0  0  0  0  0  0
   19.5962   20.5053   23.8805 H   0  0  0  0  0  0  0  0  0  0  0  0
   19.9836   18.4658   24.5130 C   0  0  0  0  0  0  0  0  0  0  0  0
   19.1371   18.0434   23.9552 H   0  0  0  0  0  0  0  0  0  0  0  0
   19.6033   18.6762   25.5223 H   0  0  0  0  0  0  0  0  0  0  0  0
   21.1153   17.4183   24.6164 C   0  0  0  0  0  0  0  0  0  0  0  0
   21.4548   17.0936   23.6250 H   0  0  0  0  0  0  0  0  0  0  0  0
   20.7669   16.5275   25.1548 H   0  0  0  0  0  0  0  0  0  0  0  0
   21.9787   17.8231   25.1601 H   0  0  0  0  0  0  0  0  0  0  0  0
  1  2  1  0  0  0  0
  1  3  1  0  0  0  0
  1  4  1  0  0  0  0
  1  5  1  0  0  0  0
  5  6  1  0  0  0  0
  5  7  1  0  0  0  0
  5  8  1  0  0  0  0
  8  9  1  0  0  0  0
  8 10  1  0  0  0  0
  8 11  1  0  0  0  0
 11 12  1  0  0  0  0
 11 13  1  0  0  0  0
 11 14  1  0  0  0  0
 14 15  1  0  0  0  0
 14 16  1  0  0  0  0
 14 17  1  0  0  0  0
 17 18  1  0  0  0  0
 17 19  1  0  0  0  0
 17 20  1  0  0  0  0
 20 21  1  0  0  0  0
 20 22  1  0  0  0  0
 20 23  1  0  0  0  0
M  END
> <VConfSearch Rank>
749

> <Conf_Id>
90

> <Delta U+W>
1.131

> <U+W>
-7.251

> <U>
48.641

> <W>
-55.892

> <W(PB)>
-57.962

> <W(SA)>
2.070

> <Valence>
2.922

> <Coulomb>
45.269

> <VdW>
0.450

> <VdW6>
-7.045

> <VdW12>
7.495

> <Bond>
0.220

> <Angle>
1.205

> <Pdih>
1.497

> <Idih>
0.000

> <Tether>
0.000

$$$$
VeraChem MOL file


 23 22  0  0  0  0  0  0  0  0999 V2000     
   18.3656   16.7249   22.6170 N   0  3  0  0  0  0  0  0  0  0  0  0
   18.2099   15.9479   23.2681 H   0  0  0  0  0  0  0  0  0  0  0  0
   19.3767   16.7948   22.4674 H   0  0  0  0  0  0  0  0  0  0  0  0
   17.9441   16.4547   21.7226 H   0  0  0  0  0  0  0  0  0  0  0  0
   17.7872   18.0242   23.1420 C   0  0  0  0  0  0  0  0  0  0  0  0
   18.2540   18.2375   24.1070 H   0  0  0  0  0  0  0  0  0  0  0  0
   16.7179   17.8690   23.3098 H   0  0  0  0  0  0  0  0  0  0  0  0
   17.9872   19.2210   22.1899 C   0  0  0  0  0  0  0  0  0  0  0  0
   17.4743   19.0155   21.2410 H   0  0  0  0  0  0  0  0  0  0  0  0
   17.4912   20.1007   22.6212 H   0  0  0  0  0  0  0  0  0  0  0  0
   19.4725   19.5593   21.9070 C   0  0  0  0  0  0  0  0  0  0  0  0
   19.5116   20.4093   21.2120 H   0  0  0  0  0  0  0  0  0  0  0  0
   19.9470   18.7173   21.3873 H   0  0  0  0  0  0  0  0  0  0  0  0
   20.2688   19.9138   23.1883 C   0  0  0  0  0  0  0  0  0  0  0  0
   19.7321   20.6996   23.7376 H   0  0  0  0  0  0  0  0  0  0  0  0
   20.3156   19.0448   23.8581 H   0  0  0  0  0  0  0  0  0  0  0  0
   21.7062   20.4097   22.8998 C   0  0  0  0  0  0  0  0  0  0  0  0
   22.1618   20.7392   23.8441 H   0  0  0  0  0  0  0  0  0  0  0  0
   21.6709   21.2956   22.2504 H   0  0  0  0  0  0  0  0  0  0  0  0
   22.6102   19.3315   22.2600 C   0  0  0  0  0  0  0  0  0  0  0  0
   22.6411   18.4246   22.8777 H   0  0  0  0  0  0  0  0  0  0  0  0
   23.6381   19.7032   22.1588 H   0  0  0  0  0  0  0  0  0  0  0  0
   22.2603   19.0543   21.2580 H   0  0  0  0  0  0  0  0  0  0  0  0
  1  2  1  0  0  0  0
  1  3  1  0  0  0  0
  1  4  1  0  0  0  0
  1  5  1  0  0  0  0
  5  6  1  0  0  0  0
  5  7  1  0  0  0  0
  5  8  1  0  0  0  0
  8  9  1  0  0  0  0
  8 10  1  0  0  0  0
  8 11  1  0  0  0  0
 11 12  1  0  0  0  0
 11 13  1  0  0  0  0
 11 14  1  0  0  0  0
 14 15  1  0  0  0  0
 14 16  1  0  0  0  0
 14 17  1  0  0  0  0
 17 18  1  0  0  0  0
 17 19  1  0  0  0  0
 17 20  1  0  0  0  0
 20 21  1  0  0  0  0
 20 22  1  0  0  0  0
 20 23  1  0  0  0  0
M  END
> <VConfSearch Rank>
750

> <Conf_Id>
85

> <Delta U+W>
1.193

> <U+W>
-7.189

> <U>
48.775

> <W>
-55.965

> <W(PB)>
-58.038

> <W(SA)>
2.073

> <Valence>
2.602

> <Coulomb>
45.581

> <VdW>
0.592

> <VdW6>
-6.616

> <VdW12>
7.208

> <Bond>
0.196

> <Angle>
0.832

> <Pdih>
1.574

> <Idih>
0.000

> <Tether>
0.000

$$$$
VeraChem MOL file


 23 22  0  0  0  0  0  0  0  0999 V2000     
   18.4526   20.5318   22.2421 N   0  3  0  0  0  0  0  0  0  0  0  0
   18.6028   19.8496   22.9921 H   0  0  0  0  0  0  0  0  0  0  0  0
   17.4419   20.5887   22.0761 H   0  0  0  0  0  0  0  0  0  0  0  0
   18.7489   21.4469   22.5968 H   0  0  0  0  0  0  0  0  0  0  0  0
   19.2086   20.1459   20.9854 C   0  0  0  0  0  0  0  0  0  0  0  0
   19.0007   20.9167   20.2383 H   0  0  0  0  0  0  0  0  0  0  0  0
   18.8104   19.1978   20.6143 H   0  0  0  0  0  0  0  0  0  0  0  0
   20.7343   20.0330   21.1811 C   0  0  0  0  0  0  0  0  0  0  0  0
   21.2065   20.1514   20.1968 H   0  0  0  0  0  0  0  0  0  0  0  0
   21.0939   20.8747   21.7877 H   0  0  0  0  0  0  0  0  0  0  0  0
   21.2271   18.6901   21.7844 C   0  0  0  0  0  0  0  0  0  0  0  0
   22.3249   18.7271   21.8146 H   0  0  0  0  0  0  0  0  0  0  0  0
   20.9801   17.8613   21.1065 H   0  0  0  0  0  0  0  0  0  0  0  0
   20.7181   18.3796   23.2154 C   0  0  0  0  0  0  0  0  0  0  0  0
   21.5200   17.8707   23.7682 H   0  0  0  0  0  0  0  0  0  0  0  0
   20.5296   19.3132   23.7617 H   0  0  0  0  0  0  0  0  0  0  0  0
   19.4721   17.4607   23.2330 C   0  0  0  0  0  0  0  0  0  0  0  0
   19.7435   16.4749   22.8299 H   0  0  0  0  0  0  0  0  0  0  0  0
   18.6850   17.8491   22.5757 H   0  0  0  0  0  0  0  0  0  0  0  0
   18.9108   17.2876   24.6602 C   0  0  0  0  0  0  0  0  0  0  0  0
   19.6634   16.8493   25.3286 H   0  0  0  0  0  0  0  0  0  0  0  0
   18.0379   16.6219   24.6551 H   0  0  0  0  0  0  0  0  0  0  0  0
   18.5976   18.2501   25.0848 H   0  0  0  0  0  0  0  0  0  0  0  0
  1  2  1  0  0  0  0
  1  3  1  0  0  0  0
  1  4  1  0  0  0  0
  1  5  1  0  0  0  0
  5  6  1  0  0  0  0
  5  7  1  0  0  0  0
  5  8  1  0  0  0  0
  8  9  1  0  0  0  0
  8 10  1  0  0  0  0
  8 11  1  0  0  0  0
 11 12  1  0  0  0  0
 11 13  1  0  0  0  0
 11 14  1  0  0  0  0
 14 15  1  0  0  0  0
 14 16  1  0  0  0  0
 14 17  1  0  0  0  0
 17 18  1  0  0  0  0
 17 19  1  0  0  0  0
 17 20  1  0  0  0  0
 20 21  1  0  0  0  0
 20 22  1  0  0  0  0
 20 23  1  0  0  0  0
M  END
> <VConfSearch Rank>
751

> <Conf_Id>
82

> <Delta U+W>
5.994

> <U+W>
-2.388

> <U>
52.836

> <W>
-55.224

> <W(PB)>
-57.261

> <W(SA)>
2.037

> <Valence>
5.785

> <Coulomb>
46.744

> <VdW>
0.307

> <VdW6>
-7.672

> <VdW12>
7.979

> <Bond>
0.217

> <Angle>
1.470

> <Pdih>
4.098

> <Idih>
0.000

> <Tether>
0.000

$$$$
VeraChem MOL file


 23 22  0  0  0  0  0  0  0  0999 V2000     
   19.2644   17.4041   23.7550 N   0  3  0  0  0  0  0  0  0  0  0  0
   19.6070   17.3861   24.7210 H   0  0  0  0  0  0  0  0  0  0  0  0
   18.4568   16.7729   23.7125 H   0  0  0  0  0  0  0  0  0  0  0  0
   18.9231   18.3526   23.5690 H   0  0  0  0  0  0  0  0  0  0  0  0
   20.3447   17.0031   22.7692 C   0  0  0  0  0  0  0  0  0  0  0  0
   19.9110   16.9757   21.7661 H   0  0  0  0  0  0  0  0  0  0  0  0
   20.6560   15.9884   23.0320 H   0  0  0  0  0  0  0  0  0  0  0  0
   21.5794   17.9274   22.7815 C   0  0  0  0  0  0  0  0  0  0  0  0
   21.8572   18.1617   23.8177 H   0  0  0  0  0  0  0  0  0  0  0  0
   22.4240   17.3613   22.3668 H   0  0  0  0  0  0  0  0  0  0  0  0
   21.4358   19.2354   21.9577 C   0  0  0  0  0  0  0  0  0  0  0  0
   21.2892   18.9954   20.8954 H   0  0  0  0  0  0  0  0  0  0  0  0
   22.3983   19.7630   22.0090 H   0  0  0  0  0  0  0  0  0  0  0  0
   20.3296   20.2069   22.4433 C   0  0  0  0  0  0  0  0  0  0  0  0
   20.1725   20.0928   23.5241 H   0  0  0  0  0  0  0  0  0  0  0  0
   20.6846   21.2376   22.3037 H   0  0  0  0  0  0  0  0  0  0  0  0
   18.9994   20.0535   21.6661 C   0  0  0  0  0  0  0  0  0  0  0  0
   18.6703   19.0077   21.6482 H   0  0  0  0  0  0  0  0  0  0  0  0
   19.1584   20.3385   20.6166 H   0  0  0  0  0  0  0  0  0  0  0  0
   17.8828   20.9335   22.2667 C   0  0  0  0  0  0  0  0  0  0  0  0
   17.6725   20.6554   23.3074 H   0  0  0  0  0  0  0  0  0  0  0  0
   16.9526   20.8233   21.6943 H   0  0  0  0  0  0  0  0  0  0  0  0
   18.1648   21.9944   22.2479 H   0  0  0  0  0  0  0  0  0  0  0  0
  1  2  1  0  0  0  0
  1  3  1  0  0  0  0
  1  4  1  0  0  0  0
  1  5  1  0  0  0  0
  5  6  1  0  0  0  0
  5  7  1  0  0  0  0
  5  8  1  0  0  0  0
  8  9  1  0  0  0  0
  8 10  1  0  0  0  0
  8 11  1  0  0  0  0
 11 12  1  0  0  0  0
 11 13  1  0  0  0  0
 11 14  1  0  0  0  0
 14 15  1  0  0  0  0
 14 16  1  0  0  0  0
 14 17  1  0  0  0  0
 17 18  1  0  0  0  0
 17 19  1  0  0  0  0
 17 20  1  0  0  0  0
 20 21  1  0  0  0  0
 20 22  1  0  0  0  0
 20 23  1  0  0  0  0
M  END
> <VConfSearch Rank>
752

> <Conf_Id>
5

> <Delta U+W>
6.087

> <U+W>
-2.295

> <U>
52.836

> <W>
-55.131

> <W(PB)>
-57.202

> <W(SA)>
2.071

> <Valence>
5.785

> <Coulomb>
46.744

> <VdW>
0.307

> <VdW6>
-7.672

> <VdW12>
7.980

> <Bond>
0.217

> <Angle>
1.470

> <Pdih>
4.098

> <Idih>
0.000

> <Tether>
0.000

$$$$
VeraChem MOL file


 23 22  0  0  0  0  0  0  0  0999 V2000     
   21.9791   16.5754   24.5915 N   0  3  0  0  0  0  0  0  0  0  0  0
   22.5480   17.2904   25.0562 H   0  0  0  0  0  0  0  0  0  0  0  0
   22.5875   15.7640   24.4382 H   0  0  0  0  0  0  0  0  0  0  0  0
   21.2570   16.2842   25.2584 H   0  0  0  0  0  0  0  0  0  0  0  0
   21.3806   17.0830   23.2954 C   0  0  0  0  0  0  0  0  0  0  0  0
   20.8150   16.2647   22.8416 H   0  0  0  0  0  0  0  0  0  0  0  0
   22.2027   17.3462   22.6243 H   0  0  0  0  0  0  0  0  0  0  0  0
   20.4614   18.3018   23.4914 C   0  0  0  0  0  0  0  0  0  0  0  0
   19.6466   18.0376   24.1787 H   0  0  0  0  0  0  0  0  0  0  0  0
   21.0294   19.1152   23.9623 H   0  0  0  0  0  0  0  0  0  0  0  0
   19.8726   18.7877   22.1485 C   0  0  0  0  0  0  0  0  0  0  0  0
   19.3096   17.9694   21.6781 H   0  0  0  0  0  0  0  0  0  0  0  0
   20.6909   19.0460   21.4620 H   0  0  0  0  0  0  0  0  0  0  0  0
   18.9474   20.0119   22.3337 C   0  0  0  0  0  0  0  0  0  0  0  0
   18.1290   19.7538   23.0200 H   0  0  0  0  0  0  0  0  0  0  0  0
   19.5101   20.8302   22.8040 H   0  0  0  0  0  0  0  0  0  0  0  0
   18.3587   20.4977   20.9904 C   0  0  0  0  0  0  0  0  0  0  0  0
   17.7927   19.6833   20.5170 H   0  0  0  0  0  0  0  0  0  0  0  0
   19.1737   20.7596   20.3010 H   0  0  0  0  0  0  0  0  0  0  0  0
   17.4355   21.7202   21.1793 C   0  0  0  0  0  0  0  0  0  0  0  0
   17.0274   22.0504   20.2152 H   0  0  0  0  0  0  0  0  0  0  0  0
   17.9826   22.5638   21.6201 H   0  0  0  0  0  0  0  0  0  0  0  0
   16.5908   21.4791   21.8378 H   0  0  0  0  0  0  0  0  0  0  0  0
  1  2  1  0  0  0  0
  1  3  1  0  0  0  0
  1  4  1  0  0  0  0
  1  5  1  0  0  0  0
  5  6  1  0  0  0  0
  5  7  1  0  0  0  0
  5  8  1  0  0  0  0
  8  9  1  0  0  0  0
  8 10  1  0  0  0  0
  8 11  1  0  0  0  0
 11 12  1  0  0  0  0
 11 13  1  0  0  0  0
 11 14  1  0  0  0  0
 14 15  1  0  0  0  0
 14 16  1  0  0  0  0
 14 17  1  0  0  0  0
 17 18  1  0  0  0  0
 17 19  1  0  0  0  0
 17 20  1  0  0  0  0
 20 21  1  0  0  0  0
 20 22  1  0  0  0  0
 20 23  1  0  0  0  0
M  END
> <VConfSearch Rank>
753

> <Conf_Id>
40

> <Delta U+W>
0.000

> <U+W>
-8.382

> <U>
46.604

> <W>
-54.986

> <W(PB)>
-57.162

> <W(SA)>
2.176

> <Valence>
1.727

> <Coulomb>
44.434

> <VdW>
0.443

> <VdW6>
-4.623

> <VdW12>
5.066

> <Bond>
0.112

> <Angle>
0.386

> <Pdih>
1.228

> <Idih>
0.000

> <Tether>
0.000

$$$$
VeraChem MOL file


 23 22  0  0  0  0  0  0  0  0999 V2000     
   18.1609   21.9064   23.9807 N   0  3  0  0  0  0  0  0  0  0  0  0
   17.1420   21.8059   23.9296 H   0  0  0  0  0  0  0  0  0  0  0  0
   18.4363   22.5638   23.2439 H   0  0  0  0  0  0  0  0  0  0  0  0
   18.3710   22.3583   24.8772 H   0  0  0  0  0  0  0  0  0  0  0  0
   18.8682   20.5735   23.8426 C   0  0  0  0  0  0  0  0  0  0  0  0
   18.5512   19.9357   24.6721 H   0  0  0  0  0  0  0  0  0  0  0  0
   19.9421   20.7531   23.9372 H   0  0  0  0  0  0  0  0  0  0  0  0
   18.5719   19.8691   22.5050 C   0  0  0  0  0  0  0  0  0  0  0  0
   17.4864   19.7385   22.4026 H   0  0  0  0  0  0  0  0  0  0  0  0
   18.8912   20.5088   21.6714 H   0  0  0  0  0  0  0  0  0  0  0  0
   19.2556   18.4859   22.3905 C   0  0  0  0  0  0  0  0  0  0  0  0
   18.9052   18.0052   21.4680 H   0  0  0  0  0  0  0  0  0  0  0  0
   18.9268   17.8450   23.2203 H   0  0  0  0  0  0  0  0  0  0  0  0
   20.8032   18.5717   22.3766 C   0  0  0  0  0  0  0  0  0  0  0  0
   21.1321   19.1958   21.5342 H   0  0  0  0  0  0  0  0  0  0  0  0
   21.1515   19.0748   23.2882 H   0  0  0  0  0  0  0  0  0  0  0  0
   21.4959   17.1896   22.2957 C   0  0  0  0  0  0  0  0  0  0  0  0
   21.1785   16.5645   23.1421 H   0  0  0  0  0  0  0  0  0  0  0  0
   22.5797   17.3322   22.4091 H   0  0  0  0  0  0  0  0  0  0  0  0
   21.2300   16.4429   20.9687 C   0  0  0  0  0  0  0  0  0  0  0  0
   20.1740   16.1641   20.8664 H   0  0  0  0  0  0  0  0  0  0  0  0
   21.8200   15.5183   20.9238 H   0  0  0  0  0  0  0  0  0  0  0  0
   21.5086   17.0606   20.1051 H   0  0  0  0  0  0  0  0  0  0  0  0
  1  2  1  0  0  0  0
  1  3  1  0  0  0  0
  1  4  1  0  0  0  0
  1  5  1  0  0  0  0
  5  6  1  0  0  0  0
  5  7  1  0  0  0  0
  5  8  1  0  0  0  0
  8  9  1  0  0  0  0
  8 10  1  0  0  0  0
  8 11  1  0  0  0  0
 11 12  1  0  0  0  0
 11 13  1  0  0  0  0
 11 14  1  0  0  0  0
 14 15  1  0  0  0  0
 14 16  1  0  0  0  0
 14 17  1  0  0  0  0
 17 18  1  0  0  0  0
 17 19  1  0  0  0  0
 17 20  1  0  0  0  0
 20 21  1  0  0  0  0
 20 22  1  0  0  0  0
 20 23  1  0  0  0  0
M  END
> <VConfSearch Rank>
754

> <Conf_Id>
65

> <Delta U+W>
1.004

> <U+W>
-7.378

> <U>
48.047

> <W>
-55.425

> <W(PB)>
-57.542

> <W(SA)>
2.116

> <Valence>
2.583

> <Coulomb>
44.791

> <VdW>
0.673

> <VdW6>
-5.788

> <VdW12>
6.462

> <Bond>
0.177

> <Angle>
0.787

> <Pdih>
1.619

> <Idih>
0.000

> <Tether>
0.000

$$$$
VeraChem MOL file


 23 22  0  0  0  0  0  0  0  0999 V2000     
   21.9189   18.6642   19.7792 N   0  3  0  0  0  0  0  0  0  0  0  0
   22.0583   17.6724   19.5603 H   0  0  0  0  0  0  0  0  0  0  0  0
   22.8195   19.1316   19.6294 H   0  0  0  0  0  0  0  0  0  0  0  0
   21.2690   19.0386   19.0804 H   0  0  0  0  0  0  0  0  0  0  0  0
   21.4082   18.8651   21.1915 C   0  0  0  0  0  0  0  0  0  0  0  0
   21.3136   19.9403   21.3633 H   0  0  0  0  0  0  0  0  0  0  0  0
   22.1592   18.4708   21.8813 H   0  0  0  0  0  0  0  0  0  0  0  0
   20.0556   18.1738   21.4480 C   0  0  0  0  0  0  0  0  0  0  0  0
   19.3005   18.5704   20.7562 H   0  0  0  0  0  0  0  0  0  0  0  0
   20.1538   17.1029   21.2255 H   0  0  0  0  0  0  0  0  0  0  0  0
   19.5636   18.3393   22.9054 C   0  0  0  0  0  0  0  0  0  0  0  0
   20.3166   17.9328   23.5946 H   0  0  0  0  0  0  0  0  0  0  0  0
   18.6611   17.7279   23.0345 H   0  0  0  0  0  0  0  0  0  0  0  0
   19.2522   19.8111   23.2788 C   0  0  0  0  0  0  0  0  0  0  0  0
   20.1485   20.4265   23.1259 H   0  0  0  0  0  0  0  0  0  0  0  0
   18.4840   20.2104   22.6023 H   0  0  0  0  0  0  0  0  0  0  0  0
   18.7909   19.9900   24.7457 C   0  0  0  0  0  0  0  0  0  0  0  0
   18.7060   21.0648   24.9591 H   0  0  0  0  0  0  0  0  0  0  0  0
   19.5604   19.6017   25.4275 H   0  0  0  0  0  0  0  0  0  0  0  0
   17.4348   19.3147   25.0527 C   0  0  0  0  0  0  0  0  0  0  0  0
   17.5008   18.2224   24.9763 H   0  0  0  0  0  0  0  0  0  0  0  0
   16.6552   19.6619   24.3623 H   0  0  0  0  0  0  0  0  0  0  0  0
   17.1094   19.5539   26.0734 H   0  0  0  0  0  0  0  0  0  0  0  0
  1  2  1  0  0  0  0
  1  3  1  0  0  0  0
  1  4  1  0  0  0  0
  1  5  1  0  0  0  0
  5  6  1  0  0  0  0
  5  7  1  0  0  0  0
  5  8  1  0  0  0  0
  8  9  1  0  0  0  0
  8 10  1  0  0  0  0
  8 11  1  0  0  0  0
 11 12  1  0  0  0  0
 11 13  1  0  0  0  0
 11 14  1  0  0  0  0
 14 15  1  0  0  0  0
 14 16  1  0  0  0  0
 14 17  1  0  0  0  0
 17 18  1  0  0  0  0
 17 19  1  0  0  0  0
 17 20  1  0  0  0  0
 20 21  1  0  0  0  0
 20 22  1  0  0  0  0
 20 23  1  0  0  0  0
M  END
> <VConfSearch Rank>
755

> <Conf_Id>
92

> <Delta U+W>
0.973

> <U+W>
-7.409

> <U>
48.047

> <W>
-55.456

> <W(PB)>
-57.595

> <W(SA)>
2.138

> <Valence>
2.583

> <Coulomb>
44.791

> <VdW>
0.674

> <VdW6>
-5.789

> <VdW12>
6.462

> <Bond>
0.177

> <Angle>
0.787

> <Pdih>
1.619

> <Idih>
0.000

> <Tether>
0.000

$$$$
VeraChem MOL file


 23 22  0  0  0  0  0  0  0  0999 V2000     
   19.3078   22.4319   23.1641 N   0  3  0  0  0  0  0  0  0  0  0  0
   18.4967   22.7880   23.6811 H   0  0  0  0  0  0  0  0  0  0  0  0
   19.4356   23.0445   22.3522 H   0  0  0  0  0  0  0  0  0  0  0  0
   20.1257   22.5586   23.7690 H   0  0  0  0  0  0  0  0  0  0  0  0
   19.1245   20.9841   22.7566 C   0  0  0  0  0  0  0  0  0  0  0  0
   18.2236   20.9182   22.1407 H   0  0  0  0  0  0  0  0  0  0  0  0
   18.9640   20.3980   23.6652 H   0  0  0  0  0  0  0  0  0  0  0  0
   20.3274   20.4196   21.9773 C   0  0  0  0  0  0  0  0  0  0  0  0
   20.5053   21.0435   21.0912 H   0  0  0  0  0  0  0  0  0  0  0  0
   21.2324   20.4866   22.5957 H   0  0  0  0  0  0  0  0  0  0  0  0
   20.1135   18.9556   21.5255 C   0  0  0  0  0  0  0  0  0  0  0  0
   20.9647   18.6522   20.9002 H   0  0  0  0  0  0  0  0  0  0  0  0
   19.2218   18.8961   20.8859 H   0  0  0  0  0  0  0  0  0  0  0  0
   19.9742   17.9681   22.7091 C   0  0  0  0  0  0  0  0  0  0  0  0
   20.8521   18.0540   23.3643 H   0  0  0  0  0  0  0  0  0  0  0  0
   19.0973   18.2304   23.3159 H   0  0  0  0  0  0  0  0  0  0  0  0
   19.8358   16.5077   22.2245 C   0  0  0  0  0  0  0  0  0  0  0  0
   20.7128   16.2313   21.6225 H   0  0  0  0  0  0  0  0  0  0  0  0
   18.9592   16.4162   21.5679 H   0  0  0  0  0  0  0  0  0  0  0  0
   19.6956   15.5239   23.4056 C   0  0  0  0  0  0  0  0  0  0  0  0
   20.5739   15.5683   24.0628 H   0  0  0  0  0  0  0  0  0  0  0  0
   19.5990   14.4927   23.0418 H   0  0  0  0  0  0  0  0  0  0  0  0
   18.8065   15.7534   24.0073 H   0  0  0  0  0  0  0  0  0  0  0  0
  1  2  1  0  0  0  0
  1  3  1  0  0  0  0
  1  4  1  0  0  0  0
  1  5  1  0  0  0  0
  5  6  1  0  0  0  0
  5  7  1  0  0  0  0
  5  8  1  0  0  0  0
  8  9  1  0  0  0  0
  8 10  1  0  0  0  0
  8 11  1  0  0  0  0
 11 12  1  0  0  0  0
 11 13  1  0  0  0  0
 11 14  1  0  0  0  0
 14 15  1  0  0  0  0
 14 16  1  0  0  0  0
 14 17  1  0  0  0  0
 17 18  1  0  0  0  0
 17 19  1  0  0  0  0
 17 20  1  0  0  0  0
 20 21  1  0  0  0  0
 20 22  1  0  0  0  0
 20 23  1  0  0  0  0
M  END
> <VConfSearch Rank>
756

> <Conf_Id>
42

> <Delta U+W>
0.365

> <U+W>
-8.017

> <U>
47.375

> <W>
-55.392

> <W(PB)>
-57.543

> <W(SA)>
2.152

> <Valence>
2.032

> <Coulomb>
44.843

> <VdW>
0.499

> <VdW6>
-5.218

> <VdW12>
5.717

> <Bond>
0.135

> <Angle>
0.514

> <Pdih>
1.383

> <Idih>
0.000

> <Tether>
0.000

$$$$
VeraChem MOL file


 23 22  0  0  0  0  0  0  0  0999 V2000     
   22.2418   20.8803   23.1868 N   0  3  0  0  0  0  0  0  0  0  0  0
   21.8573   21.2181   24.0749 H   0  0  0  0  0  0  0  0  0  0  0  0
   22.9845   21.5335   22.9152 H   0  0  0  0  0  0  0  0  0  0  0  0
   22.6905   19.9787   23.3744 H   0  0  0  0  0  0  0  0  0  0  0  0
   21.1734   20.7668   22.1166 C   0  0  0  0  0  0  0  0  0  0  0  0
   21.6510   20.4267   21.1938 H   0  0  0  0  0  0  0  0  0  0  0  0
   20.7727   21.7692   21.9429 H   0  0  0  0  0  0  0  0  0  0  0  0
   20.0197   19.8140   22.4858 C   0  0  0  0  0  0  0  0  0  0  0  0
   19.5594   20.1417   23.4273 H   0  0  0  0  0  0  0  0  0  0  0  0
   19.2520   19.9000   21.7070 H   0  0  0  0  0  0  0  0  0  0  0  0
   20.4748   18.3386   22.5990 C   0  0  0  0  0  0  0  0  0  0  0  0
   21.3145   18.2683   23.3027 H   0  0  0  0  0  0  0  0  0  0  0  0
   20.8615   18.0016   21.6273 H   0  0  0  0  0  0  0  0  0  0  0  0
   19.3686   17.3633   23.0787 C   0  0  0  0  0  0  0  0  0  0  0  0
   19.8215   16.3655   23.1610 H   0  0  0  0  0  0  0  0  0  0  0  0
   19.0484   17.6265   24.0963 H   0  0  0  0  0  0  0  0  0  0  0  0
   18.1389   17.2581   22.1399 C   0  0  0  0  0  0  0  0  0  0  0  0
   17.7805   16.2191   22.1477 H   0  0  0  0  0  0  0  0  0  0  0  0
   18.4313   17.4682   21.1017 H   0  0  0  0  0  0  0  0  0  0  0  0
   16.9636   18.1700   22.5634 C   0  0  0  0  0  0  0  0  0  0  0  0
   16.6149   17.9156   23.5727 H   0  0  0  0  0  0  0  0  0  0  0  0
   16.1154   18.0463   21.8777 H   0  0  0  0  0  0  0  0  0  0  0  0
   17.2411   19.2298   22.5603 H   0  0  0  0  0  0  0  0  0  0  0  0
  1  2  1  0  0  0  0
  1  3  1  0  0  0  0
  1  4  1  0  0  0  0
  1  5  1  0  0  0  0
  5  6  1  0  0  0  0
  5  7  1  0  0  0  0
  5  8  1  0  0  0  0
  8  9  1  0  0  0  0
  8 10  1  0  0  0  0
  8 11  1  0  0  0  0
 11 12  1  0  0  0  0
 11 13  1  0  0  0  0
 11 14  1  0  0  0  0
 14 15  1  0  0  0  0
 14 16  1  0  0  0  0
 14 17  1  0  0  0  0
 17 18  1  0  0  0  0
 17 19  1  0  0  0  0
 17 20  1  0  0  0  0
 20 21  1  0  0  0  0
 20 22  1  0  0  0  0
 20 23  1  0  0  0  0
M  END
> <VConfSearch Rank>
757

> <Conf_Id>
3

> <Delta U+W>
3.283

> <U+W>
-5.099

> <U>
50.701

> <W>
-55.800

> <W(PB)>
-57.867

> <W(SA)>
2.067

> <Valence>
4.880

> <Coulomb>
45.095

> <VdW>
0.726

> <VdW6>
-6.620

> <VdW12>
7.346

> <Bond>
0.222

> <Angle>
1.260

> <Pdih>
3.398

> <Idih>
0.000

> <Tether>
0.000

$$$$
VeraChem MOL file


 23 22  0  0  0  0  0  0  0  0999 V2000     
   22.1909   20.6755   22.2241 N   0  3  0  0  0  0  0  0  0  0  0  0
   22.7800   20.3661   21.4445 H   0  0  0  0  0  0  0  0  0  0  0  0
   22.6319   21.5133   22.6183 H   0  0  0  0  0  0  0  0  0  0  0  0
   21.2920   20.9665   21.8283 H   0  0  0  0  0  0  0  0  0  0  0  0
   22.0177   19.5872   23.2653 C   0  0  0  0  0  0  0  0  0  0  0  0
   21.4090   19.9899   24.0788 H   0  0  0  0  0  0  0  0  0  0  0  0
   23.0066   19.3514   23.6677 H   0  0  0  0  0  0  0  0  0  0  0  0
   21.3699   18.3000   22.7149 C   0  0  0  0  0  0  0  0  0  0  0  0
   22.0177   17.8790   21.9346 H   0  0  0  0  0  0  0  0  0  0  0  0
   21.3342   17.5523   23.5184 H   0  0  0  0  0  0  0  0  0  0  0  0
   19.9443   18.5015   22.1416 C   0  0  0  0  0  0  0  0  0  0  0  0
   19.5990   17.5386   21.7437 H   0  0  0  0  0  0  0  0  0  0  0  0
   19.9786   19.1905   21.2873 H   0  0  0  0  0  0  0  0  0  0  0  0
   18.9314   19.0204   23.1938 C   0  0  0  0  0  0  0  0  0  0  0  0
   18.8777   18.3158   24.0351 H   0  0  0  0  0  0  0  0  0  0  0  0
   19.2881   19.9717   23.6100 H   0  0  0  0  0  0  0  0  0  0  0  0
   17.5114   19.2494   22.6213 C   0  0  0  0  0  0  0  0  0  0  0  0
   17.5573   19.9621   21.7860 H   0  0  0  0  0  0  0  0  0  0  0  0
   16.8924   19.7237   23.3957 H   0  0  0  0  0  0  0  0  0  0  0  0
   16.8158   17.9490   22.1580 C   0  0  0  0  0  0  0  0  0  0  0  0
   16.7870   17.2069   22.9664 H   0  0  0  0  0  0  0  0  0  0  0  0
   17.3280   17.5012   21.2975 H   0  0  0  0  0  0  0  0  0  0  0  0
   15.7811   18.1544   21.8545 H   0  0  0  0  0  0  0  0  0  0  0  0
  1  2  1  0  0  0  0
  1  3  1  0  0  0  0
  1  4  1  0  0  0  0
  1  5  1  0  0  0  0
  5  6  1  0  0  0  0
  5  7  1  0  0  0  0
  5  8  1  0  0  0  0
  8  9  1  0  0  0  0
  8 10  1  0  0  0  0
  8 11  1  0  0  0  0
 11 12  1  0  0  0  0
 11 13  1  0  0  0  0
 11 14  1  0  0  0  0
 14 15  1  0  0  0  0
 14 16  1  0  0  0  0
 14 17  1  0  0  0  0
 17 18  1  0  0  0  0
 17 19  1  0  0  0  0
 17 20  1  0  0  0  0
 20 21  1  0  0  0  0
 20 22  1  0  0  0  0
 20 23  1  0  0  0  0
M  END
> <VConfSearch Rank>
758

> <Conf_Id>
83

> <Delta U+W>
1.229

> <U+W>
-7.154

> <U>
48.727

> <W>
-55.880

> <W(PB)>
-57.960

> <W(SA)>
2.080

> <Valence>
2.671

> <Coulomb>
45.371

> <VdW>
0.684

> <VdW6>
-6.511

> <VdW12>
7.195

> <Bond>
0.203

> <Angle>
0.915

> <Pdih>
1.554

> <Idih>
0.000

> <Tether>
0.000

$$$$
VeraChem MOL file


 23 22  0  0  0  0  0  0  0  0999 V2000     
   21.9216   20.7056   23.4587 N   0  3  0  0  0  0  0  0  0  0  0  0
   22.1461   20.5978   24.4530 H   0  0  0  0  0  0  0  0  0  0  0  0
   20.9670   21.0731   23.4014 H   0  0  0  0  0  0  0  0  0  0  0  0
   22.5459   21.4299   23.0878 H   0  0  0  0  0  0  0  0  0  0  0  0
   22.0642   19.3984   22.7043 C   0  0  0  0  0  0  0  0  0  0  0  0
   23.1089   19.0841   22.7780 H   0  0  0  0  0  0  0  0  0  0  0  0
   21.8420   19.5886   21.6513 H   0  0  0  0  0  0  0  0  0  0  0  0
   21.1533   18.2729   23.2362 C   0  0  0  0  0  0  0  0  0  0  0  0
   21.3613   17.3547   22.6710 H   0  0  0  0  0  0  0  0  0  0  0  0
   21.4228   18.0573   24.2787 H   0  0  0  0  0  0  0  0  0  0  0  0
   19.6386   18.5901   23.1552 C   0  0  0  0  0  0  0  0  0  0  0  0
   19.4054   19.4634   23.7787 H   0  0  0  0  0  0  0  0  0  0  0  0
   19.0909   17.7463   23.5943 H   0  0  0  0  0  0  0  0  0  0  0  0
   19.1426   18.8321   21.7068 C   0  0  0  0  0  0  0  0  0  0  0  0
   19.7068   19.6603   21.2582 H   0  0  0  0  0  0  0  0  0  0  0  0
   19.3518   17.9465   21.0910 H   0  0  0  0  0  0  0  0  0  0  0  0
   17.6357   19.1759   21.6210 C   0  0  0  0  0  0  0  0  0  0  0  0
   17.3950   19.4453   20.5830 H   0  0  0  0  0  0  0  0  0  0  0  0
   17.4224   20.0678   22.2267 H   0  0  0  0  0  0  0  0  0  0  0  0
   16.7124   18.0163   22.0593 C   0  0  0  0  0  0  0  0  0  0  0  0
   16.9288   17.1025   21.4908 H   0  0  0  0  0  0  0  0  0  0  0  0
   15.6602   18.2773   21.8866 H   0  0  0  0  0  0  0  0  0  0  0  0
   16.8243   17.7921   23.1272 H   0  0  0  0  0  0  0  0  0  0  0  0
  1  2  1  0  0  0  0
  1  3  1  0  0  0  0
  1  4  1  0  0  0  0
  1  5  1  0  0  0  0
  5  6  1  0  0  0  0
  5  7  1  0  0  0  0
  5  8  1  0  0  0  0
  8  9  1  0  0  0  0
  8 10  1  0  0  0  0
  8 11  1  0  0  0  0
 11 12  1  0  0  0  0
 11 13  1  0  0  0  0
 11 14  1  0  0  0  0
 14 15  1  0  0  0  0
 14 16  1  0  0  0  0
 14 17  1  0  0  0  0
 17 18  1  0  0  0  0
 17 19  1  0  0  0  0
 17 20  1  0  0  0  0
 20 21  1  0  0  0  0
 20 22  1  0  0  0  0
 20 23  1  0  0  0  0
M  END
> <VConfSearch Rank>
759

> <Conf_Id>
50

> <Delta U+W>
1.252

> <U+W>
-7.130

> <U>
48.727

> <W>
-55.857

> <W(PB)>
-57.937

> <W(SA)>
2.080

> <Valence>
2.671

> <Coulomb>
45.371

> <VdW>
0.684

> <VdW6>
-6.511

> <VdW12>
7.196

> <Bond>
0.203

> <Angle>
0.915

> <Pdih>
1.554

> <Idih>
0.000

> <Tether>
0.000

$$$$
VeraChem MOL file


 23 22  0  0  0  0  0  0  0  0999 V2000     
   17.8850   21.5027   21.9535 N   0  3  0  0  0  0  0  0  0  0  0  0
   17.3632   21.0109   22.6852 H   0  0  0  0  0  0  0  0  0  0  0  0
   17.1939   21.8983   21.3071 H   0  0  0  0  0  0  0  0  0  0  0  0
   18.3626   22.2921   22.4000 H   0  0  0  0  0  0  0  0  0  0  0  0
   18.8591   20.5836   21.2423 C   0  0  0  0  0  0  0  0  0  0  0  0
   19.3460   21.1635   20.4535 H   0  0  0  0  0  0  0  0  0  0  0  0
   18.2857   19.7812   20.7703 H   0  0  0  0  0  0  0  0  0  0  0  0
   19.9325   19.9783   22.1676 C   0  0  0  0  0  0  0  0  0  0  0  0
   20.6462   19.4241   21.5478 H   0  0  0  0  0  0  0  0  0  0  0  0
   20.5020   20.7878   22.6431 H   0  0  0  0  0  0  0  0  0  0  0  0
   19.3305   19.0500   23.2532 C   0  0  0  0  0  0  0  0  0  0  0  0
   18.6811   18.2930   22.7921 H   0  0  0  0  0  0  0  0  0  0  0  0
   18.6825   19.6507   23.9054 H   0  0  0  0  0  0  0  0  0  0  0  0
   20.4028   18.3623   24.1383 C   0  0  0  0  0  0  0  0  0  0  0  0
   21.2986   18.9941   24.2129 H   0  0  0  0  0  0  0  0  0  0  0  0
   20.0070   18.2892   25.1608 H   0  0  0  0  0  0  0  0  0  0  0  0
   20.7950   16.9319   23.6876 C   0  0  0  0  0  0  0  0  0  0  0  0
   19.9095   16.2815   23.7144 H   0  0  0  0  0  0  0  0  0  0  0  0
   21.4994   16.5161   24.4217 H   0  0  0  0  0  0  0  0  0  0  0  0
   21.4408   16.8600   22.2866 C   0  0  0  0  0  0  0  0  0  0  0  0
   22.2956   17.5442   22.2087 H   0  0  0  0  0  0  0  0  0  0  0  0
   20.7178   17.1116   21.5010 H   0  0  0  0  0  0  0  0  0  0  0  0
   21.8043   15.8444   22.0837 H   0  0  0  0  0  0  0  0  0  0  0  0
  1  2  1  0  0  0  0
  1  3  1  0  0  0  0
  1  4  1  0  0  0  0
  1  5  1  0  0  0  0
  5  6  1  0  0  0  0
  5  7  1  0  0  0  0
  5  8  1  0  0  0  0
  8  9  1  0  0  0  0
  8 10  1  0  0  0  0
  8 11  1  0  0  0  0
 11 12  1  0  0  0  0
 11 13  1  0  0  0  0
 11 14  1  0  0  0  0
 14 15  1  0  0  0  0
 14 16  1  0  0  0  0
 14 17  1  0  0  0  0
 17 18  1  0  0  0  0
 17 19  1  0  0  0  0
 17 20  1  0  0  0  0
 20 21  1  0  0  0  0
 20 22  1  0  0  0  0
 20 23  1  0  0  0  0
M  END
> <VConfSearch Rank>
760

> <Conf_Id>
55

> <Delta U+W>
3.232

> <U+W>
-5.150

> <U>
50.625

> <W>
-55.776

> <W(PB)>
-57.839

> <W(SA)>
2.064

> <Valence>
4.837

> <Coulomb>
45.097

> <VdW>
0.692

> <VdW6>
-6.655

> <VdW12>
7.347

> <Bond>
0.223

> <Angle>
1.167

> <Pdih>
3.447

> <Idih>
0.000

> <Tether>
0.000

$$$$
VeraChem MOL file


 23 22  0  0  0  0  0  0  0  0999 V2000     
   22.3532   20.2134   21.1421 N   0  3  0  0  0  0  0  0  0  0  0  0
   22.8337   21.0535   21.4800 H   0  0  0  0  0  0  0  0  0  0  0  0
   22.4009   20.2350   20.1178 H   0  0  0  0  0  0  0  0  0  0  0  0
   22.9054   19.4063   21.4494 H   0  0  0  0  0  0  0  0  0  0  0  0
   20.9232   20.1424   21.6380 C   0  0  0  0  0  0  0  0  0  0  0  0
   20.4666   19.2474   21.2115 H   0  0  0  0  0  0  0  0  0  0  0  0
   20.3896   21.0145   21.2507 H   0  0  0  0  0  0  0  0  0  0  0  0
   20.8195   20.1157   23.1756 C   0  0  0  0  0  0  0  0  0  0  0  0
   21.3901   19.2704   23.5826 H   0  0  0  0  0  0  0  0  0  0  0  0
   21.2945   21.0262   23.5645 H   0  0  0  0  0  0  0  0  0  0  0  0
   19.3570   20.0665   23.6858 C   0  0  0  0  0  0  0  0  0  0  0  0
   18.7137   20.6851   23.0446 H   0  0  0  0  0  0  0  0  0  0  0  0
   19.3258   20.5362   24.6787 H   0  0  0  0  0  0  0  0  0  0  0  0
   18.7598   18.6418   23.8243 C   0  0  0  0  0  0  0  0  0  0  0  0
   19.3520   18.0656   24.5486 H   0  0  0  0  0  0  0  0  0  0  0  0
   17.7544   18.7337   24.2580 H   0  0  0  0  0  0  0  0  0  0  0  0
   18.6625   17.8525   22.4984 C   0  0  0  0  0  0  0  0  0  0  0  0
   19.6689   17.6148   22.1301 H   0  0  0  0  0  0  0  0  0  0  0  0
   18.1712   18.4680   21.7319 H   0  0  0  0  0  0  0  0  0  0  0  0
   17.8786   16.5348   22.6766 C   0  0  0  0  0  0  0  0  0  0  0  0
   16.8499   16.7283   23.0077 H   0  0  0  0  0  0  0  0  0  0  0  0
   18.3607   15.8863   23.4198 H   0  0  0  0  0  0  0  0  0  0  0  0
   17.8285   15.9824   21.7293 H   0  0  0  0  0  0  0  0  0  0  0  0
  1  2  1  0  0  0  0
  1  3  1  0  0  0  0
  1  4  1  0  0  0  0
  1  5  1  0  0  0  0
  5  6  1  0  0  0  0
  5  7  1  0  0  0  0
  5  8  1  0  0  0  0
  8  9  1  0  0  0  0
  8 10  1  0  0  0  0
  8 11  1  0  0  0  0
 11 12  1  0  0  0  0
 11 13  1  0  0  0  0
 11 14  1  0  0  0  0
 14 15  1  0  0  0  0
 14 16  1  0  0  0  0
 14 17  1  0  0  0  0
 17 18  1  0  0  0  0
 17 19  1  0  0  0  0
 17 20  1  0  0  0  0
 20 21  1  0  0  0  0
 20 22  1  0  0  0  0
 20 23  1  0  0  0  0
M  END
> <VConfSearch Rank>
761

> <Conf_Id>
93

> <Delta U+W>
2.589

> <U+W>
-5.793

> <U>
50.122

> <W>
-55.915

> <W(PB)>
-58.031

> <W(SA)>
2.115

> <Valence>
4.132

> <Coulomb>
45.536

> <VdW>
0.454

> <VdW6>
-6.262

> <VdW12>
6.715

> <Bond>
0.182

> <Angle>
1.157

> <Pdih>
2.794

> <Idih>
0.000

> <Tether>
0.000

$$$$
VeraChem MOL file


 23 22  0  0  0  0  0  0  0  0999 V2000     
   22.3261   17.3863   21.8963 N   0  3  0  0  0  0  0  0  0  0  0  0
   22.7987   18.2738   21.6968 H   0  0  0  0  0  0  0  0  0  0  0  0
   22.3832   16.8196   21.0433 H   0  0  0  0  0  0  0  0  0  0  0  0
   22.8801   16.9040   22.6114 H   0  0  0  0  0  0  0  0  0  0  0  0
   20.8922   17.5957   22.3385 C   0  0  0  0  0  0  0  0  0  0  0  0
   20.4448   16.6120   22.5047 H   0  0  0  0  0  0  0  0  0  0  0  0
   20.3575   18.0782   21.5184 H   0  0  0  0  0  0  0  0  0  0  0  0
   20.7750   18.4388   23.6235 C   0  0  0  0  0  0  0  0  0  0  0  0
   21.3298   17.9245   24.4197 H   0  0  0  0  0  0  0  0  0  0  0  0
   21.2616   19.4136   23.4868 H   0  0  0  0  0  0  0  0  0  0  0  0
   19.3106   18.6349   24.0910 C   0  0  0  0  0  0  0  0  0  0  0  0
   19.3159   18.7742   25.1810 H   0  0  0  0  0  0  0  0  0  0  0  0
   18.7323   17.7178   23.9119 H   0  0  0  0  0  0  0  0  0  0  0  0
   18.5826   19.8545   23.4680 C   0  0  0  0  0  0  0  0  0  0  0  0
   17.5869   19.9287   23.9268 H   0  0  0  0  0  0  0  0  0  0  0  0
   19.1133   20.7767   23.7423 H   0  0  0  0  0  0  0  0  0  0  0  0
   18.4222   19.7930   21.9315 C   0  0  0  0  0  0  0  0  0  0  0  0
   17.9960   18.8234   21.6384 H   0  0  0  0  0  0  0  0  0  0  0  0
   19.4048   19.8764   21.4493 H   0  0  0  0  0  0  0  0  0  0  0  0
   17.5178   20.9290   21.4077 C   0  0  0  0  0  0  0  0  0  0  0  0
   17.4238   20.8770   20.3152 H   0  0  0  0  0  0  0  0  0  0  0  0
   17.9321   21.9129   21.6637 H   0  0  0  0  0  0  0  0  0  0  0  0
   16.5092   20.8607   21.8356 H   0  0  0  0  0  0  0  0  0  0  0  0
  1  2  1  0  0  0  0
  1  3  1  0  0  0  0
  1  4  1  0  0  0  0
  1  5  1  0  0  0  0
  5  6  1  0  0  0  0
  5  7  1  0  0  0  0
  5  8  1  0  0  0  0
  8  9  1  0  0  0  0
  8 10  1  0  0  0  0
  8 11  1  0  0  0  0
 11 12  1  0  0  0  0
 11 13  1  0  0  0  0
 11 14  1  0  0  0  0
 14 15  1  0  0  0  0
 14 16  1  0  0  0  0
 14 17  1  0  0  0  0
 17 18  1  0  0  0  0
 17 19  1  0  0  0  0
 17 20  1  0  0  0  0
 20 21  1  0  0  0  0
 20 22  1  0  0  0  0
 20 23  1  0  0  0  0
M  END
> <VConfSearch Rank>
762

> <Conf_Id>
70

> <Delta U+W>
2.599

> <U+W>
-5.783

> <U>
50.122

> <W>
-55.906

> <W(PB)>
-58.010

> <W(SA)>
2.105

> <Valence>
4.132

> <Coulomb>
45.536

> <VdW>
0.454

> <VdW6>
-6.262

> <VdW12>
6.715

> <Bond>
0.182

> <Angle>
1.157

> <Pdih>
2.794

> <Idih>
0.000

> <Tether>
0.000

$$$$
VeraChem MOL file


 23 22  0  0  0  0  0  0  0  0999 V2000     
   21.0028   21.5188   23.0842 N   0  3  0  0  0  0  0  0  0  0  0  0
   21.3991   22.1270   22.3607 H   0  0  0  0  0  0  0  0  0  0  0  0
   21.3029   21.8959   23.9895 H   0  0  0  0  0  0  0  0  0  0  0  0
   19.9842   21.6184   23.0390 H   0  0  0  0  0  0  0  0  0  0  0  0
   21.4323   20.0762   22.9040 C   0  0  0  0  0  0  0  0  0  0  0  0
   21.0059   19.4900   23.7222 H   0  0  0  0  0  0  0  0  0  0  0  0
   22.5216   20.0395   22.9918 H   0  0  0  0  0  0  0  0  0  0  0  0
   21.0065   19.4689   21.5521 C   0  0  0  0  0  0  0  0  0  0  0  0
   21.4683   20.0443   20.7388 H   0  0  0  0  0  0  0  0  0  0  0  0
   21.4201   18.4555   21.4730 H   0  0  0  0  0  0  0  0  0  0  0  0
   19.4707   19.4246   21.3367 C   0  0  0  0  0  0  0  0  0  0  0  0
   19.2625   18.9427   20.3716 H   0  0  0  0  0  0  0  0  0  0  0  0
   19.0884   20.4501   21.2445 H   0  0  0  0  0  0  0  0  0  0  0  0
   18.6762   18.6927   22.4493 C   0  0  0  0  0  0  0  0  0  0  0  0
   18.7972   19.2173   23.4064 H   0  0  0  0  0  0  0  0  0  0  0  0
   17.6063   18.7509   22.2059 H   0  0  0  0  0  0  0  0  0  0  0  0
   19.0728   17.2069   22.6164 C   0  0  0  0  0  0  0  0  0  0  0  0
   20.1223   17.1278   22.9296 H   0  0  0  0  0  0  0  0  0  0  0  0
   18.9884   16.6895   21.6505 H   0  0  0  0  0  0  0  0  0  0  0  0
   18.1843   16.4943   23.6581 C   0  0  0  0  0  0  0  0  0  0  0  0
   18.4806   15.4428   23.7659 H   0  0  0  0  0  0  0  0  0  0  0  0
   17.1283   16.5173   23.3588 H   0  0  0  0  0  0  0  0  0  0  0  0
   18.2710   16.9714   24.6430 H   0  0  0  0  0  0  0  0  0  0  0  0
  1  2  1  0  0  0  0
  1  3  1  0  0  0  0
  1  4  1  0  0  0  0
  1  5  1  0  0  0  0
  5  6  1  0  0  0  0
  5  7  1  0  0  0  0
  5  8  1  0  0  0  0
  8  9  1  0  0  0  0
  8 10  1  0  0  0  0
  8 11  1  0  0  0  0
 11 12  1  0  0  0  0
 11 13  1  0  0  0  0
 11 14  1  0  0  0  0
 14 15  1  0  0  0  0
 14 16  1  0  0  0  0
 14 17  1  0  0  0  0
 17 18  1  0  0  0  0
 17 19  1  0  0  0  0
 17 20  1  0  0  0  0
 20 21  1  0  0  0  0
 20 22  1  0  0  0  0
 20 23  1  0  0  0  0
M  END
> <VConfSearch Rank>
763

> <Conf_Id>
72

> <Delta U+W>
1.051

> <U+W>
-7.331

> <U>
48.590

> <W>
-55.922

> <W(PB)>
-58.012

> <W(SA)>
2.090

> <Valence>
2.601

> <Coulomb>
45.520

> <VdW>
0.469

> <VdW6>
-6.867

> <VdW12>
7.336

> <Bond>
0.205

> <Angle>
0.962

> <Pdih>
1.434

> <Idih>
0.000

> <Tether>
0.000

$$$$
VeraChem MOL file


 23 22  0  0  0  0  0  0  0  0999 V2000     
   19.8003   15.9457   23.4487 N   0  3  0  0  0  0  0  0  0  0  0  0
   19.3228   15.4675   24.2203 H   0  0  0  0  0  0  0  0  0  0  0  0
   20.7007   15.4736   23.3178 H   0  0  0  0  0  0  0  0  0  0  0  0
   19.2452   15.7762   22.6038 H   0  0  0  0  0  0  0  0  0  0  0  0
   19.9732   17.4254   23.7247 C   0  0  0  0  0  0  0  0  0  0  0  0
   20.5463   17.5321   24.6496 H   0  0  0  0  0  0  0  0  0  0  0  0
   18.9810   17.8558   23.8830 H   0  0  0  0  0  0  0  0  0  0  0  0
   20.6877   18.1733   22.5836 C   0  0  0  0  0  0  0  0  0  0  0  0
   21.6673   17.7094   22.4081 H   0  0  0  0  0  0  0  0  0  0  0  0
   20.1201   18.0561   21.6517 H   0  0  0  0  0  0  0  0  0  0  0  0
   20.8948   19.6769   22.8922 C   0  0  0  0  0  0  0  0  0  0  0  0
   21.4266   20.1456   22.0534 H   0  0  0  0  0  0  0  0  0  0  0  0
   21.5650   19.7724   23.7576 H   0  0  0  0  0  0  0  0  0  0  0  0
   19.5911   20.4672   23.1866 C   0  0  0  0  0  0  0  0  0  0  0  0
   19.1469   20.1027   24.1226 H   0  0  0  0  0  0  0  0  0  0  0  0
   19.8529   21.5176   23.3743 H   0  0  0  0  0  0  0  0  0  0  0  0
   18.5195   20.4116   22.0682 C   0  0  0  0  0  0  0  0  0  0  0  0
   17.6444   20.9919   22.3926 H   0  0  0  0  0  0  0  0  0  0  0  0
   18.1636   19.3813   21.9340 H   0  0  0  0  0  0  0  0  0  0  0  0
   19.0149   20.9729   20.7162 C   0  0  0  0  0  0  0  0  0  0  0  0
   19.3878   21.9992   20.8282 H   0  0  0  0  0  0  0  0  0  0  0  0
   18.1972   20.9907   19.9842 H   0  0  0  0  0  0  0  0  0  0  0  0
   19.8209   20.3583   20.2964 H   0  0  0  0  0  0  0  0  0  0  0  0
  1  2  1  0  0  0  0
  1  3  1  0  0  0  0
  1  4  1  0  0  0  0
  1  5  1  0  0  0  0
  5  6  1  0  0  0  0
  5  7  1  0  0  0  0
  5  8  1  0  0  0  0
  8  9  1  0  0  0  0
  8 10  1  0  0  0  0
  8 11  1  0  0  0  0
 11 12  1  0  0  0  0
 11 13  1  0  0  0  0
 11 14  1  0  0  0  0
 14 15  1  0  0  0  0
 14 16  1  0  0  0  0
 14 17  1  0  0  0  0
 17 18  1  0  0  0  0
 17 19  1  0  0  0  0
 17 20  1  0  0  0  0
 20 21  1  0  0  0  0
 20 22  1  0  0  0  0
 20 23  1  0  0  0  0
M  END
> <VConfSearch Rank>
764

> <Conf_Id>
26

> <Delta U+W>
1.076

> <U+W>
-7.306

> <U>
48.641

> <W>
-55.947

> <W(PB)>
-58.031

> <W(SA)>
2.084

> <Valence>
2.922

> <Coulomb>
45.269

> <VdW>
0.449

> <VdW6>
-7.045

> <VdW12>
7.494

> <Bond>
0.220

> <Angle>
1.205

> <Pdih>
1.497

> <Idih>
0.000

> <Tether>
0.000

$$$$
VeraChem MOL file


 23 22  0  0  0  0  0  0  0  0999 V2000     
   20.3793   16.8617   20.3883 N   0  3  0  0  0  0  0  0  0  0  0  0
   19.7030   16.8491   19.6181 H   0  0  0  0  0  0  0  0  0  0  0  0
   20.7603   15.9125   20.4655 H   0  0  0  0  0  0  0  0  0  0  0  0
   21.1521   17.4707   20.1012 H   0  0  0  0  0  0  0  0  0  0  0  0
   19.7483   17.3221   21.6866 C   0  0  0  0  0  0  0  0  0  0  0  0
   20.5145   17.2819   22.4652 H   0  0  0  0  0  0  0  0  0  0  0  0
   18.9557   16.6154   21.9466 H   0  0  0  0  0  0  0  0  0  0  0  0
   19.1663   18.7456   21.6038 C   0  0  0  0  0  0  0  0  0  0  0  0
   19.9584   19.4541   21.3301 H   0  0  0  0  0  0  0  0  0  0  0  0
   18.4252   18.7842   20.7945 H   0  0  0  0  0  0  0  0  0  0  0  0
   18.4890   19.1919   22.9234 C   0  0  0  0  0  0  0  0  0  0  0  0
   17.6240   18.5422   23.1155 H   0  0  0  0  0  0  0  0  0  0  0  0
   18.0771   20.2014   22.7919 H   0  0  0  0  0  0  0  0  0  0  0  0
   19.4132   19.1671   24.1708 C   0  0  0  0  0  0  0  0  0  0  0  0
   18.8382   19.5152   25.0399 H   0  0  0  0  0  0  0  0  0  0  0  0
   19.6912   18.1292   24.3983 H   0  0  0  0  0  0  0  0  0  0  0  0
   20.7037   20.0172   24.0525 C   0  0  0  0  0  0  0  0  0  0  0  0
   21.3473   19.6218   23.2553 H   0  0  0  0  0  0  0  0  0  0  0  0
   21.2787   19.9121   24.9830 H   0  0  0  0  0  0  0  0  0  0  0  0
   20.4285   21.5178   23.8049 C   0  0  0  0  0  0  0  0  0  0  0  0
   19.9509   21.6839   22.8314 H   0  0  0  0  0  0  0  0  0  0  0  0
   21.3666   22.0876   23.8145 H   0  0  0  0  0  0  0  0  0  0  0  0
   19.7756   21.9327   24.5836 H   0  0  0  0  0  0  0  0  0  0  0  0
  1  2  1  0  0  0  0
  1  3  1  0  0  0  0
  1  4  1  0  0  0  0
  1  5  1  0  0  0  0
  5  6  1  0  0  0  0
  5  7  1  0  0  0  0
  5  8  1  0  0  0  0
  8  9  1  0  0  0  0
  8 10  1  0  0  0  0
  8 11  1  0  0  0  0
 11 12  1  0  0  0  0
 11 13  1  0  0  0  0
 11 14  1  0  0  0  0
 14 15  1  0  0  0  0
 14 16  1  0  0  0  0
 14 17  1  0  0  0  0
 17 18  1  0  0  0  0
 17 19  1  0  0  0  0
 17 20  1  0  0  0  0
 20 21  1  0  0  0  0
 20 22  1  0  0  0  0
 20 23  1  0  0  0  0
M  END
> <VConfSearch Rank>
765

> <Conf_Id>
90

> <Delta U+W>
1.131

> <U+W>
-7.251

> <U>
48.641

> <W>
-55.892

> <W(PB)>
-57.962

> <W(SA)>
2.070

> <Valence>
2.922

> <Coulomb>
45.269

> <VdW>
0.450

> <VdW6>
-7.045

> <VdW12>
7.495

> <Bond>
0.220

> <Angle>
1.205

> <Pdih>
1.497

> <Idih>
0.000

> <Tether>
0.000

$$$$
VeraChem MOL file


 23 22  0  0  0  0  0  0  0  0999 V2000     
   21.5807   17.4025   21.3735 N   0  3  0  0  0  0  0  0  0  0  0  0
   21.7419   17.0643   20.4188 H   0  0  0  0  0  0  0  0  0  0  0  0
   20.6209   17.1475   21.6255 H   0  0  0  0  0  0  0  0  0  0  0  0
   22.2070   16.8730   21.9882 H   0  0  0  0  0  0  0  0  0  0  0  0
   21.8103   18.8967   21.4881 C   0  0  0  0  0  0  0  0  0  0  0  0
   21.1365   19.3978   20.7884 H   0  0  0  0  0  0  0  0  0  0  0  0
   22.8376   19.1007   21.1742 H   0  0  0  0  0  0  0  0  0  0  0  0
   21.5905   19.4501   22.9109 C   0  0  0  0  0  0  0  0  0  0  0  0
   22.3044   18.9743   23.5962 H   0  0  0  0  0  0  0  0  0  0  0  0
   21.8322   20.5213   22.9131 H   0  0  0  0  0  0  0  0  0  0  0  0
   20.1516   19.2497   23.4492 C   0  0  0  0  0  0  0  0  0  0  0  0
   20.0985   19.6597   24.4672 H   0  0  0  0  0  0  0  0  0  0  0  0
   19.9410   18.1766   23.5404 H   0  0  0  0  0  0  0  0  0  0  0  0
   19.0741   19.9330   22.5697 C   0  0  0  0  0  0  0  0  0  0  0  0
   19.3487   20.9864   22.4204 H   0  0  0  0  0  0  0  0  0  0  0  0
   19.0523   19.4744   21.5722 H   0  0  0  0  0  0  0  0  0  0  0  0
   17.6547   19.8775   23.1845 C   0  0  0  0  0  0  0  0  0  0  0  0
   16.9753   20.4719   22.5576 H   0  0  0  0  0  0  0  0  0  0  0  0
   17.6584   20.3569   24.1733 H   0  0  0  0  0  0  0  0  0  0  0  0
   17.0941   18.4421   23.3044 C   0  0  0  0  0  0  0  0  0  0  0  0
   17.1044   17.9314   22.3328 H   0  0  0  0  0  0  0  0  0  0  0  0
   16.0559   18.4640   23.6604 H   0  0  0  0  0  0  0  0  0  0  0  0
   17.6733   17.8408   24.0160 H   0  0  0  0  0  0  0  0  0  0  0  0
  1  2  1  0  0  0  0
  1  3  1  0  0  0  0
  1  4  1  0  0  0  0
  1  5  1  0  0  0  0
  5  6  1  0  0  0  0
  5  7  1  0  0  0  0
  5  8  1  0  0  0  0
  8  9  1  0  0  0  0
  8 10  1  0  0  0  0
  8 11  1  0  0  0  0
 11 12  1  0  0  0  0
 11 13  1  0  0  0  0
 11 14  1  0  0  0  0
 14 15  1  0  0  0  0
 14 16  1  0  0  0  0
 14 17  1  0  0  0  0
 17 18  1  0  0  0  0
 17 19  1  0  0  0  0
 17 20  1  0  0  0  0
 20 21  1  0  0  0  0
 20 22  1  0  0  0  0
 20 23  1  0  0  0  0
M  END
> <VConfSearch Rank>
766

> <Conf_Id>
85

> <Delta U+W>
1.193

> <U+W>
-7.189

> <U>
48.775

> <W>
-55.965

> <W(PB)>
-58.038

> <W(SA)>
2.073

> <Valence>
2.602

> <Coulomb>
45.581

> <VdW>
0.592

> <VdW6>
-6.616

> <VdW12>
7.208

> <Bond>
0.196

> <Angle>
0.832

> <Pdih>
1.574

> <Idih>
0.000

> <Tether>
0.000

$$$$
VeraChem MOL file


 23 22  0  0  0  0  0  0  0  0999 V2000     
   19.1512   17.1977   23.5327 N   0  3  0  0  0  0  0  0  0  0  0  0
   19.9359   17.8535   23.6028 H   0  0  0  0  0  0  0  0  0  0  0  0
   19.5413   16.2490   23.5452 H   0  0  0  0  0  0  0  0  0  0  0  0
   18.5893   17.3007   24.3840 H   0  0  0  0  0  0  0  0  0  0  0  0
   18.3293   17.4520   22.2840 C   0  0  0  0  0  0  0  0  0  0  0  0
   17.5173   16.7197   22.2816 H   0  0  0  0  0  0  0  0  0  0  0  0
   18.9562   17.2660   21.4080 H   0  0  0  0  0  0  0  0  0  0  0  0
   17.7282   18.8703   22.2068 C   0  0  0  0  0  0  0  0  0  0  0  0
   16.8680   18.8315   21.5252 H   0  0  0  0  0  0  0  0  0  0  0  0
   17.3203   19.1542   23.1860 H   0  0  0  0  0  0  0  0  0  0  0  0
   18.6929   19.9713   21.6898 C   0  0  0  0  0  0  0  0  0  0  0  0
   18.1216   20.9083   21.6338 H   0  0  0  0  0  0  0  0  0  0  0  0
   18.9954   19.7500   20.6569 H   0  0  0  0  0  0  0  0  0  0  0  0
   19.9436   20.2238   22.5702 C   0  0  0  0  0  0  0  0  0  0  0  0
   20.1713   21.2988   22.5528 H   0  0  0  0  0  0  0  0  0  0  0  0
   19.7233   19.9858   23.6193 H   0  0  0  0  0  0  0  0  0  0  0  0
   21.1995   19.4644   22.0770 C   0  0  0  0  0  0  0  0  0  0  0  0
   21.4903   19.8488   21.0892 H   0  0  0  0  0  0  0  0  0  0  0  0
   20.9866   18.3982   21.9351 H   0  0  0  0  0  0  0  0  0  0  0  0
   22.3842   19.6265   23.0527 C   0  0  0  0  0  0  0  0  0  0  0  0
   22.6540   20.6841   23.1721 H   0  0  0  0  0  0  0  0  0  0  0  0
   23.2690   19.0945   22.6796 H   0  0  0  0  0  0  0  0  0  0  0  0
   22.1421   19.2228   24.0442 H   0  0  0  0  0  0  0  0  0  0  0  0
  1  2  1  0  0  0  0
  1  3  1  0  0  0  0
  1  4  1  0  0  0  0
  1  5  1  0  0  0  0
  5  6  1  0  0  0  0
  5  7  1  0  0  0  0
  5  8  1  0  0  0  0
  8  9  1  0  0  0  0
  8 10  1  0  0  0  0
  8 11  1  0  0  0  0
 11 12  1  0  0  0  0
 11 13  1  0  0  0  0
 11 14  1  0  0  0  0
 14 15  1  0  0  0  0
 14 16  1  0  0  0  0
 14 17  1  0  0  0  0
 17 18  1  0  0  0  0
 17 19  1  0  0  0  0
 17 20  1  0  0  0  0
 20 21  1  0  0  0  0
 20 22  1  0  0  0  0
 20 23  1  0  0  0  0
M  END
> <VConfSearch Rank>
767

> <Conf_Id>
82

> <Delta U+W>
5.994

> <U+W>
-2.388

> <U>
52.836

> <W>
-55.224

> <W(PB)>
-57.261

> <W(SA)>
2.037

> <Valence>
5.785

> <Coulomb>
46.744

> <VdW>
0.307

> <VdW6>
-7.672

> <VdW12>
7.979

> <Bond>
0.217

> <Angle>
1.470

> <Pdih>
4.098

> <Idih>
0.000

> <Tether>
0.000

$$$$
VeraChem MOL file


 23 22  0  0  0  0  0  0  0  0999 V2000     
   20.2070   20.9524   22.0109 N   0  3  0  0  0  0  0  0  0  0  0  0
   21.1701   21.2165   21.7794 H   0  0  0  0  0  0  0  0  0  0  0  0
   19.5960   21.6776   21.6196 H   0  0  0  0  0  0  0  0  0  0  0  0
   20.0021   20.0783   21.5163 H   0  0  0  0  0  0  0  0  0  0  0  0
   20.0117   20.7988   23.5069 C   0  0  0  0  0  0  0  0  0  0  0  0
   18.9582   20.5821   23.7023 H   0  0  0  0  0  0  0  0  0  0  0  0
   20.2491   21.7648   23.9607 H   0  0  0  0  0  0  0  0  0  0  0  0
   20.8981   19.7108   24.1467 C   0  0  0  0  0  0  0  0  0  0  0  0
   21.9166   19.7762   23.7414 H   0  0  0  0  0  0  0  0  0  0  0  0
   20.9876   19.9400   25.2169 H   0  0  0  0  0  0  0  0  0  0  0  0
   20.3630   18.2593   24.0163 C   0  0  0  0  0  0  0  0  0  0  0  0
   19.4013   18.1658   24.5396 H   0  0  0  0  0  0  0  0  0  0  0  0
   21.0574   17.6034   24.5595 H   0  0  0  0  0  0  0  0  0  0  0  0
   20.2358   17.7272   22.5659 C   0  0  0  0  0  0  0  0  0  0  0  0
   20.9770   18.2128   21.9174 H   0  0  0  0  0  0  0  0  0  0  0  0
   20.4947   16.6591   22.5621 H   0  0  0  0  0  0  0  0  0  0  0  0
   18.8071   17.8714   21.9868 C   0  0  0  0  0  0  0  0  0  0  0  0
   18.4370   18.8975   22.0983 H   0  0  0  0  0  0  0  0  0  0  0  0
   18.1177   17.2372   22.5617 H   0  0  0  0  0  0  0  0  0  0  0  0
   18.7503   17.4633   20.4995 C   0  0  0  0  0  0  0  0  0  0  0  0
   19.4032   18.0981   19.8868 H   0  0  0  0  0  0  0  0  0  0  0  0
   17.7280   17.5575   20.1107 H   0  0  0  0  0  0  0  0  0  0  0  0
   19.0657   16.4203   20.3652 H   0  0  0  0  0  0  0  0  0  0  0  0
  1  2  1  0  0  0  0
  1  3  1  0  0  0  0
  1  4  1  0  0  0  0
  1  5  1  0  0  0  0
  5  6  1  0  0  0  0
  5  7  1  0  0  0  0
  5  8  1  0  0  0  0
  8  9  1  0  0  0  0
  8 10  1  0  0  0  0
  8 11  1  0  0  0  0
 11 12  1  0  0  0  0
 11 13  1  0  0  0  0
 11 14  1  0  0  0  0
 14 15  1  0  0  0  0
 14 16  1  0  0  0  0
 14 17  1  0  0  0  0
 17 18  1  0  0  0  0
 17 19  1  0  0  0  0
 17 20  1  0  0  0  0
 20 21  1  0  0  0  0
 20 22  1  0  0  0  0
 20 23  1  0  0  0  0
M  END
> <VConfSearch Rank>
768

> <Conf_Id>
5

> <Delta U+W>
6.087

> <U+W>
-2.295

> <U>
52.836

> <W>
-55.131

> <W(PB)>
-57.202

> <W(SA)>
2.071

> <Valence>
5.785

> <Coulomb>
46.744

> <VdW>
0.307

> <VdW6>
-7.672

> <VdW12>
7.980

> <Bond>
0.217

> <Angle>
1.470

> <Pdih>
4.098

> <Idih>
0.000

> <Tether>
0.000

$$$$
VeraChem MOL file


 23 22  0  0  0  0  0  0  0  0999 V2000     
   16.4590   17.4713   21.4079 N   0  3  0  0  0  0  0  0  0  0  0  0
   15.9897   18.3582   21.1983 H   0  0  0  0  0  0  0  0  0  0  0  0
   15.7351   16.8202   21.7307 H   0  0  0  0  0  0  0  0  0  0  0  0
   16.8170   17.1024   20.5210 H   0  0  0  0  0  0  0  0  0  0  0  0
   17.5600   17.6428   22.4347 C   0  0  0  0  0  0  0  0  0  0  0  0
   17.9944   16.6589   22.6313 H   0  0  0  0  0  0  0  0  0  0  0  0
   17.1052   18.0086   23.3593 H   0  0  0  0  0  0  0  0  0  0  0  0
   18.6633   18.6149   21.9803 C   0  0  0  0  0  0  0  0  0  0  0  0
   19.1060   18.2520   21.0430 H   0  0  0  0  0  0  0  0  0  0  0  0
   18.2198   19.5970   21.7684 H   0  0  0  0  0  0  0  0  0  0  0  0
   19.7646   18.7618   23.0534 C   0  0  0  0  0  0  0  0  0  0  0  0
   20.2021   17.7764   23.2664 H   0  0  0  0  0  0  0  0  0  0  0  0
   19.3169   19.1199   23.9910 H   0  0  0  0  0  0  0  0  0  0  0  0
   20.8784   19.7363   22.6072 C   0  0  0  0  0  0  0  0  0  0  0  0
   21.3263   19.3782   21.6698 H   0  0  0  0  0  0  0  0  0  0  0  0
   20.4411   20.7216   22.3942 H   0  0  0  0  0  0  0  0  0  0  0  0
   21.9797   19.8831   23.6807 C   0  0  0  0  0  0  0  0  0  0  0  0
   22.4220   18.9001   23.8956 H   0  0  0  0  0  0  0  0  0  0  0  0
   21.5369   20.2434   24.6199 H   0  0  0  0  0  0  0  0  0  0  0  0
   23.0900   20.8568   23.2317 C   0  0  0  0  0  0  0  0  0  0  0  0
   23.8623   20.9479   24.0064 H   0  0  0  0  0  0  0  0  0  0  0  0
   22.6834   21.8587   23.0419 H   0  0  0  0  0  0  0  0  0  0  0  0
   23.5754   20.5050   22.3120 H   0  0  0  0  0  0  0  0  0  0  0  0
  1  2  1  0  0  0  0
  1  3  1  0  0  0  0
  1  4  1  0  0  0  0
  1  5  1  0  0  0  0
  5  6  1  0  0  0  0
  5  7  1  0  0  0  0
  5  8  1  0  0  0  0
  8  9  1  0  0  0  0
  8 10  1  0  0  0  0
  8 11  1  0  0  0  0
 11 12  1  0  0  0  0
 11 13  1  0  0  0  0
 11 14  1  0  0  0  0
 14 15  1  0  0  0  0
 14 16  1  0  0  0  0
 14 17  1  0  0  0  0
 17 18  1  0  0  0  0
 17 19  1  0  0  0  0
 17 20  1  0  0  0  0
 20 21  1  0  0  0  0
 20 22  1  0  0  0  0
 20 23  1  0  0  0  0
M  END
> <VConfSearch Rank>
769

> <Conf_Id>
40

> <Delta U+W>
0.000

> <U+W>
-8.382

> <U>
46.604

> <W>
-54.986

> <W(PB)>
-57.162

> <W(SA)>
2.176

> <Valence>
1.727

> <Coulomb>
44.434

> <VdW>
0.443

> <VdW6>
-4.623

> <VdW12>
5.066

> <Bond>
0.112

> <Angle>
0.386

> <Pdih>
1.228

> <Idih>
0.000

> <Tether>
0.000

$$$$
VeraChem MOL file


 23 22  0  0  0  0  0  0  0  0999 V2000     
   18.4182   16.1229   21.0074 N   0  3  0  0  0  0  0  0  0  0  0  0
   18.4677   15.3133   21.6343 H   0  0  0  0  0  0  0  0  0  0  0  0
   19.1608   16.0097   20.3098 H   0  0  0  0  0  0  0  0  0  0  0  0
   17.5258   16.0573   20.5061 H   0  0  0  0  0  0  0  0  0  0  0  0
   18.5455   17.4308   21.7617 C   0  0  0  0  0  0  0  0  0  0  0  0
   17.7102   17.4979   22.4641 H   0  0  0  0  0  0  0  0  0  0  0  0
   18.4532   18.2447   21.0383 H   0  0  0  0  0  0  0  0  0  0  0  0
   19.8767   17.5593   22.5262 C   0  0  0  0  0  0  0  0  0  0  0  0
   19.9770   16.7094   23.2144 H   0  0  0  0  0  0  0  0  0  0  0  0
   20.7160   17.4931   21.8210 H   0  0  0  0  0  0  0  0  0  0  0  0
   19.9798   18.8738   23.3355 C   0  0  0  0  0  0  0  0  0  0  0  0
   20.8979   18.8359   23.9361 H   0  0  0  0  0  0  0  0  0  0  0  0
   19.1444   18.9325   24.0468 H   0  0  0  0  0  0  0  0  0  0  0  0
   19.9957   20.1393   22.4407 C   0  0  0  0  0  0  0  0  0  0  0  0
   20.8437   20.0897   21.7437 H   0  0  0  0  0  0  0  0  0  0  0  0
   19.0887   20.1636   21.8224 H   0  0  0  0  0  0  0  0  0  0  0  0
   20.0653   21.4608   23.2441 C   0  0  0  0  0  0  0  0  0  0  0  0
   19.2133   21.5208   23.9358 H   0  0  0  0  0  0  0  0  0  0  0  0
   19.9539   22.3027   22.5465 H   0  0  0  0  0  0  0  0  0  0  0  0
   21.3856   21.6375   24.0282 C   0  0  0  0  0  0  0  0  0  0  0  0
   21.4847   20.8914   24.8262 H   0  0  0  0  0  0  0  0  0  0  0  0
   21.4231   22.6287   24.4982 H   0  0  0  0  0  0  0  0  0  0  0  0
   22.2547   21.5486   23.3635 H   0  0  0  0  0  0  0  0  0  0  0  0
  1  2  1  0  0  0  0
  1  3  1  0  0  0  0
  1  4  1  0  0  0  0
  1  5  1  0  0  0  0
  5  6  1  0  0  0  0
  5  7  1  0  0  0  0
  5  8  1  0  0  0  0
  8  9  1  0  0  0  0
  8 10  1  0  0  0  0
  8 11  1  0  0  0  0
 11 12  1  0  0  0  0
 11 13  1  0  0  0  0
 11 14  1  0  0  0  0
 14 15  1  0  0  0  0
 14 16  1  0  0  0  0
 14 17  1  0  0  0  0
 17 18  1  0  0  0  0
 17 19  1  0  0  0  0
 17 20  1  0  0  0  0
 20 21  1  0  0  0  0
 20 22  1  0  0  0  0
 20 23  1  0  0  0  0
M  END
> <VConfSearch Rank>
770

> <Conf_Id>
65

> <Delta U+W>
1.004

> <U+W>
-7.378

> <U>
48.047

> <W>
-55.425

> <W(PB)>
-57.542

> <W(SA)>
2.116

> <Valence>
2.583

> <Coulomb>
44.791

> <VdW>
0.673

> <VdW6>
-5.788

> <VdW12>
6.462

> <Bond>
0.177

> <Angle>
0.787

> <Pdih>
1.619

> <Idih>
0.000

> <Tether>
0.000

$$$$
VeraChem MOL file


 23 22  0  0  0  0  0  0  0  0999 V2000     
   17.5904   19.3657   19.7965 N   0  3  0  0  0  0  0  0  0  0  0  0
   18.0604   19.8778   19.0431 H   0  0  0  0  0  0  0  0  0  0  0  0
   16.6153   19.6838   19.8095 H   0  0  0  0  0  0  0  0  0  0  0  0
   17.5776   18.3769   19.5267 H   0  0  0  0  0  0  0  0  0  0  0  0
   18.2698   19.5782   21.1341 C   0  0  0  0  0  0  0  0  0  0  0  0
   17.6998   19.0315   21.8896 H   0  0  0  0  0  0  0  0  0  0  0  0
   18.2220   20.6444   21.3713 H   0  0  0  0  0  0  0  0  0  0  0  0
   19.7374   19.1100   21.1463 C   0  0  0  0  0  0  0  0  0  0  0  0
   19.7859   18.0389   20.9093 H   0  0  0  0  0  0  0  0  0  0  0  0
   20.2859   19.6328   20.3514 H   0  0  0  0  0  0  0  0  0  0  0  0
   20.4411   19.3759   22.4983 C   0  0  0  0  0  0  0  0  0  0  0  0
   20.3996   20.4496   22.7280 H   0  0  0  0  0  0  0  0  0  0  0  0
   21.5033   19.1219   22.3881 H   0  0  0  0  0  0  0  0  0  0  0  0
   19.8318   18.5656   23.6708 C   0  0  0  0  0  0  0  0  0  0  0  0
   18.7637   18.8017   23.7646 H   0  0  0  0  0  0  0  0  0  0  0  0
   19.8925   17.4911   23.4496 H   0  0  0  0  0  0  0  0  0  0  0  0
   20.5086   18.8506   25.0336 C   0  0  0  0  0  0  0  0  0  0  0  0
   19.9455   18.3308   25.8214 H   0  0  0  0  0  0  0  0  0  0  0  0
   20.4415   19.9228   25.2651 H   0  0  0  0  0  0  0  0  0  0  0  0
   21.9846   18.3958   25.0966 C   0  0  0  0  0  0  0  0  0  0  0  0
   22.6160   18.9772   24.4135 H   0  0  0  0  0  0  0  0  0  0  0  0
   22.0822   17.3338   24.8365 H   0  0  0  0  0  0  0  0  0  0  0  0
   22.3848   18.5310   26.1097 H   0  0  0  0  0  0  0  0  0  0  0  0
  1  2  1  0  0  0  0
  1  3  1  0  0  0  0
  1  4  1  0  0  0  0
  1  5  1  0  0  0  0
  5  6  1  0  0  0  0
  5  7  1  0  0  0  0
  5  8  1  0  0  0  0
  8  9  1  0  0  0  0
  8 10  1  0  0  0  0
  8 11  1  0  0  0  0
 11 12  1  0  0  0  0
 11 13  1  0  0  0  0
 11 14  1  0  0  0  0
 14 15  1  0  0  0  0
 14 16  1  0  0  0  0
 14 17  1  0  0  0  0
 17 18  1  0  0  0  0
 17 19  1  0  0  0  0
 17 20  1  0  0  0  0
 20 21  1  0  0  0  0
 20 22  1  0  0  0  0
 20 23  1  0  0  0  0
M  END
> <VConfSearch Rank>
771

> <Conf_Id>
92

> <Delta U+W>
0.973

> <U+W>
-7.409

> <U>
48.047

> <W>
-55.456

> <W(PB)>
-57.595

> <W(SA)>
2.138

> <Valence>
2.583

> <Coulomb>
44.791

> <VdW>
0.674

> <VdW6>
-5.789

> <VdW12>
6.462

> <Bond>
0.177

> <Angle>
0.787

> <Pdih>
1.619

> <Idih>
0.000

> <Tether>
0.000

$$$$
VeraChem MOL file


 23 22  0  0  0  0  0  0  0  0999 V2000     
   16.7236   19.8976   21.0209 N   0  3  0  0  0  0  0  0  0  0  0  0
   16.5252   20.8760   20.7853 H   0  0  0  0  0  0  0  0  0  0  0  0
   15.8635   19.5072   21.4193 H   0  0  0  0  0  0  0  0  0  0  0  0
   16.8960   19.4075   20.1372 H   0  0  0  0  0  0  0  0  0  0  0  0
   17.8950   19.7743   21.9740 C   0  0  0  0  0  0  0  0  0  0  0  0
   17.6559   20.3410   22.8779 H   0  0  0  0  0  0  0  0  0  0  0  0
   18.7641   20.2358   21.4982 H   0  0  0  0  0  0  0  0  0  0  0  0
   18.2180   18.3152   22.3475 C   0  0  0  0  0  0  0  0  0  0  0  0
   17.3238   17.8502   22.7833 H   0  0  0  0  0  0  0  0  0  0  0  0
   18.4574   17.7459   21.4394 H   0  0  0  0  0  0  0  0  0  0  0  0
   19.3854   18.2004   23.3560 C   0  0  0  0  0  0  0  0  0  0  0  0
   19.4977   17.1466   23.6462 H   0  0  0  0  0  0  0  0  0  0  0  0
   19.1322   18.7497   24.2735 H   0  0  0  0  0  0  0  0  0  0  0  0
   20.7301   18.7186   22.7912 C   0  0  0  0  0  0  0  0  0  0  0  0
   20.9637   18.1905   21.8564 H   0  0  0  0  0  0  0  0  0  0  0  0
   20.6469   19.7849   22.5422 H   0  0  0  0  0  0  0  0  0  0  0  0
   21.8877   18.5222   23.7952 C   0  0  0  0  0  0  0  0  0  0  0  0
   21.9858   17.4565   24.0455 H   0  0  0  0  0  0  0  0  0  0  0  0
   21.6589   19.0481   24.7328 H   0  0  0  0  0  0  0  0  0  0  0  0
   23.2280   19.0405   23.2316 C   0  0  0  0  0  0  0  0  0  0  0  0
   23.5007   18.5092   22.3104 H   0  0  0  0  0  0  0  0  0  0  0  0
   24.0374   18.8921   23.9581 H   0  0  0  0  0  0  0  0  0  0  0  0
   23.1723   20.1130   23.0039 H   0  0  0  0  0  0  0  0  0  0  0  0
  1  2  1  0  0  0  0
  1  3  1  0  0  0  0
  1  4  1  0  0  0  0
  1  5  1  0  0  0  0
  5  6  1  0  0  0  0
  5  7  1  0  0  0  0
  5  8  1  0  0  0  0
  8  9  1  0  0  0  0
  8 10  1  0  0  0  0
  8 11  1  0  0  0  0
 11 12  1  0  0  0  0
 11 13  1  0  0  0  0
 11 14  1  0  0  0  0
 14 15  1  0  0  0  0
 14 16  1  0  0  0  0
 14 17  1  0  0  0  0
 17 18  1  0  0  0  0
 17 19  1  0  0  0  0
 17 20  1  0  0  0  0
 20 21  1  0  0  0  0
 20 22  1  0  0  0  0
 20 23  1  0  0  0  0
M  END
> <VConfSearch Rank>
772

> <Conf_Id>
42

> <Delta U+W>
0.365

> <U+W>
-8.017

> <U>
47.375

> <W>
-55.392

> <W(PB)>
-57.543

> <W(SA)>
2.152

> <Valence>
2.032

> <Coulomb>
44.843

> <VdW>
0.499

> <VdW6>
-5.218

> <VdW12>
5.717

> <Bond>
0.135

> <Angle>
0.514

> <Pdih>
1.383

> <Idih>
0.000

> <Tether>
0.000

$$$$
VeraChem MOL file


 23 22  0  0  0  0  0  0  0  0999 V2000     
   21.7713   21.1136   23.8452 N   0  3  0  0  0  0  0  0  0  0  0  0
   22.3448   20.3959   24.3000 H   0  0  0  0  0  0  0  0  0  0  0  0
   22.0141   22.0100   24.2804 H   0  0  0  0  0  0  0  0  0  0  0  0
   22.0707   21.1654   22.8669 H   0  0  0  0  0  0  0  0  0  0  0  0
   20.2901   20.8122   23.9665 C   0  0  0  0  0  0  0  0  0  0  0  0
   19.7373   21.6232   23.4848 H   0  0  0  0  0  0  0  0  0  0  0  0
   20.0390   20.8146   25.0307 H   0  0  0  0  0  0  0  0  0  0  0  0
   19.8755   19.4627   23.3484 C   0  0  0  0  0  0  0  0  0  0  0  0
   20.4519   18.6526   23.8144 H   0  0  0  0  0  0  0  0  0  0  0  0
   18.8213   19.2900   23.5972 H   0  0  0  0  0  0  0  0  0  0  0  0
   20.0536   19.4286   21.8109 C   0  0  0  0  0  0  0  0  0  0  0  0
   21.0854   19.7040   21.5564 H   0  0  0  0  0  0  0  0  0  0  0  0
   19.4115   20.1940   21.3533 H   0  0  0  0  0  0  0  0  0  0  0  0
   19.7546   18.0517   21.1629 C   0  0  0  0  0  0  0  0  0  0  0  0
   19.9577   18.1425   20.0868 H   0  0  0  0  0  0  0  0  0  0  0  0
   20.4628   17.2981   21.5340 H   0  0  0  0  0  0  0  0  0  0  0  0
   18.2976   17.5507   21.3375 C   0  0  0  0  0  0  0  0  0  0  0  0
   17.9983   17.0193   20.4231 H   0  0  0  0  0  0  0  0  0  0  0  0
   17.6089   18.4019   21.4305 H   0  0  0  0  0  0  0  0  0  0  0  0
   18.1204   16.5820   22.5302 C   0  0  0  0  0  0  0  0  0  0  0  0
   18.7499   15.6910   22.4076 H   0  0  0  0  0  0  0  0  0  0  0  0
   17.0780   16.2454   22.5998 H   0  0  0  0  0  0  0  0  0  0  0  0
   18.3825   17.0503   23.4853 H   0  0  0  0  0  0  0  0  0  0  0  0
  1  2  1  0  0  0  0
  1  3  1  0  0  0  0
  1  4  1  0  0  0  0
  1  5  1  0  0  0  0
  5  6  1  0  0  0  0
  5  7  1  0  0  0  0
  5  8  1  0  0  0  0
  8  9  1  0  0  0  0
  8 10  1  0  0  0  0
  8 11  1  0  0  0  0
 11 12  1  0  0  0  0
 11 13  1  0  0  0  0
 11 14  1  0  0  0  0
 14 15  1  0  0  0  0
 14 16  1  0  0  0  0
 14 17  1  0  0  0  0
 17 18  1  0  0  0  0
 17 19  1  0  0  0  0
 17 20  1  0  0  0  0
 20 21  1  0  0  0  0
 20 22  1  0  0  0  0
 20 23  1  0  0  0  0
M  END
> <VConfSearch Rank>
773

> <Conf_Id>
3

> <Delta U+W>
3.283

> <U+W>
-5.099

> <U>
50.701

> <W>
-55.800

> <W(PB)>
-57.867

> <W(SA)>
2.067

> <Valence>
4.880

> <Coulomb>
45.095

> <VdW>
0.726

> <VdW6>
-6.620

> <VdW12>
7.346

> <Bond>
0.222

> <Angle>
1.260

> <Pdih>
3.398

> <Idih>
0.000

> <Tether>
0.000

$$$$
VeraChem MOL file


 23 22  0  0  0  0  0  0  0  0999 V2000     
   21.8642   17.1392   23.2740 N   0  3  0  0  0  0  0  0  0  0  0  0
   22.7015   17.5667   23.6824 H   0  0  0  0  0  0  0  0  0  0  0  0
   22.0138   16.1245   23.2784 H   0  0  0  0  0  0  0  0  0  0  0  0
   21.0845   17.3312   23.9102 H   0  0  0  0  0  0  0  0  0  0  0  0
   21.5890   17.6620   21.8779 C   0  0  0  0  0  0  0  0  0  0  0  0
   20.7068   17.1463   21.4903 H   0  0  0  0  0  0  0  0  0  0  0  0
   22.4415   17.3934   21.2481 H   0  0  0  0  0  0  0  0  0  0  0  0
   21.3710   19.1879   21.8190 C   0  0  0  0  0  0  0  0  0  0  0  0
   22.2834   19.6931   22.1624 H   0  0  0  0  0  0  0  0  0  0  0  0
   21.2343   19.4840   20.7704 H   0  0  0  0  0  0  0  0  0  0  0  0
   20.1646   19.6897   22.6524 C   0  0  0  0  0  0  0  0  0  0  0  0
   20.1283   20.7839   22.5726 H   0  0  0  0  0  0  0  0  0  0  0  0
   20.3255   19.4661   23.7153 H   0  0  0  0  0  0  0  0  0  0  0  0
   18.8120   19.0914   22.1891 C   0  0  0  0  0  0  0  0  0  0  0  0
   18.6397   19.3397   21.1328 H   0  0  0  0  0  0  0  0  0  0  0  0
   18.8557   17.9958   22.2456 H   0  0  0  0  0  0  0  0  0  0  0  0
   17.6058   19.5678   23.0345 C   0  0  0  0  0  0  0  0  0  0  0  0
   17.7677   19.3123   24.0910 H   0  0  0  0  0  0  0  0  0  0  0  0
   16.7126   19.0113   22.7176 H   0  0  0  0  0  0  0  0  0  0  0  0
   17.3197   21.0812   22.9032 C   0  0  0  0  0  0  0  0  0  0  0  0
   17.1870   21.3684   21.8520 H   0  0  0  0  0  0  0  0  0  0  0  0
   18.1331   21.6843   23.3249 H   0  0  0  0  0  0  0  0  0  0  0  0
   16.4006   21.3461   23.4416 H   0  0  0  0  0  0  0  0  0  0  0  0
  1  2  1  0  0  0  0
  1  3  1  0  0  0  0
  1  4  1  0  0  0  0
  1  5  1  0  0  0  0
  5  6  1  0  0  0  0
  5  7  1  0  0  0  0
  5  8  1  0  0  0  0
  8  9  1  0  0  0  0
  8 10  1  0  0  0  0
  8 11  1  0  0  0  0
 11 12  1  0  0  0  0
 11 13  1  0  0  0  0
 11 14  1  0  0  0  0
 14 15  1  0  0  0  0
 14 16  1  0  0  0  0
 14 17  1  0  0  0  0
 17 18  1  0  0  0  0
 17 19  1  0  0  0  0
 17 20  1  0  0  0  0
 20 21  1  0  0  0  0
 20 22  1  0  0  0  0
 20 23  1  0  0  0  0
M  END
> <VConfSearch Rank>
774

> <Conf_Id>
83

> <Delta U+W>
1.229

> <U+W>
-7.154

> <U>
48.727

> <W>
-55.880

> <W(PB)>
-57.960

> <W(SA)>
2.080

> <Valence>
2.671

> <Coulomb>
45.371

> <VdW>
0.684

> <VdW6>
-6.511

> <VdW12>
7.195

> <Bond>
0.203

> <Angle>
0.915

> <Pdih>
1.554

> <Idih>
0.000

> <Tether>
0.000

$$$$
VeraChem MOL file


 23 22  0  0  0  0  0  0  0  0999 V2000     
   22.1277   18.1844   21.1931 N   0  3  0  0  0  0  0  0  0  0  0  0
   22.1785   18.5113   20.2230 H   0  0  0  0  0  0  0  0  0  0  0  0
   21.3129   17.5673   21.2630 H   0  0  0  0  0  0  0  0  0  0  0  0
   22.9586   17.6062   21.3580 H   0  0  0  0  0  0  0  0  0  0  0  0
   22.0410   19.3385   22.1723 C   0  0  0  0  0  0  0  0  0  0  0  0
   22.9531   19.9324   22.0679 H   0  0  0  0  0  0  0  0  0  0  0  0
   22.0212   18.9245   23.1836 H   0  0  0  0  0  0  0  0  0  0  0  0
   20.8128   20.2458   21.9543 C   0  0  0  0  0  0  0  0  0  0  0  0
   20.8601   21.0800   22.6669 H   0  0  0  0  0  0  0  0  0  0  0  0
   20.8730   20.6950   20.9540 H   0  0  0  0  0  0  0  0  0  0  0  0
   19.4520   19.5203   22.1074 C   0  0  0  0  0  0  0  0  0  0  0  0
   19.3613   18.7315   21.3489 H   0  0  0  0  0  0  0  0  0  0  0  0
   18.6552   20.2439   21.8924 H   0  0  0  0  0  0  0  0  0  0  0  0
   19.2375   18.9177   23.5192 C   0  0  0  0  0  0  0  0  0  0  0  0
   20.0475   18.2119   23.7450 H   0  0  0  0  0  0  0  0  0  0  0  0
   19.3010   19.7129   24.2747 H   0  0  0  0  0  0  0  0  0  0  0  0
   17.8915   18.1683   23.6711 C   0  0  0  0  0  0  0  0  0  0  0  0
   17.8717   17.6767   24.6538 H   0  0  0  0  0  0  0  0  0  0  0  0
   17.8268   17.3643   22.9246 H   0  0  0  0  0  0  0  0  0  0  0  0
   16.6557   19.0892   23.5522 C   0  0  0  0  0  0  0  0  0  0  0  0
   16.7127   19.9208   24.2665 H   0  0  0  0  0  0  0  0  0  0  0  0
   15.7367   18.5275   23.7644 H   0  0  0  0  0  0  0  0  0  0  0  0
   16.5593   19.5079   22.5430 H   0  0  0  0  0  0  0  0  0  0  0  0
  1  2  1  0  0  0  0
  1  3  1  0  0  0  0
  1  4  1  0  0  0  0
  1  5  1  0  0  0  0
  5  6  1  0  0  0  0
  5  7  1  0  0  0  0
  5  8  1  0  0  0  0
  8  9  1  0  0  0  0
  8 10  1  0  0  0  0
  8 11  1  0  0  0  0
 11 12  1  0  0  0  0
 11 13  1  0  0  0  0
 11 14  1  0  0  0  0
 14 15  1  0  0  0  0
 14 16  1  0  0  0  0
 14 17  1  0  0  0  0
 17 18  1  0  0  0  0
 17 19  1  0  0  0  0
 17 20  1  0  0  0  0
 20 21  1  0  0  0  0
 20 22  1  0  0  0  0
 20 23  1  0  0  0  0
M  END
> <VConfSearch Rank>
775

> <Conf_Id>
50

> <Delta U+W>
1.252

> <U+W>
-7.130

> <U>
48.727

> <W>
-55.857

> <W(PB)>
-57.937

> <W(SA)>
2.080

> <Valence>
2.671

> <Coulomb>
45.371

> <VdW>
0.684

> <VdW6>
-6.511

> <VdW12>
7.196

> <Bond>
0.203

> <Angle>
0.915

> <Pdih>
1.554

> <Idih>
0.000

> <Tether>
0.000

$$$$
VeraChem MOL file


 23 22  0  0  0  0  0  0  0  0999 V2000     
   18.2863   16.2799   22.2174 N   0  3  0  0  0  0  0  0  0  0  0  0
   17.5271   16.9617   22.1263 H   0  0  0  0  0  0  0  0  0  0  0  0
   17.8879   15.4455   22.6613 H   0  0  0  0  0  0  0  0  0  0  0  0
   18.5660   16.0091   21.2692 H   0  0  0  0  0  0  0  0  0  0  0  0
   19.4515   16.8376   23.0113 C   0  0  0  0  0  0  0  0  0  0  0  0
   20.2000   16.0457   23.1018 H   0  0  0  0  0  0  0  0  0  0  0  0
   19.0923   17.0827   24.0145 H   0  0  0  0  0  0  0  0  0  0  0  0
   20.0996   18.0823   22.3746 C   0  0  0  0  0  0  0  0  0  0  0  0
   20.9907   18.3408   22.9575 H   0  0  0  0  0  0  0  0  0  0  0  0
   20.4539   17.8327   21.3657 H   0  0  0  0  0  0  0  0  0  0  0  0
   19.1321   19.2916   22.3085 C   0  0  0  0  0  0  0  0  0  0  0  0
   18.6986   19.4892   23.2987 H   0  0  0  0  0  0  0  0  0  0  0  0
   18.2901   19.0292   21.6542 H   0  0  0  0  0  0  0  0  0  0  0  0
   19.7939   20.5792   21.7516 C   0  0  0  0  0  0  0  0  0  0  0  0
   20.5998   20.3218   21.0506 H   0  0  0  0  0  0  0  0  0  0  0  0
   19.0449   21.1186   21.1553 H   0  0  0  0  0  0  0  0  0  0  0  0
   20.3200   21.5575   22.8331 C   0  0  0  0  0  0  0  0  0  0  0  0
   19.4857   21.8887   23.4672 H   0  0  0  0  0  0  0  0  0  0  0  0
   20.6978   22.4599   22.3324 H   0  0  0  0  0  0  0  0  0  0  0  0
   21.4416   20.9793   23.7234 C   0  0  0  0  0  0  0  0  0  0  0  0
   22.2666   20.5854   23.1159 H   0  0  0  0  0  0  0  0  0  0  0  0
   21.0650   20.1746   24.3668 H   0  0  0  0  0  0  0  0  0  0  0  0
   21.8503   21.7587   24.3794 H   0  0  0  0  0  0  0  0  0  0  0  0
  1  2  1  0  0  0  0
  1  3  1  0  0  0  0
  1  4  1  0  0  0  0
  1  5  1  0  0  0  0
  5  6  1  0  0  0  0
  5  7  1  0  0  0  0
  5  8  1  0  0  0  0
  8  9  1  0  0  0  0
  8 10  1  0  0  0  0
  8 11  1  0  0  0  0
 11 12  1  0  0  0  0
 11 13  1  0  0  0  0
 11 14  1  0  0  0  0
 14 15  1  0  0  0  0
 14 16  1  0  0  0  0
 14 17  1  0  0  0  0
 17 18  1  0  0  0  0
 17 19  1  0  0  0  0
 17 20  1  0  0  0  0
 20 21  1  0  0  0  0
 20 22  1  0  0  0  0
 20 23  1  0  0  0  0
M  END
> <VConfSearch Rank>
776

> <Conf_Id>
55

> <Delta U+W>
3.232

> <U+W>
-5.150

> <U>
50.625

> <W>
-55.776

> <W(PB)>
-57.839

> <W(SA)>
2.064

> <Valence>
4.837

> <Coulomb>
45.097

> <VdW>
0.692

> <VdW6>
-6.655

> <VdW12>
7.347

> <Bond>
0.223

> <Angle>
1.167

> <Pdih>
3.447

> <Idih>
0.000

> <Tether>
0.000

$$$$
VeraChem MOL file


 23 22  0  0  0  0  0  0  0  0999 V2000     
   20.0734   16.4163   24.3312 N   0  3  0  0  0  0  0  0  0  0  0  0
   19.3023   15.7457   24.4117 H   0  0  0  0  0  0  0  0  0  0  0  0
   20.5514   16.4305   25.2386 H   0  0  0  0  0  0  0  0  0  0  0  0
   20.7368   16.0323   23.6507 H   0  0  0  0  0  0  0  0  0  0  0  0
   19.5851   17.7934   23.9303 C   0  0  0  0  0  0  0  0  0  0  0  0
   20.4502   18.4582   23.9003 H   0  0  0  0  0  0  0  0  0  0  0  0
   18.9082   18.1504   24.7112 H   0  0  0  0  0  0  0  0  0  0  0  0
   18.8556   17.8022   22.5725 C   0  0  0  0  0  0  0  0  0  0  0  0
   19.5084   17.4022   21.7853 H   0  0  0  0  0  0  0  0  0  0  0  0
   17.9990   17.1185   22.6419 H   0  0  0  0  0  0  0  0  0  0  0  0
   18.3347   19.2054   22.1709 C   0  0  0  0  0  0  0  0  0  0  0  0
   17.9704   19.7401   23.0592 H   0  0  0  0  0  0  0  0  0  0  0  0
   17.4564   19.0714   21.5243 H   0  0  0  0  0  0  0  0  0  0  0  0
   19.3526   20.0852   21.3993 C   0  0  0  0  0  0  0  0  0  0  0  0
   19.6301   19.5860   20.4607 H   0  0  0  0  0  0  0  0  0  0  0  0
   18.8480   21.0175   21.1103 H   0  0  0  0  0  0  0  0  0  0  0  0
   20.6332   20.4345   22.1922 C   0  0  0  0  0  0  0  0  0  0  0  0
   21.2314   19.5285   22.3543 H   0  0  0  0  0  0  0  0  0  0  0  0
   20.3643   20.8296   23.1818 H   0  0  0  0  0  0  0  0  0  0  0  0
   21.5001   21.4707   21.4456 C   0  0  0  0  0  0  0  0  0  0  0  0
   20.9524   22.4104   21.2962 H   0  0  0  0  0  0  0  0  0  0  0  0
   21.8062   21.0931   20.4612 H   0  0  0  0  0  0  0  0  0  0  0  0
   22.4094   21.6987   22.0166 H   0  0  0  0  0  0  0  0  0  0  0  0
  1  2  1  0  0  0  0
  1  3  1  0  0  0  0
  1  4  1  0  0  0  0
  1  5  1  0  0  0  0
  5  6  1  0  0  0  0
  5  7  1  0  0  0  0
  5  8  1  0  0  0  0
  8  9  1  0  0  0  0
  8 10  1  0  0  0  0
  8 11  1  0  0  0  0
 11 12  1  0  0  0  0
 11 13  1  0  0  0  0
 11 14  1  0  0  0  0
 14 15  1  0  0  0  0
 14 16  1  0  0  0  0
 14 17  1  0  0  0  0
 17 18  1  0  0  0  0
 17 19  1  0  0  0  0
 17 20  1  0  0  0  0
 20 21  1  0  0  0  0
 20 22  1  0  0  0  0
 20 23  1  0  0  0  0
M  END
> <VConfSearch Rank>
777

> <Conf_Id>
93

> <Delta U+W>
2.589

> <U+W>
-5.793

> <U>
50.122

> <W>
-55.915

> <W(PB)>
-58.031

> <W(SA)>
2.115

> <Valence>
4.132

> <Coulomb>
45.536

> <VdW>
0.454

> <VdW6>
-6.262

> <VdW12>
6.715

> <Bond>
0.182

> <Angle>
1.157

> <Pdih>
2.794

> <Idih>
0.000

> <Tether>
0.000

$$$$
VeraChem MOL file


 23 22  0  0  0  0  0  0  0  0999 V2000     
   21.6784   16.9905   24.0289 N   0  3  0  0  0  0  0  0  0  0  0  0
   22.3241   17.0725   23.2369 H   0  0  0  0  0  0  0  0  0  0  0  0
   21.4461   15.9959   24.1226 H   0  0  0  0  0  0  0  0  0  0  0  0
   22.1996   17.2548   24.8711 H   0  0  0  0  0  0  0  0  0  0  0  0
   20.4401   17.8428   23.8399 C   0  0  0  0  0  0  0  0  0  0  0  0
   19.7881   17.6842   24.7031 H   0  0  0  0  0  0  0  0  0  0  0  0
   19.9201   17.4827   22.9504 H   0  0  0  0  0  0  0  0  0  0  0  0
   20.7577   19.3449   23.7032 C   0  0  0  0  0  0  0  0  0  0  0  0
   21.2847   19.6653   24.6119 H   0  0  0  0  0  0  0  0  0  0  0  0
   21.4496   19.5148   22.8675 H   0  0  0  0  0  0  0  0  0  0  0  0
   19.4912   20.2215   23.5331 C   0  0  0  0  0  0  0  0  0  0  0  0
   19.7119   21.2213   23.9319 H   0  0  0  0  0  0  0  0  0  0  0  0
   18.6747   19.8278   24.1544 H   0  0  0  0  0  0  0  0  0  0  0  0
   19.0095   20.3984   22.0695 C   0  0  0  0  0  0  0  0  0  0  0  0
   18.1563   21.0909   22.0721 H   0  0  0  0  0  0  0  0  0  0  0  0
   19.7976   20.8891   21.4817 H   0  0  0  0  0  0  0  0  0  0  0  0
   18.5876   19.0872   21.3672 C   0  0  0  0  0  0  0  0  0  0  0  0
   17.8836   18.5323   22.0030 H   0  0  0  0  0  0  0  0  0  0  0  0
   19.4650   18.4455   21.2149 H   0  0  0  0  0  0  0  0  0  0  0  0
   17.9328   19.3609   19.9964 C   0  0  0  0  0  0  0  0  0  0  0  0
   17.6497   18.4198   19.5073 H   0  0  0  0  0  0  0  0  0  0  0  0
   18.6229   19.8932   19.3289 H   0  0  0  0  0  0  0  0  0  0  0  0
   17.0255   19.9692   20.1059 H   0  0  0  0  0  0  0  0  0  0  0  0
  1  2  1  0  0  0  0
  1  3  1  0  0  0  0
  1  4  1  0  0  0  0
  1  5  1  0  0  0  0
  5  6  1  0  0  0  0
  5  7  1  0  0  0  0
  5  8  1  0  0  0  0
  8  9  1  0  0  0  0
  8 10  1  0  0  0  0
  8 11  1  0  0  0  0
 11 12  1  0  0  0  0
 11 13  1  0  0  0  0
 11 14  1  0  0  0  0
 14 15  1  0  0  0  0
 14 16  1  0  0  0  0
 14 17  1  0  0  0  0
 17 18  1  0  0  0  0
 17 19  1  0  0  0  0
 17 20  1  0  0  0  0
 20 21  1  0  0  0  0
 20 22  1  0  0  0  0
 20 23  1  0  0  0  0
M  END
> <VConfSearch Rank>
778

> <Conf_Id>
70

> <Delta U+W>
2.599

> <U+W>
-5.783

> <U>
50.122

> <W>
-55.906

> <W(PB)>
-58.010

> <W(SA)>
2.105

> <Valence>
4.132

> <Coulomb>
45.536

> <VdW>
0.454

> <VdW6>
-6.262

> <VdW12>
6.715

> <Bond>
0.182

> <Angle>
1.157

> <Pdih>
2.794

> <Idih>
0.000

> <Tether>
0.000

$$$$
VeraChem MOL file


 23 22  0  0  0  0  0  0  0  0999 V2000     
   18.6597   19.4388   25.1453 N   0  3  0  0  0  0  0  0  0  0  0  0
   17.6548   19.4045   25.3444 H   0  0  0  0  0  0  0  0  0  0  0  0
   19.1128   19.8581   25.9643 H   0  0  0  0  0  0  0  0  0  0  0  0
   18.9889   18.4709   25.0813 H   0  0  0  0  0  0  0  0  0  0  0  0
   18.9560   20.2155   23.8776 C   0  0  0  0  0  0  0  0  0  0  0  0
   20.0404   20.2430   23.7417 H   0  0  0  0  0  0  0  0  0  0  0  0
   18.6062   21.2408   24.0256 H   0  0  0  0  0  0  0  0  0  0  0  0
   18.2891   19.6230   22.6198 C   0  0  0  0  0  0  0  0  0  0  0  0
   17.1992   19.6323   22.7534 H   0  0  0  0  0  0  0  0  0  0  0  0
   18.4910   20.2839   21.7672 H   0  0  0  0  0  0  0  0  0  0  0  0
   18.7490   18.1802   22.2828 C   0  0  0  0  0  0  0  0  0  0  0  0
   18.2551   17.8588   21.3554 H   0  0  0  0  0  0  0  0  0  0  0  0
   18.3905   17.4945   23.0623 H   0  0  0  0  0  0  0  0  0  0  0  0
   20.2817   18.0030   22.1270 C   0  0  0  0  0  0  0  0  0  0  0  0
   20.7858   18.2298   23.0759 H   0  0  0  0  0  0  0  0  0  0  0  0
   20.4885   16.9437   21.9206 H   0  0  0  0  0  0  0  0  0  0  0  0
   20.8913   18.8631   20.9951 C   0  0  0  0  0  0  0  0  0  0  0  0
   20.7583   19.9304   21.2167 H   0  0  0  0  0  0  0  0  0  0  0  0
   20.3622   18.6649   20.0525 H   0  0  0  0  0  0  0  0  0  0  0  0
   22.3960   18.5744   20.8081 C   0  0  0  0  0  0  0  0  0  0  0  0
   22.8127   19.1943   20.0037 H   0  0  0  0  0  0  0  0  0  0  0  0
   22.5668   17.5223   20.5450 H   0  0  0  0  0  0  0  0  0  0  0  0
   22.9566   18.7925   21.7265 H   0  0  0  0  0  0  0  0  0  0  0  0
  1  2  1  0  0  0  0
  1  3  1  0  0  0  0
  1  4  1  0  0  0  0
  1  5  1  0  0  0  0
  5  6  1  0  0  0  0
  5  7  1  0  0  0  0
  5  8  1  0  0  0  0
  8  9  1  0  0  0  0
  8 10  1  0  0  0  0
  8 11  1  0  0  0  0
 11 12  1  0  0  0  0
 11 13  1  0  0  0  0
 11 14  1  0  0  0  0
 14 15  1  0  0  0  0
 14 16  1  0  0  0  0
 14 17  1  0  0  0  0
 17 18  1  0  0  0  0
 17 19  1  0  0  0  0
 17 20  1  0  0  0  0
 20 21  1  0  0  0  0
 20 22  1  0  0  0  0
 20 23  1  0  0  0  0
M  END
> <VConfSearch Rank>
779

> <Conf_Id>
72

> <Delta U+W>
1.051

> <U+W>
-7.331

> <U>
48.590

> <W>
-55.922

> <W(PB)>
-58.012

> <W(SA)>
2.090

> <Valence>
2.601

> <Coulomb>
45.520

> <VdW>
0.469

> <VdW6>
-6.867

> <VdW12>
7.336

> <Bond>
0.205

> <Angle>
0.962

> <Pdih>
1.434

> <Idih>
0.000

> <Tether>
0.000

$$$$
VeraChem MOL file


 23 22  0  0  0  0  0  0  0  0999 V2000     
   21.1825   17.1787   24.7525 N   0  3  0  0  0  0  0  0  0  0  0  0
   21.7491   17.4484   25.5638 H   0  0  0  0  0  0  0  0  0  0  0  0
   21.5743   16.3019   24.3941 H   0  0  0  0  0  0  0  0  0  0  0  0
   20.2423   16.9683   25.1022 H   0  0  0  0  0  0  0  0  0  0  0  0
   21.1630   18.2629   23.6943 C   0  0  0  0  0  0  0  0  0  0  0  0
   22.1949   18.4558   23.3889 H   0  0  0  0  0  0  0  0  0  0  0  0
   20.7638   19.1718   24.1518 H   0  0  0  0  0  0  0  0  0  0  0  0
   20.3195   17.8885   22.4613 C   0  0  0  0  0  0  0  0  0  0  0  0
   20.7057   16.9547   22.0319 H   0  0  0  0  0  0  0  0  0  0  0  0
   19.2863   17.6820   22.7685 H   0  0  0  0  0  0  0  0  0  0  0  0
   20.3379   18.9863   21.3688 C   0  0  0  0  0  0  0  0  0  0  0  0
   19.7392   18.6501   20.5119 H   0  0  0  0  0  0  0  0  0  0  0  0
   21.3637   19.0920   20.9896 H   0  0  0  0  0  0  0  0  0  0  0  0
   19.8374   20.3796   21.8368 C   0  0  0  0  0  0  0  0  0  0  0  0
   20.5357   20.7875   22.5800 H   0  0  0  0  0  0  0  0  0  0  0  0
   19.8779   21.0711   20.9839 H   0  0  0  0  0  0  0  0  0  0  0  0
   18.4055   20.4010   22.4296 C   0  0  0  0  0  0  0  0  0  0  0  0
   18.1683   21.4297   22.7349 H   0  0  0  0  0  0  0  0  0  0  0  0
   18.3652   19.7987   23.3471 H   0  0  0  0  0  0  0  0  0  0  0  0
   17.3243   19.9148   21.4381 C   0  0  0  0  0  0  0  0  0  0  0  0
   17.3538   20.4950   20.5068 H   0  0  0  0  0  0  0  0  0  0  0  0
   16.3234   20.0295   21.8738 H   0  0  0  0  0  0  0  0  0  0  0  0
   17.4561   18.8550   21.1871 H   0  0  0  0  0  0  0  0  0  0  0  0
  1  2  1  0  0  0  0
  1  3  1  0  0  0  0
  1  4  1  0  0  0  0
  1  5  1  0  0  0  0
  5  6  1  0  0  0  0
  5  7  1  0  0  0  0
  5  8  1  0  0  0  0
  8  9  1  0  0  0  0
  8 10  1  0  0  0  0
  8 11  1  0  0  0  0
 11 12  1  0  0  0  0
 11 13  1  0  0  0  0
 11 14  1  0  0  0  0
 14 15  1  0  0  0  0
 14 16  1  0  0  0  0
 14 17  1  0  0  0  0
 17 18  1  0  0  0  0
 17 19  1  0  0  0  0
 17 20  1  0  0  0  0
 20 21  1  0  0  0  0
 20 22  1  0  0  0  0
 20 23  1  0  0  0  0
M  END
> <VConfSearch Rank>
780

> <Conf_Id>
26

> <Delta U+W>
1.076

> <U+W>
-7.306

> <U>
48.641

> <W>
-55.947

> <W(PB)>
-58.031

> <W(SA)>
2.084

> <Valence>
2.922

> <Coulomb>
45.269

> <VdW>
0.449

> <VdW6>
-7.045

> <VdW12>
7.494

> <Bond>
0.220

> <Angle>
1.205

> <Pdih>
1.497

> <Idih>
0.000

> <Tether>
0.000

$$$$
VeraChem MOL file


 23 22  0  0  0  0  0  0  0  0999 V2000     
   17.3667   20.7900   21.8465 N   0  3  0  0  0  0  0  0  0  0  0  0
   16.6453   20.8740   22.5699 H   0  0  0  0  0  0  0  0  0  0  0  0
   16.8979   20.9134   20.9427 H   0  0  0  0  0  0  0  0  0  0  0  0
   18.0042   21.5843   21.9626 H   0  0  0  0  0  0  0  0  0  0  0  0
   18.0949   19.4637   21.9264 C   0  0  0  0  0  0  0  0  0  0  0  0
   18.8237   19.4311   21.1123 H   0  0  0  0  0  0  0  0  0  0  0  0
   17.3640   18.6666   21.7665 H   0  0  0  0  0  0  0  0  0  0  0  0
   18.8106   19.2476   23.2729 C   0  0  0  0  0  0  0  0  0  0  0  0
   19.5354   20.0545   23.4406 H   0  0  0  0  0  0  0  0  0  0  0  0
   18.0760   19.3195   24.0858 H   0  0  0  0  0  0  0  0  0  0  0  0
   19.5189   17.8729   23.3593 C   0  0  0  0  0  0  0  0  0  0  0  0
   18.7604   17.0794   23.3104 H   0  0  0  0  0  0  0  0  0  0  0  0
   19.9884   17.7724   24.3469 H   0  0  0  0  0  0  0  0  0  0  0  0
   20.5772   17.6145   22.2529 C   0  0  0  0  0  0  0  0  0  0  0  0
   21.0241   16.6248   22.4198 H   0  0  0  0  0  0  0  0  0  0  0  0
   20.0769   17.5510   21.2772 H   0  0  0  0  0  0  0  0  0  0  0  0
   21.7117   18.6670   22.1670 C   0  0  0  0  0  0  0  0  0  0  0  0
   21.2998   19.6483   21.8961 H   0  0  0  0  0  0  0  0  0  0  0  0
   22.3870   18.3875   21.3463 H   0  0  0  0  0  0  0  0  0  0  0  0
   22.5353   18.7881   23.4691 C   0  0  0  0  0  0  0  0  0  0  0  0
   21.9254   19.1711   24.2967 H   0  0  0  0  0  0  0  0  0  0  0  0
   23.3757   19.4802   23.3298 H   0  0  0  0  0  0  0  0  0  0  0  0
   22.9473   17.8152   23.7671 H   0  0  0  0  0  0  0  0  0  0  0  0
  1  2  1  0  0  0  0
  1  3  1  0  0  0  0
  1  4  1  0  0  0  0
  1  5  1  0  0  0  0
  5  6  1  0  0  0  0
  5  7  1  0  0  0  0
  5  8  1  0  0  0  0
  8  9  1  0  0  0  0
  8 10  1  0  0  0  0
  8 11  1  0  0  0  0
 11 12  1  0  0  0  0
 11 13  1  0  0  0  0
 11 14  1  0  0  0  0
 14 15  1  0  0  0  0
 14 16  1  0  0  0  0
 14 17  1  0  0  0  0
 17 18  1  0  0  0  0
 17 19  1  0  0  0  0
 17 20  1  0  0  0  0
 20 21  1  0  0  0  0
 20 22  1  0  0  0  0
 20 23  1  0  0  0  0
M  END
> <VConfSearch Rank>
781

> <Conf_Id>
90

> <Delta U+W>
1.131

> <U+W>
-7.251

> <U>
48.641

> <W>
-55.892

> <W(PB)>
-57.962

> <W(SA)>
2.070

> <Valence>
2.922

> <Coulomb>
45.269

> <VdW>
0.450

> <VdW6>
-7.045

> <VdW12>
7.495

> <Bond>
0.220

> <Angle>
1.205

> <Pdih>
1.497

> <Idih>
0.000

> <Tether>
0.000

$$$$
VeraChem MOL file


 23 22  0  0  0  0  0  0  0  0999 V2000     
   17.3147   19.2527   21.7553 N   0  3  0  0  0  0  0  0  0  0  0  0
   16.5308   19.8776   21.9715 H   0  0  0  0  0  0  0  0  0  0  0  0
   17.6155   18.8299   22.6387 H   0  0  0  0  0  0  0  0  0  0  0  0
   16.9433   18.4987   21.1686 H   0  0  0  0  0  0  0  0  0  0  0  0
   18.4506   19.9892   21.0728 C   0  0  0  0  0  0  0  0  0  0  0  0
   18.7781   20.7950   21.7347 H   0  0  0  0  0  0  0  0  0  0  0  0
   18.0535   20.4411   20.1598 H   0  0  0  0  0  0  0  0  0  0  0  0
   19.6496   19.0865   20.7173 C   0  0  0  0  0  0  0  0  0  0  0  0
   19.3191   18.3095   20.0153 H   0  0  0  0  0  0  0  0  0  0  0  0
   20.3952   19.6871   20.1796 H   0  0  0  0  0  0  0  0  0  0  0  0
   20.3198   18.4178   21.9438 C   0  0  0  0  0  0  0  0  0  0  0  0
   21.1472   17.7874   21.5900 H   0  0  0  0  0  0  0  0  0  0  0  0
   19.6048   17.7405   22.4277 H   0  0  0  0  0  0  0  0  0  0  0  0
   20.8649   19.4422   22.9708 C   0  0  0  0  0  0  0  0  0  0  0  0
   21.5114   20.1621   22.4502 H   0  0  0  0  0  0  0  0  0  0  0  0
   20.0387   20.0232   23.4018 H   0  0  0  0  0  0  0  0  0  0  0  0
   21.6774   18.7902   24.1155 C   0  0  0  0  0  0  0  0  0  0  0  0
   22.1151   19.5856   24.7349 H   0  0  0  0  0  0  0  0  0  0  0  0
   22.5230   18.2264   23.6974 H   0  0  0  0  0  0  0  0  0  0  0  0
   20.8308   17.8646   25.0186 C   0  0  0  0  0  0  0  0  0  0  0  0
   19.9633   18.3980   25.4283 H   0  0  0  0  0  0  0  0  0  0  0  0
   21.4296   17.5000   25.8632 H   0  0  0  0  0  0  0  0  0  0  0  0
   20.4679   16.9870   24.4694 H   0  0  0  0  0  0  0  0  0  0  0  0
  1  2  1  0  0  0  0
  1  3  1  0  0  0  0
  1  4  1  0  0  0  0
  1  5  1  0  0  0  0
  5  6  1  0  0  0  0
  5  7  1  0  0  0  0
  5  8  1  0  0  0  0
  8  9  1  0  0  0  0
  8 10  1  0  0  0  0
  8 11  1  0  0  0  0
 11 12  1  0  0  0  0
 11 13  1  0  0  0  0
 11 14  1  0  0  0  0
 14 15  1  0  0  0  0
 14 16  1  0  0  0  0
 14 17  1  0  0  0  0
 17 18  1  0  0  0  0
 17 19  1  0  0  0  0
 17 20  1  0  0  0  0
 20 21  1  0  0  0  0
 20 22  1  0  0  0  0
 20 23  1  0  0  0  0
M  END
> <VConfSearch Rank>
782

> <Conf_Id>
85

> <Delta U+W>
1.193

> <U+W>
-7.189

> <U>
48.775

> <W>
-55.965

> <W(PB)>
-58.038

> <W(SA)>
2.073

> <Valence>
2.602

> <Coulomb>
45.581

> <VdW>
0.592

> <VdW6>
-6.616

> <VdW12>
7.208

> <Bond>
0.196

> <Angle>
0.832

> <Pdih>
1.574

> <Idih>
0.000

> <Tether>
0.000

$$$$
VeraChem MOL file


 23 22  0  0  0  0  0  0  0  0999 V2000     
   18.8898   18.1140   20.8436 N   0  3  0  0  0  0  0  0  0  0  0  0
   18.6148   18.8279   21.5258 H   0  0  0  0  0  0  0  0  0  0  0  0
   18.0798   17.5024   20.6949 H   0  0  0  0  0  0  0  0  0  0  0  0
   19.0694   18.5929   19.9551 H   0  0  0  0  0  0  0  0  0  0  0  0
   20.1028   17.3366   21.3168 C   0  0  0  0  0  0  0  0  0  0  0  0
   20.3336   16.6015   20.5410 H   0  0  0  0  0  0  0  0  0  0  0  0
   19.8380   16.7952   22.2289 H   0  0  0  0  0  0  0  0  0  0  0  0
   21.3486   18.2102   21.5689 C   0  0  0  0  0  0  0  0  0  0  0  0
   22.2306   17.5588   21.5096 H   0  0  0  0  0  0  0  0  0  0  0  0
   21.4611   18.9395   20.7556 H   0  0  0  0  0  0  0  0  0  0  0  0
   21.3844   18.9320   22.9429 C   0  0  0  0  0  0  0  0  0  0  0  0
   22.3425   19.4661   23.0082 H   0  0  0  0  0  0  0  0  0  0  0  0
   21.4053   18.1919   23.7549 H   0  0  0  0  0  0  0  0  0  0  0  0
   20.2464   19.9569   23.1835 C   0  0  0  0  0  0  0  0  0  0  0  0
   20.6531   20.8015   23.7570 H   0  0  0  0  0  0  0  0  0  0  0  0
   19.9114   20.3827   22.2284 H   0  0  0  0  0  0  0  0  0  0  0  0
   19.0565   19.3701   23.9816 C   0  0  0  0  0  0  0  0  0  0  0  0
   19.3939   19.1081   24.9943 H   0  0  0  0  0  0  0  0  0  0  0  0
   18.7004   18.4361   23.5311 H   0  0  0  0  0  0  0  0  0  0  0  0
   17.8865   20.3717   24.0806 C   0  0  0  0  0  0  0  0  0  0  0  0
   18.2026   21.2983   24.5775 H   0  0  0  0  0  0  0  0  0  0  0  0
   17.0590   19.9446   24.6619 H   0  0  0  0  0  0  0  0  0  0  0  0
   17.5002   20.6329   23.0869 H   0  0  0  0  0  0  0  0  0  0  0  0
  1  2  1  0  0  0  0
  1  3  1  0  0  0  0
  1  4  1  0  0  0  0
  1  5  1  0  0  0  0
  5  6  1  0  0  0  0
  5  7  1  0  0  0  0
  5  8  1  0  0  0  0
  8  9  1  0  0  0  0
  8 10  1  0  0  0  0
  8 11  1  0  0  0  0
 11 12  1  0  0  0  0
 11 13  1  0  0  0  0
 11 14  1  0  0  0  0
 14 15  1  0  0  0  0
 14 16  1  0  0  0  0
 14 17  1  0  0  0  0
 17 18  1  0  0  0  0
 17 19  1  0  0  0  0
 17 20  1  0  0  0  0
 20 21  1  0  0  0  0
 20 22  1  0  0  0  0
 20 23  1  0  0  0  0
M  END
> <VConfSearch Rank>
783

> <Conf_Id>
82

> <Delta U+W>
5.994

> <U+W>
-2.388

> <U>
52.836

> <W>
-55.224

> <W(PB)>
-57.261

> <W(SA)>
2.037

> <Valence>
5.785

> <Coulomb>
46.744

> <VdW>
0.307

> <VdW6>
-7.672

> <VdW12>
7.979

> <Bond>
0.217

> <Angle>
1.470

> <Pdih>
4.098

> <Idih>
0.000

> <Tether>
0.000

$$$$
VeraChem MOL file


 23 22  0  0  0  0  0  0  0  0999 V2000     
   17.9104   18.7871   21.8976 N   0  3  0  0  0  0  0  0  0  0  0  0
   17.3419   18.0450   22.3185 H   0  0  0  0  0  0  0  0  0  0  0  0
   17.2610   19.4457   21.4541 H   0  0  0  0  0  0  0  0  0  0  0  0
   18.3785   19.2847   22.6618 H   0  0  0  0  0  0  0  0  0  0  0  0
   18.9132   18.2308   20.9054 C   0  0  0  0  0  0  0  0  0  0  0  0
   19.4454   19.0648   20.4402 H   0  0  0  0  0  0  0  0  0  0  0  0
   18.3416   17.7172   20.1276 H   0  0  0  0  0  0  0  0  0  0  0  0
   19.9241   17.2428   21.5224 C   0  0  0  0  0  0  0  0  0  0  0  0
   19.4036   16.5560   22.2030 H   0  0  0  0  0  0  0  0  0  0  0  0
   20.3173   16.6170   20.7102 H   0  0  0  0  0  0  0  0  0  0  0  0
   21.1331   17.8966   22.2443 C   0  0  0  0  0  0  0  0  0  0  0  0
   21.7283   18.4785   21.5269 H   0  0  0  0  0  0  0  0  0  0  0  0
   21.7922   17.0847   22.5818 H   0  0  0  0  0  0  0  0  0  0  0  0
   20.7777   18.7692   23.4754 C   0  0  0  0  0  0  0  0  0  0  0  0
   19.8534   18.4057   23.9437 H   0  0  0  0  0  0  0  0  0  0  0  0
   21.5633   18.6400   24.2330 H   0  0  0  0  0  0  0  0  0  0  0  0
   20.6803   20.2786   23.1449 C   0  0  0  0  0  0  0  0  0  0  0  0
   20.0146   20.4544   22.2915 H   0  0  0  0  0  0  0  0  0  0  0  0
   21.6694   20.6465   22.8377 H   0  0  0  0  0  0  0  0  0  0  0  0
   20.1890   21.0976   24.3572 C   0  0  0  0  0  0  0  0  0  0  0  0
   19.1870   20.7799   24.6732 H   0  0  0  0  0  0  0  0  0  0  0  0
   20.1407   22.1660   24.1091 H   0  0  0  0  0  0  0  0  0  0  0  0
   20.8684   20.9819   25.2118 H   0  0  0  0  0  0  0  0  0  0  0  0
  1  2  1  0  0  0  0
  1  3  1  0  0  0  0
  1  4  1  0  0  0  0
  1  5  1  0  0  0  0
  5  6  1  0  0  0  0
  5  7  1  0  0  0  0
  5  8  1  0  0  0  0
  8  9  1  0  0  0  0
  8 10  1  0  0  0  0
  8 11  1  0  0  0  0
 11 12  1  0  0  0  0
 11 13  1  0  0  0  0
 11 14  1  0  0  0  0
 14 15  1  0  0  0  0
 14 16  1  0  0  0  0
 14 17  1  0  0  0  0
 17 18  1  0  0  0  0
 17 19  1  0  0  0  0
 17 20  1  0  0  0  0
 20 21  1  0  0  0  0
 20 22  1  0  0  0  0
 20 23  1  0  0  0  0
M  END
> <VConfSearch Rank>
784

> <Conf_Id>
5

> <Delta U+W>
6.087

> <U+W>
-2.295

> <U>
52.836

> <W>
-55.131

> <W(PB)>
-57.202

> <W(SA)>
2.071

> <Valence>
5.785

> <Coulomb>
46.744

> <VdW>
0.307

> <VdW6>
-7.672

> <VdW12>
7.980

> <Bond>
0.217

> <Angle>
1.470

> <Pdih>
4.098

> <Idih>
0.000

> <Tether>
0.000

$$$$
VeraChem MOL file


 23 22  0  0  0  0  0  0  0  0999 V2000     
   20.8420   17.3332   19.3153 N   0  3  0  0  0  0  0  0  0  0  0  0
   19.9434   16.8805   19.1192 H   0  0  0  0  0  0  0  0  0  0  0  0
   21.5737   16.7119   18.9538 H   0  0  0  0  0  0  0  0  0  0  0  0
   20.8762   18.1909   18.7549 H   0  0  0  0  0  0  0  0  0  0  0  0
   21.0228   17.6154   20.7930 C   0  0  0  0  0  0  0  0  0  0  0  0
   22.0083   18.0681   20.9320 H   0  0  0  0  0  0  0  0  0  0  0  0
   21.0057   16.6596   21.3236 H   0  0  0  0  0  0  0  0  0  0  0  0
   19.9396   18.5459   21.3668 C   0  0  0  0  0  0  0  0  0  0  0  0
   19.9496   19.4984   20.8202 H   0  0  0  0  0  0  0  0  0  0  0  0
   18.9506   18.0949   21.2103 H   0  0  0  0  0  0  0  0  0  0  0  0
   20.1595   18.8082   22.8732 C   0  0  0  0  0  0  0  0  0  0  0  0
   21.1520   19.2545   23.0261 H   0  0  0  0  0  0  0  0  0  0  0  0
   20.1540   17.8525   23.4158 H   0  0  0  0  0  0  0  0  0  0  0  0
   19.0767   19.7420   23.4602 C   0  0  0  0  0  0  0  0  0  0  0  0
   19.0822   20.6977   22.9179 H   0  0  0  0  0  0  0  0  0  0  0  0
   18.0842   19.2959   23.3074 H   0  0  0  0  0  0  0  0  0  0  0  0
   19.2969   20.0040   24.9668 C   0  0  0  0  0  0  0  0  0  0  0  0
   20.2877   20.4527   25.1246 H   0  0  0  0  0  0  0  0  0  0  0  0
   19.2898   19.0510   25.5142 H   0  0  0  0  0  0  0  0  0  0  0  0
   18.2139   20.9369   25.5494 C   0  0  0  0  0  0  0  0  0  0  0  0
   18.3870   21.1110   26.6193 H   0  0  0  0  0  0  0  0  0  0  0  0
   17.2135   20.4989   25.4369 H   0  0  0  0  0  0  0  0  0  0  0  0
   18.2191   21.9116   25.0443 H   0  0  0  0  0  0  0  0  0  0  0  0
  1  2  1  0  0  0  0
  1  3  1  0  0  0  0
  1  4  1  0  0  0  0
  1  5  1  0  0  0  0
  5  6  1  0  0  0  0
  5  7  1  0  0  0  0
  5  8  1  0  0  0  0
  8  9  1  0  0  0  0
  8 10  1  0  0  0  0
  8 11  1  0  0  0  0
 11 12  1  0  0  0  0
 11 13  1  0  0  0  0
 11 14  1  0  0  0  0
 14 15  1  0  0  0  0
 14 16  1  0  0  0  0
 14 17  1  0  0  0  0
 17 18  1  0  0  0  0
 17 19  1  0  0  0  0
 17 20  1  0  0  0  0
 20 21  1  0  0  0  0
 20 22  1  0  0  0  0
 20 23  1  0  0  0  0
M  END
> <VConfSearch Rank>
785

> <Conf_Id>
40

> <Delta U+W>
0.000

> <U+W>
-8.382

> <U>
46.604

> <W>
-54.986

> <W(PB)>
-57.162

> <W(SA)>
2.176

> <Valence>
1.727

> <Coulomb>
44.434

> <VdW>
0.443

> <VdW6>
-4.623

> <VdW12>
5.066

> <Bond>
0.112

> <Angle>
0.386

> <Pdih>
1.228

> <Idih>
0.000

> <Tether>
0.000

$$$$
VeraChem MOL file


 23 22  0  0  0  0  0  0  0  0999 V2000     
   19.0073   21.2743   19.9419 N   0  3  0  0  0  0  0  0  0  0  0  0
   18.1378   20.9956   19.4760 H   0  0  0  0  0  0  0  0  0  0  0  0
   19.7801   21.0024   19.3257 H   0  0  0  0  0  0  0  0  0  0  0  0
   19.0069   22.2991   19.9850 H   0  0  0  0  0  0  0  0  0  0  0  0
   19.1357   20.6530   21.3179 C   0  0  0  0  0  0  0  0  0  0  0  0
   18.2995   21.0064   21.9272 H   0  0  0  0  0  0  0  0  0  0  0  0
   20.0648   21.0168   21.7640 H   0  0  0  0  0  0  0  0  0  0  0  0
   19.1391   19.1128   21.2864 C   0  0  0  0  0  0  0  0  0  0  0  0
   18.2223   18.7635   20.7930 H   0  0  0  0  0  0  0  0  0  0  0  0
   19.9795   18.7572   20.6755 H   0  0  0  0  0  0  0  0  0  0  0  0
   19.2190   18.4836   22.6975 C   0  0  0  0  0  0  0  0  0  0  0  0
   19.1013   17.3969   22.5960 H   0  0  0  0  0  0  0  0  0  0  0  0
   18.3716   18.8336   23.3032 H   0  0  0  0  0  0  0  0  0  0  0  0
   20.5496   18.7963   23.4284 C   0  0  0  0  0  0  0  0  0  0  0  0
   21.3955   18.4275   22.8320 H   0  0  0  0  0  0  0  0  0  0  0  0
   20.6785   19.8838   23.5077 H   0  0  0  0  0  0  0  0  0  0  0  0
   20.6244   18.1983   24.8543 C   0  0  0  0  0  0  0  0  0  0  0  0
   19.7862   18.5721   25.4589 H   0  0  0  0  0  0  0  0  0  0  0  0
   21.5401   18.5625   25.3409 H   0  0  0  0  0  0  0  0  0  0  0  0
   20.6326   16.6527   24.8755 C   0  0  0  0  0  0  0  0  0  0  0  0
   19.6831   16.2385   24.5146 H   0  0  0  0  0  0  0  0  0  0  0  0
   20.7847   16.2837   25.8981 H   0  0  0  0  0  0  0  0  0  0  0  0
   21.4423   16.2533   24.2511 H   0  0  0  0  0  0  0  0  0  0  0  0
  1  2  1  0  0  0  0
  1  3  1  0  0  0  0
  1  4  1  0  0  0  0
  1  5  1  0  0  0  0
  5  6  1  0  0  0  0
  5  7  1  0  0  0  0
  5  8  1  0  0  0  0
  8  9  1  0  0  0  0
  8 10  1  0  0  0  0
  8 11  1  0  0  0  0
 11 12  1  0  0  0  0
 11 13  1  0  0  0  0
 11 14  1  0  0  0  0
 14 15  1  0  0  0  0
 14 16  1  0  0  0  0
 14 17  1  0  0  0  0
 17 18  1  0  0  0  0
 17 19  1  0  0  0  0
 17 20  1  0  0  0  0
 20 21  1  0  0  0  0
 20 22  1  0  0  0  0
 20 23  1  0  0  0  0
M  END
> <VConfSearch Rank>
786

> <Conf_Id>
65

> <Delta U+W>
1.004

> <U+W>
-7.378

> <U>
48.047

> <W>
-55.425

> <W(PB)>
-57.542

> <W(SA)>
2.116

> <Valence>
2.583

> <Coulomb>
44.791

> <VdW>
0.673

> <VdW6>
-5.788

> <VdW12>
6.462

> <Bond>
0.177

> <Angle>
0.787

> <Pdih>
1.619

> <Idih>
0.000

> <Tether>
0.000

$$$$
VeraChem MOL file


 23 22  0  0  0  0  0  0  0  0999 V2000     
   19.7146   22.5481   23.1908 N   0  3  0  0  0  0  0  0  0  0  0  0
   18.9373   22.9814   22.6819 H   0  0  0  0  0  0  0  0  0  0  0  0
   20.5095   23.1930   23.1257 H   0  0  0  0  0  0  0  0  0  0  0  0
   19.4433   22.5083   24.1786 H   0  0  0  0  0  0  0  0  0  0  0  0
   20.0553   21.1773   22.6423 C   0  0  0  0  0  0  0  0  0  0  0  0
   20.9069   20.7923   23.2089 H   0  0  0  0  0  0  0  0  0  0  0  0
   20.3614   21.2976   21.5996 H   0  0  0  0  0  0  0  0  0  0  0  0
   18.8800   20.1849   22.7259 C   0  0  0  0  0  0  0  0  0  0  0  0
   18.5729   20.0628   23.7731 H   0  0  0  0  0  0  0  0  0  0  0  0
   18.0176   20.6067   22.1928 H   0  0  0  0  0  0  0  0  0  0  0  0
   19.2171   18.8026   22.1182 C   0  0  0  0  0  0  0  0  0  0  0  0
   19.5145   18.9269   21.0678 H   0  0  0  0  0  0  0  0  0  0  0  0
   18.3012   18.1975   22.1130 H   0  0  0  0  0  0  0  0  0  0  0  0
   20.3310   18.0530   22.8927 C   0  0  0  0  0  0  0  0  0  0  0  0
   21.2391   18.6696   22.9187 H   0  0  0  0  0  0  0  0  0  0  0  0
   20.0240   17.9107   23.9380 H   0  0  0  0  0  0  0  0  0  0  0  0
   20.6978   16.6832   22.2719 C   0  0  0  0  0  0  0  0  0  0  0  0
   21.5674   16.2762   22.8067 H   0  0  0  0  0  0  0  0  0  0  0  0
   21.0159   16.8207   21.2289 H   0  0  0  0  0  0  0  0  0  0  0  0
   19.5494   15.6503   22.3339 C   0  0  0  0  0  0  0  0  0  0  0  0
   18.6999   15.9526   21.7092 H   0  0  0  0  0  0  0  0  0  0  0  0
   19.1910   15.5194   23.3632 H   0  0  0  0  0  0  0  0  0  0  0  0
   19.8927   14.6727   21.9715 H   0  0  0  0  0  0  0  0  0  0  0  0
  1  2  1  0  0  0  0
  1  3  1  0  0  0  0
  1  4  1  0  0  0  0
  1  5  1  0  0  0  0
  5  6  1  0  0  0  0
  5  7  1  0  0  0  0
  5  8  1  0  0  0  0
  8  9  1  0  0  0  0
  8 10  1  0  0  0  0
  8 11  1  0  0  0  0
 11 12  1  0  0  0  0
 11 13  1  0  0  0  0
 11 14  1  0  0  0  0
 14 15  1  0  0  0  0
 14 16  1  0  0  0  0
 14 17  1  0  0  0  0
 17 18  1  0  0  0  0
 17 19  1  0  0  0  0
 17 20  1  0  0  0  0
 20 21  1  0  0  0  0
 20 22  1  0  0  0  0
 20 23  1  0  0  0  0
M  END
> <VConfSearch Rank>
787

> <Conf_Id>
92

> <Delta U+W>
0.973

> <U+W>
-7.409

> <U>
48.047

> <W>
-55.456

> <W(PB)>
-57.595

> <W(SA)>
2.138

> <Valence>
2.583

> <Coulomb>
44.791

> <VdW>
0.674

> <VdW6>
-5.789

> <VdW12>
6.462

> <Bond>
0.177

> <Angle>
0.787

> <Pdih>
1.619

> <Idih>
0.000

> <Tether>
0.000

$$$$
VeraChem MOL file


 23 22  0  0  0  0  0  0  0  0999 V2000     
   20.6834   17.1865   25.5040 N   0  3  0  0  0  0  0  0  0  0  0  0
   20.7518   17.6522   26.4154 H   0  0  0  0  0  0  0  0  0  0  0  0
   21.5038   16.5777   25.4186 H   0  0  0  0  0  0  0  0  0  0  0  0
   19.8592   16.5781   25.5414 H   0  0  0  0  0  0  0  0  0  0  0  0
   20.5989   18.1842   24.3668 C   0  0  0  0  0  0  0  0  0  0  0  0
   21.4911   18.8151   24.4042 H   0  0  0  0  0  0  0  0  0  0  0  0
   19.7234   18.8154   24.5392 H   0  0  0  0  0  0  0  0  0  0  0  0
   20.4953   17.5148   22.9833 C   0  0  0  0  0  0  0  0  0  0  0  0
   21.3575   16.8497   22.8412 H   0  0  0  0  0  0  0  0  0  0  0  0
   19.5996   16.8805   22.9461 H   0  0  0  0  0  0  0  0  0  0  0  0
   20.4555   18.5392   21.8248 C   0  0  0  0  0  0  0  0  0  0  0  0
   20.4759   17.9934   20.8713 H   0  0  0  0  0  0  0  0  0  0  0  0
   21.3650   19.1554   21.8492 H   0  0  0  0  0  0  0  0  0  0  0  0
   19.2055   19.4511   21.8621 C   0  0  0  0  0  0  0  0  0  0  0  0
   18.2985   18.8308   21.8710 H   0  0  0  0  0  0  0  0  0  0  0  0
   19.1975   20.0398   22.7892 H   0  0  0  0  0  0  0  0  0  0  0  0
   19.1594   20.4112   20.6526 C   0  0  0  0  0  0  0  0  0  0  0  0
   19.1584   19.8321   19.7185 H   0  0  0  0  0  0  0  0  0  0  0  0
   20.0650   21.0338   20.6385 H   0  0  0  0  0  0  0  0  0  0  0  0
   17.9132   21.3211   20.6916 C   0  0  0  0  0  0  0  0  0  0  0  0
   16.9900   20.7272   20.6727 H   0  0  0  0  0  0  0  0  0  0  0  0
   17.8979   21.9948   19.8251 H   0  0  0  0  0  0  0  0  0  0  0  0
   17.9036   21.9391   21.5989 H   0  0  0  0  0  0  0  0  0  0  0  0
  1  2  1  0  0  0  0
  1  3  1  0  0  0  0
  1  4  1  0  0  0  0
  1  5  1  0  0  0  0
  5  6  1  0  0  0  0
  5  7  1  0  0  0  0
  5  8  1  0  0  0  0
  8  9  1  0  0  0  0
  8 10  1  0  0  0  0
  8 11  1  0  0  0  0
 11 12  1  0  0  0  0
 11 13  1  0  0  0  0
 11 14  1  0  0  0  0
 14 15  1  0  0  0  0
 14 16  1  0  0  0  0
 14 17  1  0  0  0  0
 17 18  1  0  0  0  0
 17 19  1  0  0  0  0
 17 20  1  0  0  0  0
 20 21  1  0  0  0  0
 20 22  1  0  0  0  0
 20 23  1  0  0  0  0
M  END
> <VConfSearch Rank>
788

> <Conf_Id>
42

> <Delta U+W>
0.365

> <U+W>
-8.017

> <U>
47.375

> <W>
-55.392

> <W(PB)>
-57.543

> <W(SA)>
2.152

> <Valence>
2.032

> <Coulomb>
44.843

> <VdW>
0.499

> <VdW6>
-5.218

> <VdW12>
5.717

> <Bond>
0.135

> <Angle>
0.514

> <Pdih>
1.383

> <Idih>
0.000

> <Tether>
0.000

$$$$
VeraChem MOL file


 23 22  0  0  0  0  0  0  0  0999 V2000     
   20.4673   21.6274   24.2350 N   0  3  0  0  0  0  0  0  0  0  0  0
   21.0614   21.9965   23.4857 H   0  0  0  0  0  0  0  0  0  0  0  0
   20.6943   22.1561   25.0841 H   0  0  0  0  0  0  0  0  0  0  0  0
   19.4981   21.8534   23.9923 H   0  0  0  0  0  0  0  0  0  0  0  0
   20.6669   20.1369   24.4303 C   0  0  0  0  0  0  0  0  0  0  0  0
   20.0260   19.8129   25.2547 H   0  0  0  0  0  0  0  0  0  0  0  0
   21.7077   19.9794   24.7263 H   0  0  0  0  0  0  0  0  0  0  0  0
   20.3619   19.2970   23.1746 C   0  0  0  0  0  0  0  0  0  0  0  0
   20.9870   19.6425   22.3407 H   0  0  0  0  0  0  0  0  0  0  0  0
   20.6534   18.2609   23.3857 H   0  0  0  0  0  0  0  0  0  0  0  0
   18.8669   19.3396   22.7747 C   0  0  0  0  0  0  0  0  0  0  0  0
   18.5477   20.3843   22.6649 H   0  0  0  0  0  0  0  0  0  0  0  0
   18.2604   18.9189   23.5887 H   0  0  0  0  0  0  0  0  0  0  0  0
   18.5374   18.5994   21.4523 C   0  0  0  0  0  0  0  0  0  0  0  0
   17.4653   18.7377   21.2551 H   0  0  0  0  0  0  0  0  0  0  0  0
   19.0562   19.0799   20.6113 H   0  0  0  0  0  0  0  0  0  0  0  0
   18.8322   17.0771   21.4653 C   0  0  0  0  0  0  0  0  0  0  0  0
   18.0587   16.5658   20.8752 H   0  0  0  0  0  0  0  0  0  0  0  0
   18.7449   16.6793   22.4859 H   0  0  0  0  0  0  0  0  0  0  0  0
   20.2090   16.7135   20.8616 C   0  0  0  0  0  0  0  0  0  0  0  0
   20.2767   17.0409   19.8160 H   0  0  0  0  0  0  0  0  0  0  0  0
   20.3613   15.6266   20.8800 H   0  0  0  0  0  0  0  0  0  0  0  0
   21.0364   17.1738   21.4126 H   0  0  0  0  0  0  0  0  0  0  0  0
  1  2  1  0  0  0  0
  1  3  1  0  0  0  0
  1  4  1  0  0  0  0
  1  5  1  0  0  0  0
  5  6  1  0  0  0  0
  5  7  1  0  0  0  0
  5  8  1  0  0  0  0
  8  9  1  0  0  0  0
  8 10  1  0  0  0  0
  8 11  1  0  0  0  0
 11 12  1  0  0  0  0
 11 13  1  0  0  0  0
 11 14  1  0  0  0  0
 14 15  1  0  0  0  0
 14 16  1  0  0  0  0
 14 17  1  0  0  0  0
 17 18  1  0  0  0  0
 17 19  1  0  0  0  0
 17 20  1  0  0  0  0
 20 21  1  0  0  0  0
 20 22  1  0  0  0  0
 20 23  1  0  0  0  0
M  END
> <VConfSearch Rank>
789

> <Conf_Id>
3

> <Delta U+W>
3.283

> <U+W>
-5.099

> <U>
50.701

> <W>
-55.800

> <W(PB)>
-57.867

> <W(SA)>
2.067

> <Valence>
4.880

> <Coulomb>
45.095

> <VdW>
0.726

> <VdW6>
-6.620

> <VdW12>
7.346

> <Bond>
0.222

> <Angle>
1.260

> <Pdih>
3.398

> <Idih>
0.000

> <Tether>
0.000

$$$$
VeraChem MOL file


 23 22  0  0  0  0  0  0  0  0999 V2000     
   17.7520   21.0397   21.9770 N   0  3  0  0  0  0  0  0  0  0  0  0
   16.9493   21.0060   22.6135 H   0  0  0  0  0  0  0  0  0  0  0  0
   17.5882   21.8182   21.3297 H   0  0  0  0  0  0  0  0  0  0  0  0
   18.5741   21.2827   22.5380 H   0  0  0  0  0  0  0  0  0  0  0  0
   17.9438   19.7273   21.2427 C   0  0  0  0  0  0  0  0  0  0  0  0
   18.7914   19.8401   20.5621 H   0  0  0  0  0  0  0  0  0  0  0  0
   17.0484   19.5489   20.6410 H   0  0  0  0  0  0  0  0  0  0  0  0
   18.1798   18.5228   22.1770 C   0  0  0  0  0  0  0  0  0  0  0  0
   17.2990   18.3902   22.8191 H   0  0  0  0  0  0  0  0  0  0  0  0
   18.2526   17.6127   21.5668 H   0  0  0  0  0  0  0  0  0  0  0  0
   19.4448   18.6452   23.0637 C   0  0  0  0  0  0  0  0  0  0  0  0
   19.4920   17.7608   23.7123 H   0  0  0  0  0  0  0  0  0  0  0  0
   19.3500   19.5103   23.7333 H   0  0  0  0  0  0  0  0  0  0  0  0
   20.7557   18.7571   22.2443 C   0  0  0  0  0  0  0  0  0  0  0  0
   20.8628   17.8771   21.5952 H   0  0  0  0  0  0  0  0  0  0  0  0
   20.6997   19.6276   21.5777 H   0  0  0  0  0  0  0  0  0  0  0  0
   22.0210   18.9065   23.1237 C   0  0  0  0  0  0  0  0  0  0  0  0
   21.9242   19.7918   23.7677 H   0  0  0  0  0  0  0  0  0  0  0  0
   22.8835   19.0959   22.4694 H   0  0  0  0  0  0  0  0  0  0  0  0
   22.3201   17.6624   23.9909 C   0  0  0  0  0  0  0  0  0  0  0  0
   22.3886   16.7575   23.3733 H   0  0  0  0  0  0  0  0  0  0  0  0
   21.5447   17.5032   24.7503 H   0  0  0  0  0  0  0  0  0  0  0  0
   23.2760   17.7823   24.5171 H   0  0  0  0  0  0  0  0  0  0  0  0
  1  2  1  0  0  0  0
  1  3  1  0  0  0  0
  1  4  1  0  0  0  0
  1  5  1  0  0  0  0
  5  6  1  0  0  0  0
  5  7  1  0  0  0  0
  5  8  1  0  0  0  0
  8  9  1  0  0  0  0
  8 10  1  0  0  0  0
  8 11  1  0  0  0  0
 11 12  1  0  0  0  0
 11 13  1  0  0  0  0
 11 14  1  0  0  0  0
 14 15  1  0  0  0  0
 14 16  1  0  0  0  0
 14 17  1  0  0  0  0
 17 18  1  0  0  0  0
 17 19  1  0  0  0  0
 17 20  1  0  0  0  0
 20 21  1  0  0  0  0
 20 22  1  0  0  0  0
 20 23  1  0  0  0  0
M  END
> <VConfSearch Rank>
790

> <Conf_Id>
83

> <Delta U+W>
1.229

> <U+W>
-7.154

> <U>
48.727

> <W>
-55.880

> <W(PB)>
-57.960

> <W(SA)>
2.080

> <Valence>
2.671

> <Coulomb>
45.371

> <VdW>
0.684

> <VdW6>
-6.511

> <VdW12>
7.195

> <Bond>
0.203

> <Angle>
0.915

> <Pdih>
1.554

> <Idih>
0.000

> <Tether>
0.000

$$$$
VeraChem MOL file


 23 22  0  0  0  0  0  0  0  0999 V2000     
   19.2183   17.0587   24.6573 N   0  3  0  0  0  0  0  0  0  0  0  0
   18.4871   16.3828   24.4143 H   0  0  0  0  0  0  0  0  0  0  0  0
   18.7786   17.9835   24.6877 H   0  0  0  0  0  0  0  0  0  0  0  0
   19.5239   16.8390   25.6114 H   0  0  0  0  0  0  0  0  0  0  0  0
   20.3710   17.0194   23.6734 C   0  0  0  0  0  0  0  0  0  0  0  0
   20.8125   16.0201   23.7182 H   0  0  0  0  0  0  0  0  0  0  0  0
   21.1252   17.7372   24.0056 H   0  0  0  0  0  0  0  0  0  0  0  0
   19.9569   17.3303   22.2204 C   0  0  0  0  0  0  0  0  0  0  0  0
   20.8378   17.2260   21.5731 H   0  0  0  0  0  0  0  0  0  0  0  0
   19.2386   16.5714   21.8830 H   0  0  0  0  0  0  0  0  0  0  0  0
   19.3423   18.7391   22.0228 C   0  0  0  0  0  0  0  0  0  0  0  0
   18.4173   18.8291   22.6077 H   0  0  0  0  0  0  0  0  0  0  0  0
   19.0485   18.8369   20.9697 H   0  0  0  0  0  0  0  0  0  0  0  0
   20.3141   19.8868   22.3982 C   0  0  0  0  0  0  0  0  0  0  0  0
   20.6277   19.7759   23.4445 H   0  0  0  0  0  0  0  0  0  0  0  0
   21.2276   19.8115   21.7923 H   0  0  0  0  0  0  0  0  0  0  0  0
   19.6973   21.2965   22.2287 C   0  0  0  0  0  0  0  0  0  0  0  0
   20.4042   22.0394   22.6239 H   0  0  0  0  0  0  0  0  0  0  0  0
   18.7888   21.3813   22.8411 H   0  0  0  0  0  0  0  0  0  0  0  0
   19.3707   21.6546   20.7609 C   0  0  0  0  0  0  0  0  0  0  0  0
   20.2561   21.5454   20.1212 H   0  0  0  0  0  0  0  0  0  0  0  0
   19.0297   22.6953   20.6865 H   0  0  0  0  0  0  0  0  0  0  0  0
   18.5737   21.0180   20.3574 H   0  0  0  0  0  0  0  0  0  0  0  0
  1  2  1  0  0  0  0
  1  3  1  0  0  0  0
  1  4  1  0  0  0  0
  1  5  1  0  0  0  0
  5  6  1  0  0  0  0
  5  7  1  0  0  0  0
  5  8  1  0  0  0  0
  8  9  1  0  0  0  0
  8 10  1  0  0  0  0
  8 11  1  0  0  0  0
 11 12  1  0  0  0  0
 11 13  1  0  0  0  0
 11 14  1  0  0  0  0
 14 15  1  0  0  0  0
 14 16  1  0  0  0  0
 14 17  1  0  0  0  0
 17 18  1  0  0  0  0
 17 19  1  0  0  0  0
 17 20  1  0  0  0  0
 20 21  1  0  0  0  0
 20 22  1  0  0  0  0
 20 23  1  0  0  0  0
M  END
> <VConfSearch Rank>
791

> <Conf_Id>
50

> <Delta U+W>
1.252

> <U+W>
-7.130

> <U>
48.727

> <W>
-55.857

> <W(PB)>
-57.937

> <W(SA)>
2.080

> <Valence>
2.671

> <Coulomb>
45.371

> <VdW>
0.684

> <VdW6>
-6.511

> <VdW12>
7.196

> <Bond>
0.203

> <Angle>
0.915

> <Pdih>
1.554

> <Idih>
0.000

> <Tether>
0.000

$$$$
VeraChem MOL file


 23 22  0  0  0  0  0  0  0  0999 V2000     
   22.8046   19.1706   21.6156 N   0  3  0  0  0  0  0  0  0  0  0  0
   22.6786   20.0911   22.0472 H   0  0  0  0  0  0  0  0  0  0  0  0
   23.4358   19.2978   20.8173 H   0  0  0  0  0  0  0  0  0  0  0  0
   23.2971   18.5820   22.2950 H   0  0  0  0  0  0  0  0  0  0  0  0
   21.4817   18.5602   21.1953 C   0  0  0  0  0  0  0  0  0  0  0  0
   21.6972   17.6049   20.7090 H   0  0  0  0  0  0  0  0  0  0  0  0
   21.0220   19.2222   20.4564 H   0  0  0  0  0  0  0  0  0  0  0  0
   20.5036   18.3291   22.3635 C   0  0  0  0  0  0  0  0  0  0  0  0
   19.6314   17.7892   21.9784 H   0  0  0  0  0  0  0  0  0  0  0  0
   20.9716   17.6682   23.1051 H   0  0  0  0  0  0  0  0  0  0  0  0
   20.0604   19.6507   23.0416 C   0  0  0  0  0  0  0  0  0  0  0  0
   19.6777   20.3561   22.2911 H   0  0  0  0  0  0  0  0  0  0  0  0
   20.9440   20.1281   23.4857 H   0  0  0  0  0  0  0  0  0  0  0  0
   19.0080   19.4443   24.1623 C   0  0  0  0  0  0  0  0  0  0  0  0
   19.1348   18.4573   24.6280 H   0  0  0  0  0  0  0  0  0  0  0  0
   19.2083   20.1745   24.9586 H   0  0  0  0  0  0  0  0  0  0  0  0
   17.5368   19.6371   23.7134 C   0  0  0  0  0  0  0  0  0  0  0  0
   17.3961   20.6622   23.3429 H   0  0  0  0  0  0  0  0  0  0  0  0
   16.8880   19.5412   24.5952 H   0  0  0  0  0  0  0  0  0  0  0  0
   17.0622   18.6348   22.6387 C   0  0  0  0  0  0  0  0  0  0  0  0
   17.2434   17.5994   22.9548 H   0  0  0  0  0  0  0  0  0  0  0  0
   17.5728   18.8038   21.6826 H   0  0  0  0  0  0  0  0  0  0  0  0
   15.9852   18.7470   22.4588 H   0  0  0  0  0  0  0  0  0  0  0  0
  1  2  1  0  0  0  0
  1  3  1  0  0  0  0
  1  4  1  0  0  0  0
  1  5  1  0  0  0  0
  5  6  1  0  0  0  0
  5  7  1  0  0  0  0
  5  8  1  0  0  0  0
  8  9  1  0  0  0  0
  8 10  1  0  0  0  0
  8 11  1  0  0  0  0
 11 12  1  0  0  0  0
 11 13  1  0  0  0  0
 11 14  1  0  0  0  0
 14 15  1  0  0  0  0
 14 16  1  0  0  0  0
 14 17  1  0  0  0  0
 17 18  1  0  0  0  0
 17 19  1  0  0  0  0
 17 20  1  0  0  0  0
 20 21  1  0  0  0  0
 20 22  1  0  0  0  0
 20 23  1  0  0  0  0
M  END
> <VConfSearch Rank>
792

> <Conf_Id>
55

> <Delta U+W>
3.232

> <U+W>
-5.150

> <U>
50.625

> <W>
-55.776

> <W(PB)>
-57.839

> <W(SA)>
2.064

> <Valence>
4.837

> <Coulomb>
45.097

> <VdW>
0.692

> <VdW6>
-6.655

> <VdW12>
7.347

> <Bond>
0.223

> <Angle>
1.167

> <Pdih>
3.447

> <Idih>
0.000

> <Tether>
0.000

$$$$
VeraChem MOL file


 23 22  0  0  0  0  0  0  0  0999 V2000     
   21.1707   19.4719   25.4088 N   0  3  0  0  0  0  0  0  0  0  0  0
   20.9676   20.2968   25.9825 H   0  0  0  0  0  0  0  0  0  0  0  0
   22.1562   19.2353   25.5661 H   0  0  0  0  0  0  0  0  0  0  0  0
   20.6144   18.6981   25.7863 H   0  0  0  0  0  0  0  0  0  0  0  0
   20.8774   19.7171   23.9427 C   0  0  0  0  0  0  0  0  0  0  0  0
   21.1501   18.8146   23.3927 H   0  0  0  0  0  0  0  0  0  0  0  0
   21.5230   20.5313   23.6025 H   0  0  0  0  0  0  0  0  0  0  0  0
   19.4038   20.0820   23.6760 C   0  0  0  0  0  0  0  0  0  0  0  0
   18.7401   19.2934   24.0548 H   0  0  0  0  0  0  0  0  0  0  0  0
   19.1682   20.9878   24.2504 H   0  0  0  0  0  0  0  0  0  0  0  0
   19.1062   20.3561   22.1800 C   0  0  0  0  0  0  0  0  0  0  0  0
   19.9545   20.8793   21.7172 H   0  0  0  0  0  0  0  0  0  0  0  0
   18.2598   21.0544   22.1227 H   0  0  0  0  0  0  0  0  0  0  0  0
   18.7343   19.1022   21.3464 C   0  0  0  0  0  0  0  0  0  0  0  0
   17.8226   18.6468   21.7573 H   0  0  0  0  0  0  0  0  0  0  0  0
   18.4781   19.4316   20.3299 H   0  0  0  0  0  0  0  0  0  0  0  0
   19.8474   18.0326   21.2602 C   0  0  0  0  0  0  0  0  0  0  0  0
   20.0073   17.5790   22.2469 H   0  0  0  0  0  0  0  0  0  0  0  0
   20.7944   18.5018   20.9591 H   0  0  0  0  0  0  0  0  0  0  0  0
   19.4875   16.9162   20.2567 C   0  0  0  0  0  0  0  0  0  0  0  0
   19.3566   17.3212   19.2447 H   0  0  0  0  0  0  0  0  0  0  0  0
   18.5568   16.4108   20.5459 H   0  0  0  0  0  0  0  0  0  0  0  0
   20.2826   16.1605   20.2161 H   0  0  0  0  0  0  0  0  0  0  0  0
  1  2  1  0  0  0  0
  1  3  1  0  0  0  0
  1  4  1  0  0  0  0
  1  5  1  0  0  0  0
  5  6  1  0  0  0  0
  5  7  1  0  0  0  0
  5  8  1  0  0  0  0
  8  9  1  0  0  0  0
  8 10  1  0  0  0  0
  8 11  1  0  0  0  0
 11 12  1  0  0  0  0
 11 13  1  0  0  0  0
 11 14  1  0  0  0  0
 14 15  1  0  0  0  0
 14 16  1  0  0  0  0
 14 17  1  0  0  0  0
 17 18  1  0  0  0  0
 17 19  1  0  0  0  0
 17 20  1  0  0  0  0
 20 21  1  0  0  0  0
 20 22  1  0  0  0  0
 20 23  1  0  0  0  0
M  END
> <VConfSearch Rank>
793

> <Conf_Id>
93

> <Delta U+W>
2.589

> <U+W>
-5.793

> <U>
50.122

> <W>
-55.915

> <W(PB)>
-58.031

> <W(SA)>
2.115

> <Valence>
4.132

> <Coulomb>
45.536

> <VdW>
0.454

> <VdW6>
-6.262

> <VdW12>
6.715

> <Bond>
0.182

> <Angle>
1.157

> <Pdih>
2.794

> <Idih>
0.000

> <Tether>
0.000

$$$$
VeraChem MOL file


 23 22  0  0  0  0  0  0  0  0999 V2000     
   18.8715   16.5119   24.3603 N   0  3  0  0  0  0  0  0  0  0  0  0
   17.9293   16.5547   23.9588 H   0  0  0  0  0  0  0  0  0  0  0  0
   18.7675   16.6091   25.3761 H   0  0  0  0  0  0  0  0  0  0  0  0
   19.2301   15.5673   24.1871 H   0  0  0  0  0  0  0  0  0  0  0  0
   19.7816   17.5766   23.7828 C   0  0  0  0  0  0  0  0  0  0  0  0
   20.7542   17.4901   24.2747 H   0  0  0  0  0  0  0  0  0  0  0  0
   19.3581   18.5502   24.0358 H   0  0  0  0  0  0  0  0  0  0  0  0
   19.9628   17.4515   22.2573 C   0  0  0  0  0  0  0  0  0  0  0  0
   20.3830   16.4594   22.0447 H   0  0  0  0  0  0  0  0  0  0  0  0
   18.9885   17.4900   21.7522 H   0  0  0  0  0  0  0  0  0  0  0  0
   20.9118   18.5253   21.6673 C   0  0  0  0  0  0  0  0  0  0  0  0
   21.3758   18.1104   20.7617 H   0  0  0  0  0  0  0  0  0  0  0  0
   21.7400   18.7188   22.3631 H   0  0  0  0  0  0  0  0  0  0  0  0
   20.2256   19.8586   21.2714 C   0  0  0  0  0  0  0  0  0  0  0  0
   20.9808   20.5057   20.8041 H   0  0  0  0  0  0  0  0  0  0  0  0
   19.4698   19.6656   20.4976 H   0  0  0  0  0  0  0  0  0  0  0  0
   19.5721   20.6208   22.4472 C   0  0  0  0  0  0  0  0  0  0  0  0
   20.2891   20.7181   23.2744 H   0  0  0  0  0  0  0  0  0  0  0  0
   18.7111   20.0555   22.8268 H   0  0  0  0  0  0  0  0  0  0  0  0
   19.0911   22.0236   22.0191 C   0  0  0  0  0  0  0  0  0  0  0  0
   18.6204   22.5459   22.8621 H   0  0  0  0  0  0  0  0  0  0  0  0
   18.3529   21.9574   21.2092 H   0  0  0  0  0  0  0  0  0  0  0  0
   19.9295   22.6392   21.6680 H   0  0  0  0  0  0  0  0  0  0  0  0
  1  2  1  0  0  0  0
  1  3  1  0  0  0  0
  1  4  1  0  0  0  0
  1  5  1  0  0  0  0
  5  6  1  0  0  0  0
  5  7  1  0  0  0  0
  5  8  1  0  0  0  0
  8  9  1  0  0  0  0
  8 10  1  0  0  0  0
  8 11  1  0  0  0  0
 11 12  1  0  0  0  0
 11 13  1  0  0  0  0
 11 14  1  0  0  0  0
 14 15  1  0  0  0  0
 14 16  1  0  0  0  0
 14 17  1  0  0  0  0
 17 18  1  0  0  0  0
 17 19  1  0  0  0  0
 17 20  1  0  0  0  0
 20 21  1  0  0  0  0
 20 22  1  0  0  0  0
 20 23  1  0  0  0  0
M  END
> <VConfSearch Rank>
794

> <Conf_Id>
70

> <Delta U+W>
2.599

> <U+W>
-5.783

> <U>
50.122

> <W>
-55.906

> <W(PB)>
-58.010

> <W(SA)>
2.105

> <Valence>
4.132

> <Coulomb>
45.536

> <VdW>
0.454

> <VdW6>
-6.262

> <VdW12>
6.715

> <Bond>
0.182

> <Angle>
1.157

> <Pdih>
2.794

> <Idih>
0.000

> <Tether>
0.000

$$$$
VeraChem MOL file


 23 22  0  0  0  0  0  0  0  0999 V2000     
   17.5747   19.7613   24.1587 N   0  3  0  0  0  0  0  0  0  0  0  0
   16.9418   20.5336   23.9275 H   0  0  0  0  0  0  0  0  0  0  0  0
   17.3706   19.4862   25.1254 H   0  0  0  0  0  0  0  0  0  0  0  0
   17.3189   18.9704   23.5599 H   0  0  0  0  0  0  0  0  0  0  0  0
   19.0284   20.1519   23.9786 C   0  0  0  0  0  0  0  0  0  0  0  0
   19.6479   19.3004   24.2722 H   0  0  0  0  0  0  0  0  0  0  0  0
   19.2389   20.9774   24.6641 H   0  0  0  0  0  0  0  0  0  0  0  0
   19.3797   20.5789   22.5392 C   0  0  0  0  0  0  0  0  0  0  0  0
   18.7768   21.4555   22.2676 H   0  0  0  0  0  0  0  0  0  0  0  0
   20.4240   20.9155   22.5145 H   0  0  0  0  0  0  0  0  0  0  0  0
   19.1648   19.4649   21.4810 C   0  0  0  0  0  0  0  0  0  0  0  0
   19.4774   19.8449   20.4986 H   0  0  0  0  0  0  0  0  0  0  0  0
   18.0907   19.2550   21.3894 H   0  0  0  0  0  0  0  0  0  0  0  0
   19.9112   18.1367   21.7703 C   0  0  0  0  0  0  0  0  0  0  0  0
   19.5427   17.6929   22.7047 H   0  0  0  0  0  0  0  0  0  0  0  0
   19.6619   17.4195   20.9761 H   0  0  0  0  0  0  0  0  0  0  0  0
   21.4485   18.2942   21.8396 C   0  0  0  0  0  0  0  0  0  0  0  0
   21.7246   18.9530   22.6738 H   0  0  0  0  0  0  0  0  0  0  0  0
   21.8142   18.7731   20.9206 H   0  0  0  0  0  0  0  0  0  0  0  0
   22.1525   16.9329   22.0226 C   0  0  0  0  0  0  0  0  0  0  0  0
   23.2413   17.0632   22.0724 H   0  0  0  0  0  0  0  0  0  0  0  0
   21.9322   16.2583   21.1850 H   0  0  0  0  0  0  0  0  0  0  0  0
   21.8291   16.4430   22.9503 H   0  0  0  0  0  0  0  0  0  0  0  0
  1  2  1  0  0  0  0
  1  3  1  0  0  0  0
  1  4  1  0  0  0  0
  1  5  1  0  0  0  0
  5  6  1  0  0  0  0
  5  7  1  0  0  0  0
  5  8  1  0  0  0  0
  8  9  1  0  0  0  0
  8 10  1  0  0  0  0
  8 11  1  0  0  0  0
 11 12  1  0  0  0  0
 11 13  1  0  0  0  0
 11 14  1  0  0  0  0
 14 15  1  0  0  0  0
 14 16  1  0  0  0  0
 14 17  1  0  0  0  0
 17 18  1  0  0  0  0
 17 19  1  0  0  0  0
 17 20  1  0  0  0  0
 20 21  1  0  0  0  0
 20 22  1  0  0  0  0
 20 23  1  0  0  0  0
M  END
> <VConfSearch Rank>
795

> <Conf_Id>
72

> <Delta U+W>
1.051

> <U+W>
-7.331

> <U>
48.590

> <W>
-55.922

> <W(PB)>
-58.012

> <W(SA)>
2.090

> <Valence>
2.601

> <Coulomb>
45.520

> <VdW>
0.469

> <VdW6>
-6.867

> <VdW12>
7.336

> <Bond>
0.205

> <Angle>
0.962

> <Pdih>
1.434

> <Idih>
0.000

> <Tether>
0.000

$$$$
VeraChem MOL file


 23 22  0  0  0  0  0  0  0  0999 V2000     
   17.0579   17.4369   23.0933 N   0  3  0  0  0  0  0  0  0  0  0  0
   16.8668   16.4294   23.1158 H   0  0  0  0  0  0  0  0  0  0  0  0
   16.2260   17.8888   22.7002 H   0  0  0  0  0  0  0  0  0  0  0  0
   17.1379   17.7470   24.0670 H   0  0  0  0  0  0  0  0  0  0  0  0
   18.3048   17.7555   22.2937 C   0  0  0  0  0  0  0  0  0  0  0  0
   18.1626   17.3737   21.2792 H   0  0  0  0  0  0  0  0  0  0  0  0
   19.1418   17.2197   22.7490 H   0  0  0  0  0  0  0  0  0  0  0  0
   18.6198   19.2621   22.2407 C   0  0  0  0  0  0  0  0  0  0  0  0
   17.7583   19.7945   21.8165 H   0  0  0  0  0  0  0  0  0  0  0  0
   18.7500   19.6491   23.2593 H   0  0  0  0  0  0  0  0  0  0  0  0
   19.8734   19.5809   21.3886 C   0  0  0  0  0  0  0  0  0  0  0  0
   20.0297   20.6677   21.3727 H   0  0  0  0  0  0  0  0  0  0  0  0
   19.6757   19.2952   20.3462 H   0  0  0  0  0  0  0  0  0  0  0  0
   21.1755   18.8761   21.8562 C   0  0  0  0  0  0  0  0  0  0  0  0
   21.0746   17.7917   21.7144 H   0  0  0  0  0  0  0  0  0  0  0  0
   21.9975   19.1844   21.1955 H   0  0  0  0  0  0  0  0  0  0  0  0
   21.5844   19.1536   23.3252 C   0  0  0  0  0  0  0  0  0  0  0  0
   22.5059   18.5959   23.5434 H   0  0  0  0  0  0  0  0  0  0  0  0
   20.8243   18.7581   24.0123 H   0  0  0  0  0  0  0  0  0  0  0  0
   21.8274   20.6508   23.6215 C   0  0  0  0  0  0  0  0  0  0  0  0
   22.5757   21.0717   22.9375 H   0  0  0  0  0  0  0  0  0  0  0  0
   22.1960   20.7852   24.6466 H   0  0  0  0  0  0  0  0  0  0  0  0
   20.9043   21.2354   23.5229 H   0  0  0  0  0  0  0  0  0  0  0  0
  1  2  1  0  0  0  0
  1  3  1  0  0  0  0
  1  4  1  0  0  0  0
  1  5  1  0  0  0  0
  5  6  1  0  0  0  0
  5  7  1  0  0  0  0
  5  8  1  0  0  0  0
  8  9  1  0  0  0  0
  8 10  1  0  0  0  0
  8 11  1  0  0  0  0
 11 12  1  0  0  0  0
 11 13  1  0  0  0  0
 11 14  1  0  0  0  0
 14 15  1  0  0  0  0
 14 16  1  0  0  0  0
 14 17  1  0  0  0  0
 17 18  1  0  0  0  0
 17 19  1  0  0  0  0
 17 20  1  0  0  0  0
 20 21  1  0  0  0  0
 20 22  1  0  0  0  0
 20 23  1  0  0  0  0
M  END
> <VConfSearch Rank>
796

> <Conf_Id>
26

> <Delta U+W>
1.076

> <U+W>
-7.306

> <U>
48.641

> <W>
-55.947

> <W(PB)>
-58.031

> <W(SA)>
2.084

> <Valence>
2.922

> <Coulomb>
45.269

> <VdW>
0.449

> <VdW6>
-7.045

> <VdW12>
7.494

> <Bond>
0.220

> <Angle>
1.205

> <Pdih>
1.497

> <Idih>
0.000

> <Tether>
0.000

$$$$
VeraChem MOL file


 23 22  0  0  0  0  0  0  0  0999 V2000     
   20.1634   17.4999   19.8826 N   0  3  0  0  0  0  0  0  0  0  0  0
   19.2906   17.1946   19.4401 H   0  0  0  0  0  0  0  0  0  0  0  0
   20.8960   16.8516   19.5743 H   0  0  0  0  0  0  0  0  0  0  0  0
   20.3945   18.4188   19.4916 H   0  0  0  0  0  0  0  0  0  0  0  0
   20.0470   17.5406   21.3927 C   0  0  0  0  0  0  0  0  0  0  0  0
   21.0168   17.8429   21.7963 H   0  0  0  0  0  0  0  0  0  0  0  0
   19.8290   16.5279   21.7424 H   0  0  0  0  0  0  0  0  0  0  0  0
   18.9544   18.5061   21.8885 C   0  0  0  0  0  0  0  0  0  0  0  0
   19.1652   19.5207   21.5271 H   0  0  0  0  0  0  0  0  0  0  0  0
   17.9915   18.2159   21.4477 H   0  0  0  0  0  0  0  0  0  0  0  0
   18.8166   18.5112   23.4313 C   0  0  0  0  0  0  0  0  0  0  0  0
   18.4873   17.5163   23.7612 H   0  0  0  0  0  0  0  0  0  0  0  0
   18.0102   19.1995   23.7174 H   0  0  0  0  0  0  0  0  0  0  0  0
   20.1134   18.8832   24.1999 C   0  0  0  0  0  0  0  0  0  0  0  0
   19.8978   18.8715   25.2772 H   0  0  0  0  0  0  0  0  0  0  0  0
   20.8682   18.1011   24.0421 H   0  0  0  0  0  0  0  0  0  0  0  0
   20.7292   20.2562   23.8286 C   0  0  0  0  0  0  0  0  0  0  0  0
   21.0509   20.2568   22.7786 H   0  0  0  0  0  0  0  0  0  0  0  0
   21.6420   20.4027   24.4227 H   0  0  0  0  0  0  0  0  0  0  0  0
   19.7746   21.4449   24.0826 C   0  0  0  0  0  0  0  0  0  0  0  0
   18.8944   21.4007   23.4293 H   0  0  0  0  0  0  0  0  0  0  0  0
   20.2848   22.3967   23.8863 H   0  0  0  0  0  0  0  0  0  0  0  0
   19.4292   21.4576   25.1245 H   0  0  0  0  0  0  0  0  0  0  0  0
  1  2  1  0  0  0  0
  1  3  1  0  0  0  0
  1  4  1  0  0  0  0
  1  5  1  0  0  0  0
  5  6  1  0  0  0  0
  5  7  1  0  0  0  0
  5  8  1  0  0  0  0
  8  9  1  0  0  0  0
  8 10  1  0  0  0  0
  8 11  1  0  0  0  0
 11 12  1  0  0  0  0
 11 13  1  0  0  0  0
 11 14  1  0  0  0  0
 14 15  1  0  0  0  0
 14 16  1  0  0  0  0
 14 17  1  0  0  0  0
 17 18  1  0  0  0  0
 17 19  1  0  0  0  0
 17 20  1  0  0  0  0
 20 21  1  0  0  0  0
 20 22  1  0  0  0  0
 20 23  1  0  0  0  0
M  END
> <VConfSearch Rank>
797

> <Conf_Id>
90

> <Delta U+W>
1.131

> <U+W>
-7.251

> <U>
48.641

> <W>
-55.892

> <W(PB)>
-57.962

> <W(SA)>
2.070

> <Valence>
2.922

> <Coulomb>
45.269

> <VdW>
0.450

> <VdW6>
-7.045

> <VdW12>
7.495

> <Bond>
0.220

> <Angle>
1.205

> <Pdih>
1.497

> <Idih>
0.000

> <Tether>
0.000

$$$$
VeraChem MOL file


 23 22  0  0  0  0  0  0  0  0999 V2000     
   22.0002   20.1566   21.7446 N   0  3  0  0  0  0  0  0  0  0  0  0
   22.7563   19.9504   21.0830 H   0  0  0  0  0  0  0  0  0  0  0  0
   21.9503   19.3703   22.3996 H   0  0  0  0  0  0  0  0  0  0  0  0
   22.2887   20.9809   22.2811 H   0  0  0  0  0  0  0  0  0  0  0  0
   20.6780   20.3797   21.0373 C   0  0  0  0  0  0  0  0  0  0  0  0
   20.4452   19.4797   20.4623 H   0  0  0  0  0  0  0  0  0  0  0  0
   20.8119   21.2060   20.3339 H   0  0  0  0  0  0  0  0  0  0  0  0
   19.5113   20.7047   21.9924 C   0  0  0  0  0  0  0  0  0  0  0  0
   19.7352   21.6357   22.5300 H   0  0  0  0  0  0  0  0  0  0  0  0
   18.6124   20.9056   21.3946 H   0  0  0  0  0  0  0  0  0  0  0  0
   19.2042   19.5829   23.0161 C   0  0  0  0  0  0  0  0  0  0  0  0
   18.3746   19.9115   23.6570 H   0  0  0  0  0  0  0  0  0  0  0  0
   20.0676   19.4463   23.6794 H   0  0  0  0  0  0  0  0  0  0  0  0
   18.8266   18.2373   22.3464 C   0  0  0  0  0  0  0  0  0  0  0  0
   18.0175   18.4115   21.6237 H   0  0  0  0  0  0  0  0  0  0  0  0
   19.6772   17.8483   21.7711 H   0  0  0  0  0  0  0  0  0  0  0  0
   18.3613   17.1595   23.3549 C   0  0  0  0  0  0  0  0  0  0  0  0
   18.0128   16.2800   22.7956 H   0  0  0  0  0  0  0  0  0  0  0  0
   17.4933   17.5280   23.9195 H   0  0  0  0  0  0  0  0  0  0  0  0
   19.4708   16.7180   24.3364 C   0  0  0  0  0  0  0  0  0  0  0  0
   20.3606   16.3697   23.7961 H   0  0  0  0  0  0  0  0  0  0  0  0
   19.1181   15.8927   24.9684 H   0  0  0  0  0  0  0  0  0  0  0  0
   19.7703   17.5372   25.0017 H   0  0  0  0  0  0  0  0  0  0  0  0
  1  2  1  0  0  0  0
  1  3  1  0  0  0  0
  1  4  1  0  0  0  0
  1  5  1  0  0  0  0
  5  6  1  0  0  0  0
  5  7  1  0  0  0  0
  5  8  1  0  0  0  0
  8  9  1  0  0  0  0
  8 10  1  0  0  0  0
  8 11  1  0  0  0  0
 11 12  1  0  0  0  0
 11 13  1  0  0  0  0
 11 14  1  0  0  0  0
 14 15  1  0  0  0  0
 14 16  1  0  0  0  0
 14 17  1  0  0  0  0
 17 18  1  0  0  0  0
 17 19  1  0  0  0  0
 17 20  1  0  0  0  0
 20 21  1  0  0  0  0
 20 22  1  0  0  0  0
 20 23  1  0  0  0  0
M  END
> <VConfSearch Rank>
798

> <Conf_Id>
85

> <Delta U+W>
1.193

> <U+W>
-7.189

> <U>
48.775

> <W>
-55.965

> <W(PB)>
-58.038

> <W(SA)>
2.073

> <Valence>
2.602

> <Coulomb>
45.581

> <VdW>
0.592

> <VdW6>
-6.616

> <VdW12>
7.208

> <Bond>
0.196

> <Angle>
0.832

> <Pdih>
1.574

> <Idih>
0.000

> <Tether>
0.000

$$$$
VeraChem MOL file


 23 22  0  0  0  0  0  0  0  0999 V2000     
   18.0111   18.0461   23.3055 N   0  3  0  0  0  0  0  0  0  0  0  0
   18.4718   18.9562   23.4061 H   0  0  0  0  0  0  0  0  0  0  0  0
   17.7543   17.7259   24.2457 H   0  0  0  0  0  0  0  0  0  0  0  0
   17.1366   18.2006   22.7934 H   0  0  0  0  0  0  0  0  0  0  0  0
   18.9075   17.0492   22.5967 C   0  0  0  0  0  0  0  0  0  0  0  0
   18.3496   16.1114   22.5269 H   0  0  0  0  0  0  0  0  0  0  0  0
   19.7920   16.8724   23.2144 H   0  0  0  0  0  0  0  0  0  0  0  0
   19.3357   17.4866   21.1811 C   0  0  0  0  0  0  0  0  0  0  0  0
   19.6178   16.5834   20.6238 H   0  0  0  0  0  0  0  0  0  0  0  0
   18.4745   17.9098   20.6471 H   0  0  0  0  0  0  0  0  0  0  0  0
   20.5350   18.4709   21.1263 C   0  0  0  0  0  0  0  0  0  0  0  0
   20.7644   18.6503   20.0668 H   0  0  0  0  0  0  0  0  0  0  0  0
   21.4320   17.9926   21.5437 H   0  0  0  0  0  0  0  0  0  0  0  0
   20.2972   19.8443   21.8049 C   0  0  0  0  0  0  0  0  0  0  0  0
   20.8137   20.6171   21.2187 H   0  0  0  0  0  0  0  0  0  0  0  0
   19.2318   20.1071   21.7660 H   0  0  0  0  0  0  0  0  0  0  0  0
   20.8359   19.9091   23.2550 C   0  0  0  0  0  0  0  0  0  0  0  0
   21.9304   19.8085   23.2395 H   0  0  0  0  0  0  0  0  0  0  0  0
   20.4642   19.0684   23.8528 H   0  0  0  0  0  0  0  0  0  0  0  0
   20.4588   21.2370   23.9451 C   0  0  0  0  0  0  0  0  0  0  0  0
   20.8653   22.0958   23.3949 H   0  0  0  0  0  0  0  0  0  0  0  0
   20.8615   21.2712   24.9658 H   0  0  0  0  0  0  0  0  0  0  0  0
   19.3697   21.3579   24.0087 H   0  0  0  0  0  0  0  0  0  0  0  0
  1  2  1  0  0  0  0
  1  3  1  0  0  0  0
  1  4  1  0  0  0  0
  1  5  1  0  0  0  0
  5  6  1  0  0  0  0
  5  7  1  0  0  0  0
  5  8  1  0  0  0  0
  8  9  1  0  0  0  0
  8 10  1  0  0  0  0
  8 11  1  0  0  0  0
 11 12  1  0  0  0  0
 11 13  1  0  0  0  0
 11 14  1  0  0  0  0
 14 15  1  0  0  0  0
 14 16  1  0  0  0  0
 14 17  1  0  0  0  0
 17 18  1  0  0  0  0
 17 19  1  0  0  0  0
 17 20  1  0  0  0  0
 20 21  1  0  0  0  0
 20 22  1  0  0  0  0
 20 23  1  0  0  0  0
M  END
> <VConfSearch Rank>
799

> <Conf_Id>
82

> <Delta U+W>
5.994

> <U+W>
-2.388

> <U>
52.836

> <W>
-55.224

> <W(PB)>
-57.261

> <W(SA)>
2.037

> <Valence>
5.785

> <Coulomb>
46.744

> <VdW>
0.307

> <VdW6>
-7.672

> <VdW12>
7.979

> <Bond>
0.217

> <Angle>
1.470

> <Pdih>
4.098

> <Idih>
0.000

> <Tether>
0.000

$$$$
VeraChem MOL file


 23 22  0  0  0  0  0  0  0  0999 V2000     
   19.2201   17.0862   23.0765 N   0  3  0  0  0  0  0  0  0  0  0  0
   19.1074   16.4034   22.3201 H   0  0  0  0  0  0  0  0  0  0  0  0
   19.2673   16.5557   23.9533 H   0  0  0  0  0  0  0  0  0  0  0  0
   20.1284   17.5424   22.9441 H   0  0  0  0  0  0  0  0  0  0  0  0
   18.0911   18.0984   23.0911 C   0  0  0  0  0  0  0  0  0  0  0  0
   18.2243   18.7595   23.9515 H   0  0  0  0  0  0  0  0  0  0  0  0
   17.1625   17.5390   23.2337 H   0  0  0  0  0  0  0  0  0  0  0  0
   17.9816   18.9346   21.7997 C   0  0  0  0  0  0  0  0  0  0  0  0
   18.1089   18.2838   20.9244 H   0  0  0  0  0  0  0  0  0  0  0  0
   16.9553   19.3203   21.7379 H   0  0  0  0  0  0  0  0  0  0  0  0
   18.9489   20.1456   21.7107 C   0  0  0  0  0  0  0  0  0  0  0  0
   18.7287   20.8613   22.5149 H   0  0  0  0  0  0  0  0  0  0  0  0
   18.7245   20.6770   20.7755 H   0  0  0  0  0  0  0  0  0  0  0  0
   20.4579   19.7903   21.7104 C   0  0  0  0  0  0  0  0  0  0  0  0
   20.6130   18.7946   21.2742 H   0  0  0  0  0  0  0  0  0  0  0  0
   20.9808   20.4898   21.0433 H   0  0  0  0  0  0  0  0  0  0  0  0
   21.1088   19.8940   23.1114 C   0  0  0  0  0  0  0  0  0  0  0  0
   20.5376   19.3267   23.8558 H   0  0  0  0  0  0  0  0  0  0  0  0
   21.0845   20.9410   23.4453 H   0  0  0  0  0  0  0  0  0  0  0  0
   22.5708   19.3997   23.0994 C   0  0  0  0  0  0  0  0  0  0  0  0
   22.6325   18.3451   22.8016 H   0  0  0  0  0  0  0  0  0  0  0  0
   23.0201   19.4948   24.0966 H   0  0  0  0  0  0  0  0  0  0  0  0
   23.1793   19.9875   22.3997 H   0  0  0  0  0  0  0  0  0  0  0  0
  1  2  1  0  0  0  0
  1  3  1  0  0  0  0
  1  4  1  0  0  0  0
  1  5  1  0  0  0  0
  5  6  1  0  0  0  0
  5  7  1  0  0  0  0
  5  8  1  0  0  0  0
  8  9  1  0  0  0  0
  8 10  1  0  0  0  0
  8 11  1  0  0  0  0
 11 12  1  0  0  0  0
 11 13  1  0  0  0  0
 11 14  1  0  0  0  0
 14 15  1  0  0  0  0
 14 16  1  0  0  0  0
 14 17  1  0  0  0  0
 17 18  1  0  0  0  0
 17 19  1  0  0  0  0
 17 20  1  0  0  0  0
 20 21  1  0  0  0  0
 20 22  1  0  0  0  0
 20 23  1  0  0  0  0
M  END
> <VConfSearch Rank>
800

> <Conf_Id>
5

> <Delta U+W>
6.087

> <U+W>
-2.295

> <U>
52.836

> <W>
-55.131

> <W(PB)>
-57.202

> <W(SA)>
2.071

> <Valence>
5.785

> <Coulomb>
46.744

> <VdW>
0.307

> <VdW6>
-7.672

> <VdW12>
7.980

> <Bond>
0.217

> <Angle>
1.470

> <Pdih>
4.098

> <Idih>
0.000

> <Tether>
0.000

$$$$
VeraChem MOL file


 23 22  0  0  0  0  0  0  0  0999 V2000     
   17.4912   16.7555   20.4846 N   0  3  0  0  0  0  0  0  0  0  0  0
   18.0266   16.8363   19.6142 H   0  0  0  0  0  0  0  0  0  0  0  0
   16.5044   16.6652   20.2200 H   0  0  0  0  0  0  0  0  0  0  0  0
   17.7635   15.8708   20.9251 H   0  0  0  0  0  0  0  0  0  0  0  0
   17.7218   17.9389   21.4025 C   0  0  0  0  0  0  0  0  0  0  0  0
   17.1012   17.8019   22.2921 H   0  0  0  0  0  0  0  0  0  0  0  0
   17.3839   18.8397   20.8831 H   0  0  0  0  0  0  0  0  0  0  0  0
   19.1945   18.1023   21.8184 C   0  0  0  0  0  0  0  0  0  0  0  0
   19.5342   17.1891   22.3251 H   0  0  0  0  0  0  0  0  0  0  0  0
   19.8160   18.2232   20.9210 H   0  0  0  0  0  0  0  0  0  0  0  0
   19.3868   19.3178   22.7521 C   0  0  0  0  0  0  0  0  0  0  0  0
   18.7595   19.1956   23.6461 H   0  0  0  0  0  0  0  0  0  0  0  0
   19.0410   20.2286   22.2435 H   0  0  0  0  0  0  0  0  0  0  0  0
   20.8629   19.4915   23.1763 C   0  0  0  0  0  0  0  0  0  0  0  0
   21.2089   18.5810   23.6850 H   0  0  0  0  0  0  0  0  0  0  0  0
   21.4904   19.6137   22.2825 H   0  0  0  0  0  0  0  0  0  0  0  0
   21.0549   20.7073   24.1100 C   0  0  0  0  0  0  0  0  0  0  0  0
   20.4310   20.5886   25.0070 H   0  0  0  0  0  0  0  0  0  0  0  0
   20.7125   21.6212   23.6046 H   0  0  0  0  0  0  0  0  0  0  0  0
   22.5300   20.8775   24.5314 C   0  0  0  0  0  0  0  0  0  0  0  0
   22.6463   21.7452   25.1937 H   0  0  0  0  0  0  0  0  0  0  0  0
   23.1752   21.0326   23.6568 H   0  0  0  0  0  0  0  0  0  0  0  0
   22.8915   19.9919   25.0701 H   0  0  0  0  0  0  0  0  0  0  0  0
  1  2  1  0  0  0  0
  1  3  1  0  0  0  0
  1  4  1  0  0  0  0
  1  5  1  0  0  0  0
  5  6  1  0  0  0  0
  5  7  1  0  0  0  0
  5  8  1  0  0  0  0
  8  9  1  0  0  0  0
  8 10  1  0  0  0  0
  8 11  1  0  0  0  0
 11 12  1  0  0  0  0
 11 13  1  0  0  0  0
 11 14  1  0  0  0  0
 14 15  1  0  0  0  0
 14 16  1  0  0  0  0
 14 17  1  0  0  0  0
 17 18  1  0  0  0  0
 17 19  1  0  0  0  0
 17 20  1  0  0  0  0
 20 21  1  0  0  0  0
 20 22  1  0  0  0  0
 20 23  1  0  0  0  0
M  END
> <VConfSearch Rank>
801

> <Conf_Id>
40

> <Delta U+W>
0.000

> <U+W>
-8.382

> <U>
46.604

> <W>
-54.986

> <W(PB)>
-57.162

> <W(SA)>
2.176

> <Valence>
1.727

> <Coulomb>
44.434

> <VdW>
0.443

> <VdW6>
-4.623

> <VdW12>
5.066

> <Bond>
0.112

> <Angle>
0.386

> <Pdih>
1.228

> <Idih>
0.000

> <Tether>
0.000

$$$$
VeraChem MOL file


 23 22  0  0  0  0  0  0  0  0999 V2000     
   16.8382   19.1783   20.5640 N   0  3  0  0  0  0  0  0  0  0  0  0
   16.7894   18.3602   19.9482 H   0  0  0  0  0  0  0  0  0  0  0  0
   17.1322   19.9729   19.9869 H   0  0  0  0  0  0  0  0  0  0  0  0
   15.8807   19.3742   20.8754 H   0  0  0  0  0  0  0  0  0  0  0  0
   17.7751   18.9511   21.7329 C   0  0  0  0  0  0  0  0  0  0  0  0
   17.3876   18.1126   22.3179 H   0  0  0  0  0  0  0  0  0  0  0  0
   17.7528   19.8469   22.3587 H   0  0  0  0  0  0  0  0  0  0  0  0
   19.2224   18.6538   21.2971 C   0  0  0  0  0  0  0  0  0  0  0  0
   19.2228   17.7806   20.6313 H   0  0  0  0  0  0  0  0  0  0  0  0
   19.6125   19.4963   20.7105 H   0  0  0  0  0  0  0  0  0  0  0  0
   20.1635   18.3724   22.4924 C   0  0  0  0  0  0  0  0  0  0  0  0
   21.1381   18.0598   22.0957 H   0  0  0  0  0  0  0  0  0  0  0  0
   19.7759   17.5230   23.0718 H   0  0  0  0  0  0  0  0  0  0  0  0
   20.3497   19.5988   23.4218 C   0  0  0  0  0  0  0  0  0  0  0  0
   20.7569   20.4415   22.8462 H   0  0  0  0  0  0  0  0  0  0  0  0
   19.3717   19.9261   23.7986 H   0  0  0  0  0  0  0  0  0  0  0  0
   21.2637   19.3162   24.6389 C   0  0  0  0  0  0  0  0  0  0  0  0
   20.8554   18.4806   25.2245 H   0  0  0  0  0  0  0  0  0  0  0  0
   21.2473   20.1924   25.3021 H   0  0  0  0  0  0  0  0  0  0  0  0
   22.7295   19.0137   24.2526 C   0  0  0  0  0  0  0  0  0  0  0  0
   22.8144   18.0741   23.6930 H   0  0  0  0  0  0  0  0  0  0  0  0
   23.3515   18.9181   25.1521 H   0  0  0  0  0  0  0  0  0  0  0  0
   23.1506   19.8200   23.6382 H   0  0  0  0  0  0  0  0  0  0  0  0
  1  2  1  0  0  0  0
  1  3  1  0  0  0  0
  1  4  1  0  0  0  0
  1  5  1  0  0  0  0
  5  6  1  0  0  0  0
  5  7  1  0  0  0  0
  5  8  1  0  0  0  0
  8  9  1  0  0  0  0
  8 10  1  0  0  0  0
  8 11  1  0  0  0  0
 11 12  1  0  0  0  0
 11 13  1  0  0  0  0
 11 14  1  0  0  0  0
 14 15  1  0  0  0  0
 14 16  1  0  0  0  0
 14 17  1  0  0  0  0
 17 18  1  0  0  0  0
 17 19  1  0  0  0  0
 17 20  1  0  0  0  0
 20 21  1  0  0  0  0
 20 22  1  0  0  0  0
 20 23  1  0  0  0  0
M  END
> <VConfSearch Rank>
802

> <Conf_Id>
65

> <Delta U+W>
1.004

> <U+W>
-7.378

> <U>
48.047

> <W>
-55.425

> <W(PB)>
-57.542

> <W(SA)>
2.116

> <Valence>
2.583

> <Coulomb>
44.791

> <VdW>
0.673

> <VdW6>
-5.788

> <VdW12>
6.462

> <Bond>
0.177

> <Angle>
0.787

> <Pdih>
1.619

> <Idih>
0.000

> <Tether>
0.000

$$$$
VeraChem MOL file


 23 22  0  0  0  0  0  0  0  0999 V2000     
   21.1120   21.5189   20.4363 N   0  3  0  0  0  0  0  0  0  0  0  0
   20.9101   22.4554   20.8011 H   0  0  0  0  0  0  0  0  0  0  0  0
   21.0066   21.5673   19.4171 H   0  0  0  0  0  0  0  0  0  0  0  0
   22.1016   21.3289   20.6247 H   0  0  0  0  0  0  0  0  0  0  0  0
   20.2080   20.4673   21.0466 C   0  0  0  0  0  0  0  0  0  0  0  0
   20.4578   19.5058   20.5908 H   0  0  0  0  0  0  0  0  0  0  0  0
   19.1762   20.7154   20.7836 H   0  0  0  0  0  0  0  0  0  0  0  0
   20.3434   20.3705   22.5781 C   0  0  0  0  0  0  0  0  0  0  0  0
   21.3793   20.1202   22.8428 H   0  0  0  0  0  0  0  0  0  0  0  0
   20.1360   21.3551   23.0180 H   0  0  0  0  0  0  0  0  0  0  0  0
   19.3817   19.3312   23.2014 C   0  0  0  0  0  0  0  0  0  0  0  0
   18.3455   19.5898   22.9431 H   0  0  0  0  0  0  0  0  0  0  0  0
   19.4580   19.4049   24.2939 H   0  0  0  0  0  0  0  0  0  0  0  0
   19.6853   17.8779   22.7560 C   0  0  0  0  0  0  0  0  0  0  0  0
   19.6330   17.8106   21.6613 H   0  0  0  0  0  0  0  0  0  0  0  0
   20.7149   17.6128   23.0331 H   0  0  0  0  0  0  0  0  0  0  0  0
   18.7069   16.8349   23.3489 C   0  0  0  0  0  0  0  0  0  0  0  0
   18.9175   15.8568   22.8941 H   0  0  0  0  0  0  0  0  0  0  0  0
   17.6758   17.0892   23.0659 H   0  0  0  0  0  0  0  0  0  0  0  0
   18.8065   16.6993   24.8854 C   0  0  0  0  0  0  0  0  0  0  0  0
   18.4829   17.6158   25.3938 H   0  0  0  0  0  0  0  0  0  0  0  0
   19.8355   16.4775   25.1966 H   0  0  0  0  0  0  0  0  0  0  0  0
   18.1654   15.8822   25.2409 H   0  0  0  0  0  0  0  0  0  0  0  0
  1  2  1  0  0  0  0
  1  3  1  0  0  0  0
  1  4  1  0  0  0  0
  1  5  1  0  0  0  0
  5  6  1  0  0  0  0
  5  7  1  0  0  0  0
  5  8  1  0  0  0  0
  8  9  1  0  0  0  0
  8 10  1  0  0  0  0
  8 11  1  0  0  0  0
 11 12  1  0  0  0  0
 11 13  1  0  0  0  0
 11 14  1  0  0  0  0
 14 15  1  0  0  0  0
 14 16  1  0  0  0  0
 14 17  1  0  0  0  0
 17 18  1  0  0  0  0
 17 19  1  0  0  0  0
 17 20  1  0  0  0  0
 20 21  1  0  0  0  0
 20 22  1  0  0  0  0
 20 23  1  0  0  0  0
M  END
> <VConfSearch Rank>
803

> <Conf_Id>
92

> <Delta U+W>
0.973

> <U+W>
-7.409

> <U>
48.047

> <W>
-55.456

> <W(PB)>
-57.595

> <W(SA)>
2.138

> <Valence>
2.583

> <Coulomb>
44.791

> <VdW>
0.674

> <VdW6>
-5.789

> <VdW12>
6.462

> <Bond>
0.177

> <Angle>
0.787

> <Pdih>
1.619

> <Idih>
0.000

> <Tether>
0.000

$$$$
VeraChem MOL file


 23 22  0  0  0  0  0  0  0  0999 V2000     
   16.5078   19.9854   21.6133 N   0  3  0  0  0  0  0  0  0  0  0  0
   16.3351   20.3793   20.6822 H   0  0  0  0  0  0  0  0  0  0  0  0
   15.9885   20.5634   22.2820 H   0  0  0  0  0  0  0  0  0  0  0  0
   16.0817   19.0531   21.6261 H   0  0  0  0  0  0  0  0  0  0  0  0
   17.9869   19.9357   21.9382 C   0  0  0  0  0  0  0  0  0  0  0  0
   18.3800   20.9542   21.8786 H   0  0  0  0  0  0  0  0  0  0  0  0
   18.4783   19.3315   21.1713 H   0  0  0  0  0  0  0  0  0  0  0  0
   18.2792   19.3484   23.3319 C   0  0  0  0  0  0  0  0  0  0  0  0
   17.7441   19.9373   24.0887 H   0  0  0  0  0  0  0  0  0  0  0  0
   17.8835   18.3257   23.3921 H   0  0  0  0  0  0  0  0  0  0  0  0
   19.7877   19.3432   23.6744 C   0  0  0  0  0  0  0  0  0  0  0  0
   19.9123   19.0007   24.7111 H   0  0  0  0  0  0  0  0  0  0  0  0
   20.1750   20.3710   23.6385 H   0  0  0  0  0  0  0  0  0  0  0  0
   20.6213   18.4378   22.7359 C   0  0  0  0  0  0  0  0  0  0  0  0
   20.2108   17.4186   22.7490 H   0  0  0  0  0  0  0  0  0  0  0  0
   20.5454   18.7983   21.7013 H   0  0  0  0  0  0  0  0  0  0  0  0
   22.1091   18.3977   23.1500 C   0  0  0  0  0  0  0  0  0  0  0  0
   22.1979   18.0301   24.1820 H   0  0  0  0  0  0  0  0  0  0  0  0
   22.5247   19.4152   23.1393 H   0  0  0  0  0  0  0  0  0  0  0  0
   22.9398   17.4956   22.2126 C   0  0  0  0  0  0  0  0  0  0  0  0
   22.5684   16.4626   22.2276 H   0  0  0  0  0  0  0  0  0  0  0  0
   23.9927   17.4795   22.5227 H   0  0  0  0  0  0  0  0  0  0  0  0
   22.8992   17.8584   21.1772 H   0  0  0  0  0  0  0  0  0  0  0  0
  1  2  1  0  0  0  0
  1  3  1  0  0  0  0
  1  4  1  0  0  0  0
  1  5  1  0  0  0  0
  5  6  1  0  0  0  0
  5  7  1  0  0  0  0
  5  8  1  0  0  0  0
  8  9  1  0  0  0  0
  8 10  1  0  0  0  0
  8 11  1  0  0  0  0
 11 12  1  0  0  0  0
 11 13  1  0  0  0  0
 11 14  1  0  0  0  0
 14 15  1  0  0  0  0
 14 16  1  0  0  0  0
 14 17  1  0  0  0  0
 17 18  1  0  0  0  0
 17 19  1  0  0  0  0
 17 20  1  0  0  0  0
 20 21  1  0  0  0  0
 20 22  1  0  0  0  0
 20 23  1  0  0  0  0
M  END
> <VConfSearch Rank>
804

> <Conf_Id>
42

> <Delta U+W>
0.365

> <U+W>
-8.017

> <U>
47.375

> <W>
-55.392

> <W(PB)>
-57.543

> <W(SA)>
2.152

> <Valence>
2.032

> <Coulomb>
44.843

> <VdW>
0.499

> <VdW6>
-5.218

> <VdW12>
5.717

> <Bond>
0.135

> <Angle>
0.514

> <Pdih>
1.383

> <Idih>
0.000

> <Tether>
0.000

$$$$
VeraChem MOL file


 23 22  0  0  0  0  0  0  0  0999 V2000     
   17.7338   17.7503   20.5052 N   0  3  0  0  0  0  0  0  0  0  0  0
   16.9185   18.2011   20.9326 H   0  0  0  0  0  0  0  0  0  0  0  0
   17.3782   17.0067   19.8948 H   0  0  0  0  0  0  0  0  0  0  0  0
   18.1816   18.4452   19.9001 H   0  0  0  0  0  0  0  0  0  0  0  0
   18.6918   17.2108   21.5495 C   0  0  0  0  0  0  0  0  0  0  0  0
   19.5222   16.7244   21.0306 H   0  0  0  0  0  0  0  0  0  0  0  0
   18.1579   16.4499   22.1252 H   0  0  0  0  0  0  0  0  0  0  0  0
   19.2379   18.2858   22.5095 C   0  0  0  0  0  0  0  0  0  0  0  0
   18.4011   18.7917   23.0089 H   0  0  0  0  0  0  0  0  0  0  0  0
   19.8156   17.7756   23.2899 H   0  0  0  0  0  0  0  0  0  0  0  0
   20.1398   19.3226   21.7964 C   0  0  0  0  0  0  0  0  0  0  0  0
   19.5953   19.7588   20.9488 H   0  0  0  0  0  0  0  0  0  0  0  0
   21.0131   18.8114   21.3680 H   0  0  0  0  0  0  0  0  0  0  0  0
   20.6184   20.4853   22.7042 C   0  0  0  0  0  0  0  0  0  0  0  0
   21.2071   21.1710   22.0791 H   0  0  0  0  0  0  0  0  0  0  0  0
   19.7568   21.0710   23.0533 H   0  0  0  0  0  0  0  0  0  0  0  0
   21.4975   20.0553   23.9070 C   0  0  0  0  0  0  0  0  0  0  0  0
   22.2636   20.8255   24.0737 H   0  0  0  0  0  0  0  0  0  0  0  0
   22.0446   19.1322   23.6701 H   0  0  0  0  0  0  0  0  0  0  0  0
   20.6993   19.8859   25.2210 C   0  0  0  0  0  0  0  0  0  0  0  0
   20.2101   20.8265   25.5057 H   0  0  0  0  0  0  0  0  0  0  0  0
   21.3683   19.5974   26.0420 H   0  0  0  0  0  0  0  0  0  0  0  0
   19.9249   19.1156   25.1376 H   0  0  0  0  0  0  0  0  0  0  0  0
  1  2  1  0  0  0  0
  1  3  1  0  0  0  0
  1  4  1  0  0  0  0
  1  5  1  0  0  0  0
  5  6  1  0  0  0  0
  5  7  1  0  0  0  0
  5  8  1  0  0  0  0
  8  9  1  0  0  0  0
  8 10  1  0  0  0  0
  8 11  1  0  0  0  0
 11 12  1  0  0  0  0
 11 13  1  0  0  0  0
 11 14  1  0  0  0  0
 14 15  1  0  0  0  0
 14 16  1  0  0  0  0
 14 17  1  0  0  0  0
 17 18  1  0  0  0  0
 17 19  1  0  0  0  0
 17 20  1  0  0  0  0
 20 21  1  0  0  0  0
 20 22  1  0  0  0  0
 20 23  1  0  0  0  0
M  END
> <VConfSearch Rank>
805

> <Conf_Id>
3

> <Delta U+W>
3.283

> <U+W>
-5.099

> <U>
50.701

> <W>
-55.800

> <W(PB)>
-57.867

> <W(SA)>
2.067

> <Valence>
4.880

> <Coulomb>
45.095

> <VdW>
0.726

> <VdW6>
-6.620

> <VdW12>
7.346

> <Bond>
0.222

> <Angle>
1.260

> <Pdih>
3.398

> <Idih>
0.000

> <Tether>
0.000

$$$$
VeraChem MOL file


 23 22  0  0  0  0  0  0  0  0999 V2000     
   22.4631   18.0326   23.1163 N   0  3  0  0  0  0  0  0  0  0  0  0
   23.1960   18.7473   23.0666 H   0  0  0  0  0  0  0  0  0  0  0  0
   22.9185   17.1554   23.3900 H   0  0  0  0  0  0  0  0  0  0  0  0
   21.8338   18.2961   23.8806 H   0  0  0  0  0  0  0  0  0  0  0  0
   21.7202   17.8955   21.8019 C   0  0  0  0  0  0  0  0  0  0  0  0
   20.9782   17.1008   21.9129 H   0  0  0  0  0  0  0  0  0  0  0  0
   22.4419   17.5807   21.0433 H   0  0  0  0  0  0  0  0  0  0  0  0
   21.0294   19.1956   21.3416 C   0  0  0  0  0  0  0  0  0  0  0  0
   21.7922   19.9697   21.1846 H   0  0  0  0  0  0  0  0  0  0  0  0
   20.5660   19.0203   20.3616 H   0  0  0  0  0  0  0  0  0  0  0  0
   19.9566   19.7275   22.3255 C   0  0  0  0  0  0  0  0  0  0  0  0
   19.5630   20.6694   21.9221 H   0  0  0  0  0  0  0  0  0  0  0  0
   20.4229   19.9782   23.2875 H   0  0  0  0  0  0  0  0  0  0  0  0
   18.7896   18.7329   22.5515 C   0  0  0  0  0  0  0  0  0  0  0  0
   18.3065   18.5045   21.5915 H   0  0  0  0  0  0  0  0  0  0  0  0
   19.1850   17.7820   22.9321 H   0  0  0  0  0  0  0  0  0  0  0  0
   17.7277   19.2467   23.5539 C   0  0  0  0  0  0  0  0  0  0  0  0
   18.2034   19.4666   24.5199 H   0  0  0  0  0  0  0  0  0  0  0  0
   17.0049   18.4410   23.7443 H   0  0  0  0  0  0  0  0  0  0  0  0
   16.9611   20.4932   23.0558 C   0  0  0  0  0  0  0  0  0  0  0  0
   16.5037   20.3097   22.0750 H   0  0  0  0  0  0  0  0  0  0  0  0
   17.6204   21.3657   22.9706 H   0  0  0  0  0  0  0  0  0  0  0  0
   16.1579   20.7551   23.7566 H   0  0  0  0  0  0  0  0  0  0  0  0
  1  2  1  0  0  0  0
  1  3  1  0  0  0  0
  1  4  1  0  0  0  0
  1  5  1  0  0  0  0
  5  6  1  0  0  0  0
  5  7  1  0  0  0  0
  5  8  1  0  0  0  0
  8  9  1  0  0  0  0
  8 10  1  0  0  0  0
  8 11  1  0  0  0  0
 11 12  1  0  0  0  0
 11 13  1  0  0  0  0
 11 14  1  0  0  0  0
 14 15  1  0  0  0  0
 14 16  1  0  0  0  0
 14 17  1  0  0  0  0
 17 18  1  0  0  0  0
 17 19  1  0  0  0  0
 17 20  1  0  0  0  0
 20 21  1  0  0  0  0
 20 22  1  0  0  0  0
 20 23  1  0  0  0  0
M  END
> <VConfSearch Rank>
806

> <Conf_Id>
83

> <Delta U+W>
1.229

> <U+W>
-7.154

> <U>
48.727

> <W>
-55.880

> <W(PB)>
-57.960

> <W(SA)>
2.080

> <Valence>
2.671

> <Coulomb>
45.371

> <VdW>
0.684

> <VdW6>
-6.511

> <VdW12>
7.195

> <Bond>
0.203

> <Angle>
0.915

> <Pdih>
1.554

> <Idih>
0.000

> <Tether>
0.000

$$$$
VeraChem MOL file


 23 22  0  0  0  0  0  0  0  0999 V2000     
   22.3458   18.5612   21.4321 N   0  3  0  0  0  0  0  0  0  0  0  0
   22.8274   17.7490   21.8309 H   0  0  0  0  0  0  0  0  0  0  0  0
   22.2107   19.2364   22.1906 H   0  0  0  0  0  0  0  0  0  0  0  0
   22.9895   18.9897   20.7584 H   0  0  0  0  0  0  0  0  0  0  0  0
   21.0298   18.1744   20.7864 C   0  0  0  0  0  0  0  0  0  0  0  0
   21.2511   17.4832   19.9686 H   0  0  0  0  0  0  0  0  0  0  0  0
   20.5852   19.0755   20.3564 H   0  0  0  0  0  0  0  0  0  0  0  0
   20.0327   17.5121   21.7593 C   0  0  0  0  0  0  0  0  0  0  0  0
   19.1360   17.2174   21.1982 H   0  0  0  0  0  0  0  0  0  0  0  0
   20.4720   16.5819   22.1434 H   0  0  0  0  0  0  0  0  0  0  0  0
   19.6165   18.4108   22.9513 C   0  0  0  0  0  0  0  0  0  0  0  0
   20.4957   18.6501   23.5642 H   0  0  0  0  0  0  0  0  0  0  0  0
   18.9439   17.8302   23.5958 H   0  0  0  0  0  0  0  0  0  0  0  0
   18.9113   19.7192   22.5118 C   0  0  0  0  0  0  0  0  0  0  0  0
   19.5741   20.2891   21.8476 H   0  0  0  0  0  0  0  0  0  0  0  0
   18.0164   19.4774   21.9221 H   0  0  0  0  0  0  0  0  0  0  0  0
   18.5168   20.6342   23.6966 C   0  0  0  0  0  0  0  0  0  0  0  0
   18.1333   21.5829   23.2956 H   0  0  0  0  0  0  0  0  0  0  0  0
   19.4101   20.8883   24.2841 H   0  0  0  0  0  0  0  0  0  0  0  0
   17.4435   20.0170   24.6221 C   0  0  0  0  0  0  0  0  0  0  0  0
   16.5522   19.7236   24.0525 H   0  0  0  0  0  0  0  0  0  0  0  0
   17.1307   20.7426   25.3840 H   0  0  0  0  0  0  0  0  0  0  0  0
   17.8233   19.1321   25.1473 H   0  0  0  0  0  0  0  0  0  0  0  0
  1  2  1  0  0  0  0
  1  3  1  0  0  0  0
  1  4  1  0  0  0  0
  1  5  1  0  0  0  0
  5  6  1  0  0  0  0
  5  7  1  0  0  0  0
  5  8  1  0  0  0  0
  8  9  1  0  0  0  0
  8 10  1  0  0  0  0
  8 11  1  0  0  0  0
 11 12  1  0  0  0  0
 11 13  1  0  0  0  0
 11 14  1  0  0  0  0
 14 15  1  0  0  0  0
 14 16  1  0  0  0  0
 14 17  1  0  0  0  0
 17 18  1  0  0  0  0
 17 19  1  0  0  0  0
 17 20  1  0  0  0  0
 20 21  1  0  0  0  0
 20 22  1  0  0  0  0
 20 23  1  0  0  0  0
M  END
> <VConfSearch Rank>
807

> <Conf_Id>
50

> <Delta U+W>
1.252

> <U+W>
-7.130

> <U>
48.727

> <W>
-55.857

> <W(PB)>
-57.937

> <W(SA)>
2.080

> <Valence>
2.671

> <Coulomb>
45.371

> <VdW>
0.684

> <VdW6>
-6.511

> <VdW12>
7.196

> <Bond>
0.203

> <Angle>
0.915

> <Pdih>
1.554

> <Idih>
0.000

> <Tether>
0.000

$$$$
VeraChem MOL file


 23 22  0  0  0  0  0  0  0  0999 V2000     
   17.8820   19.4013   20.1139 N   0  3  0  0  0  0  0  0  0  0  0  0
   18.3693   18.5252   19.9027 H   0  0  0  0  0  0  0  0  0  0  0  0
   17.7203   19.8771   19.2198 H   0  0  0  0  0  0  0  0  0  0  0  0
   16.9618   19.1531   20.4910 H   0  0  0  0  0  0  0  0  0  0  0  0
   18.6715   20.2664   21.0770 C   0  0  0  0  0  0  0  0  0  0  0  0
   18.1130   21.1952   21.2220 H   0  0  0  0  0  0  0  0  0  0  0  0
   19.6268   20.5135   20.6063 H   0  0  0  0  0  0  0  0  0  0  0  0
   18.9240   19.6037   22.4452 C   0  0  0  0  0  0  0  0  0  0  0  0
   19.3995   20.3418   23.1008 H   0  0  0  0  0  0  0  0  0  0  0  0
   17.9621   19.3528   22.9115 H   0  0  0  0  0  0  0  0  0  0  0  0
   19.8053   18.3329   22.3396 C   0  0  0  0  0  0  0  0  0  0  0  0
   20.7305   18.5536   21.7894 H   0  0  0  0  0  0  0  0  0  0  0  0
   19.2674   17.5841   21.7431 H   0  0  0  0  0  0  0  0  0  0  0  0
   20.1433   17.7025   23.7160 C   0  0  0  0  0  0  0  0  0  0  0  0
   19.3405   17.9080   24.4375 H   0  0  0  0  0  0  0  0  0  0  0  0
   20.1611   16.6103   23.5971 H   0  0  0  0  0  0  0  0  0  0  0  0
   21.5122   18.1288   24.3056 C   0  0  0  0  0  0  0  0  0  0  0  0
   22.3178   17.8269   23.6218 H   0  0  0  0  0  0  0  0  0  0  0  0
   21.6795   17.5703   25.2372 H   0  0  0  0  0  0  0  0  0  0  0  0
   21.6342   19.6389   24.6054 C   0  0  0  0  0  0  0  0  0  0  0  0
   20.8085   19.9848   25.2406 H   0  0  0  0  0  0  0  0  0  0  0  0
   21.6367   20.2298   23.6813 H   0  0  0  0  0  0  0  0  0  0  0  0
   22.5739   19.8505   25.1318 H   0  0  0  0  0  0  0  0  0  0  0  0
  1  2  1  0  0  0  0
  1  3  1  0  0  0  0
  1  4  1  0  0  0  0
  1  5  1  0  0  0  0
  5  6  1  0  0  0  0
  5  7  1  0  0  0  0
  5  8  1  0  0  0  0
  8  9  1  0  0  0  0
  8 10  1  0  0  0  0
  8 11  1  0  0  0  0
 11 12  1  0  0  0  0
 11 13  1  0  0  0  0
 11 14  1  0  0  0  0
 14 15  1  0  0  0  0
 14 16  1  0  0  0  0
 14 17  1  0  0  0  0
 17 18  1  0  0  0  0
 17 19  1  0  0  0  0
 17 20  1  0  0  0  0
 20 21  1  0  0  0  0
 20 22  1  0  0  0  0
 20 23  1  0  0  0  0
M  END
> <VConfSearch Rank>
808

> <Conf_Id>
55

> <Delta U+W>
3.232

> <U+W>
-5.150

> <U>
50.625

> <W>
-55.776

> <W(PB)>
-57.839

> <W(SA)>
2.064

> <Valence>
4.837

> <Coulomb>
45.097

> <VdW>
0.692

> <VdW6>
-6.655

> <VdW12>
7.347

> <Bond>
0.223

> <Angle>
1.167

> <Pdih>
3.447

> <Idih>
0.000

> <Tether>
0.000

$$$$
VeraChem MOL file


 23 22  0  0  0  0  0  0  0  0999 V2000     
   17.1459   18.5619   24.1290 N   0  3  0  0  0  0  0  0  0  0  0  0
   16.8906   19.1026   24.9616 H   0  0  0  0  0  0  0  0  0  0  0  0
   16.7764   17.6147   24.2643 H   0  0  0  0  0  0  0  0  0  0  0  0
   16.6380   18.9698   23.3375 H   0  0  0  0  0  0  0  0  0  0  0  0
   18.6432   18.5546   23.8972 C   0  0  0  0  0  0  0  0  0  0  0  0
   18.8419   17.9342   23.0215 H   0  0  0  0  0  0  0  0  0  0  0  0
   19.1149   18.0825   24.7632 H   0  0  0  0  0  0  0  0  0  0  0  0
   19.2287   19.9664   23.6972 C   0  0  0  0  0  0  0  0  0  0  0  0
   18.7313   20.4712   22.8585 H   0  0  0  0  0  0  0  0  0  0  0  0
   19.0024   20.5587   24.5938 H   0  0  0  0  0  0  0  0  0  0  0  0
   20.7635   19.9636   23.4831 C   0  0  0  0  0  0  0  0  0  0  0  0
   21.2306   19.1969   24.1168 H   0  0  0  0  0  0  0  0  0  0  0  0
   21.1597   20.9247   23.8393 H   0  0  0  0  0  0  0  0  0  0  0  0
   21.2185   19.7880   22.0108 C   0  0  0  0  0  0  0  0  0  0  0  0
   20.8307   20.6195   21.4063 H   0  0  0  0  0  0  0  0  0  0  0  0
   22.3135   19.8740   21.9793 H   0  0  0  0  0  0  0  0  0  0  0  0
   20.8031   18.4466   21.3638 C   0  0  0  0  0  0  0  0  0  0  0  0
   19.7126   18.4113   21.2438 H   0  0  0  0  0  0  0  0  0  0  0  0
   21.0867   17.6115   22.0195 H   0  0  0  0  0  0  0  0  0  0  0  0
   21.4581   18.2555   19.9792 C   0  0  0  0  0  0  0  0  0  0  0  0
   22.5530   18.2450   20.0577 H   0  0  0  0  0  0  0  0  0  0  0  0
   21.1721   19.0631   19.2927 H   0  0  0  0  0  0  0  0  0  0  0  0
   21.1441   17.3044   19.5299 H   0  0  0  0  0  0  0  0  0  0  0  0
  1  2  1  0  0  0  0
  1  3  1  0  0  0  0
  1  4  1  0  0  0  0
  1  5  1  0  0  0  0
  5  6  1  0  0  0  0
  5  7  1  0  0  0  0
  5  8  1  0  0  0  0
  8  9  1  0  0  0  0
  8 10  1  0  0  0  0
  8 11  1  0  0  0  0
 11 12  1  0  0  0  0
 11 13  1  0  0  0  0
 11 14  1  0  0  0  0
 14 15  1  0  0  0  0
 14 16  1  0  0  0  0
 14 17  1  0  0  0  0
 17 18  1  0  0  0  0
 17 19  1  0  0  0  0
 17 20  1  0  0  0  0
 20 21  1  0  0  0  0
 20 22  1  0  0  0  0
 20 23  1  0  0  0  0
M  END
> <VConfSearch Rank>
809

> <Conf_Id>
93

> <Delta U+W>
2.589

> <U+W>
-5.793

> <U>
50.122

> <W>
-55.915

> <W(PB)>
-58.031

> <W(SA)>
2.115

> <Valence>
4.132

> <Coulomb>
45.536

> <VdW>
0.454

> <VdW6>
-6.262

> <VdW12>
6.715

> <Bond>
0.182

> <Angle>
1.157

> <Pdih>
2.794

> <Idih>
0.000

> <Tether>
0.000

$$$$
VeraChem MOL file


 23 22  0  0  0  0  0  0  0  0999 V2000     
   19.5099   17.7041   25.4600 N   0  3  0  0  0  0  0  0  0  0  0  0
   19.7176   16.7834   25.0602 H   0  0  0  0  0  0  0  0  0  0  0  0
   18.6045   17.6255   25.9355 H   0  0  0  0  0  0  0  0  0  0  0  0
   20.2121   17.8831   26.1851 H   0  0  0  0  0  0  0  0  0  0  0  0
   19.4990   18.7902   24.4037 C   0  0  0  0  0  0  0  0  0  0  0  0
   19.2438   19.7334   24.8943 H   0  0  0  0  0  0  0  0  0  0  0  0
   18.7078   18.5533   23.6901 H   0  0  0  0  0  0  0  0  0  0  0  0
   20.8500   18.9367   23.6763 C   0  0  0  0  0  0  0  0  0  0  0  0
   21.6175   19.1673   24.4271 H   0  0  0  0  0  0  0  0  0  0  0  0
   21.1422   17.9830   23.2171 H   0  0  0  0  0  0  0  0  0  0  0  0
   20.8485   20.0626   22.6114 C   0  0  0  0  0  0  0  0  0  0  0  0
   21.8764   20.4377   22.5098 H   0  0  0  0  0  0  0  0  0  0  0  0
   20.2549   20.9162   22.9670 H   0  0  0  0  0  0  0  0  0  0  0  0
   20.3681   19.6294   21.2018 C   0  0  0  0  0  0  0  0  0  0  0  0
   20.4794   20.4875   20.5245 H   0  0  0  0  0  0  0  0  0  0  0  0
   21.0339   18.8467   20.8128 H   0  0  0  0  0  0  0  0  0  0  0  0
   18.9049   19.1331   21.1442 C   0  0  0  0  0  0  0  0  0  0  0  0
   18.2437   19.8605   21.6354 H   0  0  0  0  0  0  0  0  0  0  0  0
   18.8099   18.1854   21.6900 H   0  0  0  0  0  0  0  0  0  0  0  0
   18.4349   18.9141   19.6903 C   0  0  0  0  0  0  0  0  0  0  0  0
   17.3990   18.5517   19.6683 H   0  0  0  0  0  0  0  0  0  0  0  0
   19.0625   18.1716   19.1804 H   0  0  0  0  0  0  0  0  0  0  0  0
   18.4763   19.8490   19.1163 H   0  0  0  0  0  0  0  0  0  0  0  0
  1  2  1  0  0  0  0
  1  3  1  0  0  0  0
  1  4  1  0  0  0  0
  1  5  1  0  0  0  0
  5  6  1  0  0  0  0
  5  7  1  0  0  0  0
  5  8  1  0  0  0  0
  8  9  1  0  0  0  0
  8 10  1  0  0  0  0
  8 11  1  0  0  0  0
 11 12  1  0  0  0  0
 11 13  1  0  0  0  0
 11 14  1  0  0  0  0
 14 15  1  0  0  0  0
 14 16  1  0  0  0  0
 14 17  1  0  0  0  0
 17 18  1  0  0  0  0
 17 19  1  0  0  0  0
 17 20  1  0  0  0  0
 20 21  1  0  0  0  0
 20 22  1  0  0  0  0
 20 23  1  0  0  0  0
M  END
> <VConfSearch Rank>
810

> <Conf_Id>
70

> <Delta U+W>
2.599

> <U+W>
-5.783

> <U>
50.122

> <W>
-55.906

> <W(PB)>
-58.010

> <W(SA)>
2.105

> <Valence>
4.132

> <Coulomb>
45.536

> <VdW>
0.454

> <VdW6>
-6.262

> <VdW12>
6.715

> <Bond>
0.182

> <Angle>
1.157

> <Pdih>
2.794

> <Idih>
0.000

> <Tether>
0.000

$$$$
VeraChem MOL file


 23 22  0  0  0  0  0  0  0  0999 V2000     
   20.0143   21.4644   23.9635 N   0  3  0  0  0  0  0  0  0  0  0  0
   19.2135   22.0287   24.2648 H   0  0  0  0  0  0  0  0  0  0  0  0
   20.8491   22.0514   24.0648 H   0  0  0  0  0  0  0  0  0  0  0  0
   20.1072   20.6910   24.6289 H   0  0  0  0  0  0  0  0  0  0  0  0
   19.8466   20.9629   22.5428 C   0  0  0  0  0  0  0  0  0  0  0  0
   20.7442   20.4002   22.2730 H   0  0  0  0  0  0  0  0  0  0  0  0
   19.7828   21.8354   21.8869 H   0  0  0  0  0  0  0  0  0  0  0  0
   18.5989   20.0792   22.3427 C   0  0  0  0  0  0  0  0  0  0  0  0
   17.7019   20.6649   22.5832 H   0  0  0  0  0  0  0  0  0  0  0  0
   18.5125   19.8240   21.2788 H   0  0  0  0  0  0  0  0  0  0  0  0
   18.6030   18.7811   23.1924 C   0  0  0  0  0  0  0  0  0  0  0  0
   17.7012   18.2000   22.9552 H   0  0  0  0  0  0  0  0  0  0  0  0
   18.5150   19.0439   24.2552 H   0  0  0  0  0  0  0  0  0  0  0  0
   19.8503   17.8796   23.0016 C   0  0  0  0  0  0  0  0  0  0  0  0
   20.7542   18.4134   23.3240 H   0  0  0  0  0  0  0  0  0  0  0  0
   19.7564   17.0128   23.6703 H   0  0  0  0  0  0  0  0  0  0  0  0
   20.0328   17.3763   21.5503 C   0  0  0  0  0  0  0  0  0  0  0  0
   20.1996   18.2247   20.8732 H   0  0  0  0  0  0  0  0  0  0  0  0
   19.1146   16.8751   21.2132 H   0  0  0  0  0  0  0  0  0  0  0  0
   21.2222   16.3998   21.4318 C   0  0  0  0  0  0  0  0  0  0  0  0
   21.3388   16.0548   20.3962 H   0  0  0  0  0  0  0  0  0  0  0  0
   21.0728   15.5162   22.0660 H   0  0  0  0  0  0  0  0  0  0  0  0
   22.1607   16.8827   21.7337 H   0  0  0  0  0  0  0  0  0  0  0  0
  1  2  1  0  0  0  0
  1  3  1  0  0  0  0
  1  4  1  0  0  0  0
  1  5  1  0  0  0  0
  5  6  1  0  0  0  0
  5  7  1  0  0  0  0
  5  8  1  0  0  0  0
  8  9  1  0  0  0  0
  8 10  1  0  0  0  0
  8 11  1  0  0  0  0
 11 12  1  0  0  0  0
 11 13  1  0  0  0  0
 11 14  1  0  0  0  0
 14 15  1  0  0  0  0
 14 16  1  0  0  0  0
 14 17  1  0  0  0  0
 17 18  1  0  0  0  0
 17 19  1  0  0  0  0
 17 20  1  0  0  0  0
 20 21  1  0  0  0  0
 20 22  1  0  0  0  0
 20 23  1  0  0  0  0
M  END
> <VConfSearch Rank>
811

> <Conf_Id>
72

> <Delta U+W>
1.051

> <U+W>
-7.331

> <U>
48.590

> <W>
-55.922

> <W(PB)>
-58.012

> <W(SA)>
2.090

> <Valence>
2.601

> <Coulomb>
45.520

> <VdW>
0.469

> <VdW6>
-6.867

> <VdW12>
7.336

> <Bond>
0.205

> <Angle>
0.962

> <Pdih>
1.434

> <Idih>
0.000

> <Tether>
0.000

$$$$
VeraChem MOL file


 23 22  0  0  0  0  0  0  0  0999 V2000     
   19.9877   22.0609   22.1873 N   0  3  0  0  0  0  0  0  0  0  0  0
   19.5658   22.6618   21.4712 H   0  0  0  0  0  0  0  0  0  0  0  0
   20.9053   22.4607   22.4084 H   0  0  0  0  0  0  0  0  0  0  0  0
   19.4095   22.1492   23.0291 H   0  0  0  0  0  0  0  0  0  0  0  0
   20.0952   20.6226   21.7231 C   0  0  0  0  0  0  0  0  0  0  0  0
   20.6977   20.6059   20.8109 H   0  0  0  0  0  0  0  0  0  0  0  0
   19.0890   20.2728   21.4775 H   0  0  0  0  0  0  0  0  0  0  0  0
   20.7252   19.6931   22.7770 C   0  0  0  0  0  0  0  0  0  0  0  0
   21.7198   20.0745   23.0438 H   0  0  0  0  0  0  0  0  0  0  0  0
   20.1284   19.7190   23.6977 H   0  0  0  0  0  0  0  0  0  0  0  0
   20.8668   18.2335   22.2784 C   0  0  0  0  0  0  0  0  0  0  0  0
   21.3407   17.6301   23.0641 H   0  0  0  0  0  0  0  0  0  0  0  0
   21.5645   18.2147   21.4298 H   0  0  0  0  0  0  0  0  0  0  0  0
   19.5368   17.5628   21.8403 C   0  0  0  0  0  0  0  0  0  0  0  0
   19.1488   18.0709   20.9472 H   0  0  0  0  0  0  0  0  0  0  0  0
   19.7515   16.5329   21.5233 H   0  0  0  0  0  0  0  0  0  0  0  0
   18.4266   17.5316   22.9213 C   0  0  0  0  0  0  0  0  0  0  0  0
   17.5363   17.0486   22.4950 H   0  0  0  0  0  0  0  0  0  0  0  0
   18.1191   18.5537   23.1797 H   0  0  0  0  0  0  0  0  0  0  0  0
   18.8394   16.7714   24.2020 C   0  0  0  0  0  0  0  0  0  0  0  0
   19.1633   15.7492   23.9668 H   0  0  0  0  0  0  0  0  0  0  0  0
   17.9939   16.7038   24.8987 H   0  0  0  0  0  0  0  0  0  0  0  0
   19.6589   17.2797   24.7251 H   0  0  0  0  0  0  0  0  0  0  0  0
  1  2  1  0  0  0  0
  1  3  1  0  0  0  0
  1  4  1  0  0  0  0
  1  5  1  0  0  0  0
  5  6  1  0  0  0  0
  5  7  1  0  0  0  0
  5  8  1  0  0  0  0
  8  9  1  0  0  0  0
  8 10  1  0  0  0  0
  8 11  1  0  0  0  0
 11 12  1  0  0  0  0
 11 13  1  0  0  0  0
 11 14  1  0  0  0  0
 14 15  1  0  0  0  0
 14 16  1  0  0  0  0
 14 17  1  0  0  0  0
 17 18  1  0  0  0  0
 17 19  1  0  0  0  0
 17 20  1  0  0  0  0
 20 21  1  0  0  0  0
 20 22  1  0  0  0  0
 20 23  1  0  0  0  0
M  END
> <VConfSearch Rank>
812

> <Conf_Id>
26

> <Delta U+W>
1.076

> <U+W>
-7.306

> <U>
48.641

> <W>
-55.947

> <W(PB)>
-58.031

> <W(SA)>
2.084

> <Valence>
2.922

> <Coulomb>
45.269

> <VdW>
0.449

> <VdW6>
-7.045

> <VdW12>
7.494

> <Bond>
0.220

> <Angle>
1.205

> <Pdih>
1.497

> <Idih>
0.000

> <Tether>
0.000

$$$$
VeraChem MOL file


 23 22  0  0  0  0  0  0  0  0999 V2000     
   22.7440   19.0795   21.5056 N   0  3  0  0  0  0  0  0  0  0  0  0
   22.9119   19.7817   20.7780 H   0  0  0  0  0  0  0  0  0  0  0  0
   23.4100   18.3167   21.3426 H   0  0  0  0  0  0  0  0  0  0  0  0
   22.9953   19.5081   22.4022 H   0  0  0  0  0  0  0  0  0  0  0  0
   21.3111   18.5872   21.4957 C   0  0  0  0  0  0  0  0  0  0  0  0
   21.2128   17.8239   22.2720 H   0  0  0  0  0  0  0  0  0  0  0  0
   21.1213   18.1188   20.5263 H   0  0  0  0  0  0  0  0  0  0  0  0
   20.2850   19.7097   21.7383 C   0  0  0  0  0  0  0  0  0  0  0  0
   20.4827   20.1893   22.7055 H   0  0  0  0  0  0  0  0  0  0  0  0
   20.4174   20.4884   20.9756 H   0  0  0  0  0  0  0  0  0  0  0  0
   18.8221   19.2035   21.6873 C   0  0  0  0  0  0  0  0  0  0  0  0
   18.6085   18.8379   20.6734 H   0  0  0  0  0  0  0  0  0  0  0  0
   18.1429   20.0519   21.8447 H   0  0  0  0  0  0  0  0  0  0  0  0
   18.4872   18.0757   22.7006 C   0  0  0  0  0  0  0  0  0  0  0  0
   17.4278   17.8071   22.5885 H   0  0  0  0  0  0  0  0  0  0  0  0
   19.0501   17.1700   22.4376 H   0  0  0  0  0  0  0  0  0  0  0  0
   18.7603   18.4218   24.1865 C   0  0  0  0  0  0  0  0  0  0  0  0
   19.8336   18.5919   24.3458 H   0  0  0  0  0  0  0  0  0  0  0  0
   18.4995   17.5501   24.8027 H   0  0  0  0  0  0  0  0  0  0  0  0
   17.9581   19.6436   24.6886 C   0  0  0  0  0  0  0  0  0  0  0  0
   18.2638   20.5640   24.1758 H   0  0  0  0  0  0  0  0  0  0  0  0
   18.1201   19.7947   25.7637 H   0  0  0  0  0  0  0  0  0  0  0  0
   16.8816   19.5016   24.5278 H   0  0  0  0  0  0  0  0  0  0  0  0
  1  2  1  0  0  0  0
  1  3  1  0  0  0  0
  1  4  1  0  0  0  0
  1  5  1  0  0  0  0
  5  6  1  0  0  0  0
  5  7  1  0  0  0  0
  5  8  1  0  0  0  0
  8  9  1  0  0  0  0
  8 10  1  0  0  0  0
  8 11  1  0  0  0  0
 11 12  1  0  0  0  0
 11 13  1  0  0  0  0
 11 14  1  0  0  0  0
 14 15  1  0  0  0  0
 14 16  1  0  0  0  0
 14 17  1  0  0  0  0
 17 18  1  0  0  0  0
 17 19  1  0  0  0  0
 17 20  1  0  0  0  0
 20 21  1  0  0  0  0
 20 22  1  0  0  0  0
 20 23  1  0  0  0  0
M  END
> <VConfSearch Rank>
813

> <Conf_Id>
90

> <Delta U+W>
1.131

> <U+W>
-7.251

> <U>
48.641

> <W>
-55.892

> <W(PB)>
-57.962

> <W(SA)>
2.070

> <Valence>
2.922

> <Coulomb>
45.269

> <VdW>
0.450

> <VdW6>
-7.045

> <VdW12>
7.495

> <Bond>
0.220

> <Angle>
1.205

> <Pdih>
1.497

> <Idih>
0.000

> <Tether>
0.000

$$$$
VeraChem MOL file


 23 22  0  0  0  0  0  0  0  0999 V2000     
   19.2174   20.8073   20.8061 N   0  3  0  0  0  0  0  0  0  0  0  0
   19.1071   20.8538   19.7875 H   0  0  0  0  0  0  0  0  0  0  0  0
   20.1433   20.4098   20.9911 H   0  0  0  0  0  0  0  0  0  0  0  0
   19.2270   21.7727   21.1503 H   0  0  0  0  0  0  0  0  0  0  0  0
   18.1181   19.9894   21.4550 C   0  0  0  0  0  0  0  0  0  0  0  0
   18.1432   18.9853   21.0236 H   0  0  0  0  0  0  0  0  0  0  0  0
   17.1615   20.4479   21.1904 H   0  0  0  0  0  0  0  0  0  0  0  0
   18.2358   19.9005   22.9903 C   0  0  0  0  0  0  0  0  0  0  0  0
   18.1619   20.9101   23.4157 H   0  0  0  0  0  0  0  0  0  0  0  0
   17.3735   19.3417   23.3777 H   0  0  0  0  0  0  0  0  0  0  0  0
   19.5427   19.2305   23.4840 C   0  0  0  0  0  0  0  0  0  0  0  0
   19.5410   19.2277   24.5827 H   0  0  0  0  0  0  0  0  0  0  0  0
   20.4035   19.8400   23.1811 H   0  0  0  0  0  0  0  0  0  0  0  0
   19.7102   17.7773   22.9726 C   0  0  0  0  0  0  0  0  0  0  0  0
   18.8021   17.2067   23.2112 H   0  0  0  0  0  0  0  0  0  0  0  0
   19.8026   17.7688   21.8784 H   0  0  0  0  0  0  0  0  0  0  0  0
   20.9266   17.0461   23.5899 C   0  0  0  0  0  0  0  0  0  0  0  0
   20.9120   15.9976   23.2610 H   0  0  0  0  0  0  0  0  0  0  0  0
   20.8324   17.0257   24.6847 H   0  0  0  0  0  0  0  0  0  0  0  0
   22.2835   17.6728   23.1962 C   0  0  0  0  0  0  0  0  0  0  0  0
   22.3912   17.7289   22.1052 H   0  0  0  0  0  0  0  0  0  0  0  0
   23.1129   17.0674   23.5841 H   0  0  0  0  0  0  0  0  0  0  0  0
   22.3948   18.6843   23.6059 H   0  0  0  0  0  0  0  0  0  0  0  0
  1  2  1  0  0  0  0
  1  3  1  0  0  0  0
  1  4  1  0  0  0  0
  1  5  1  0  0  0  0
  5  6  1  0  0  0  0
  5  7  1  0  0  0  0
  5  8  1  0  0  0  0
  8  9  1  0  0  0  0
  8 10  1  0  0  0  0
  8 11  1  0  0  0  0
 11 12  1  0  0  0  0
 11 13  1  0  0  0  0
 11 14  1  0  0  0  0
 14 15  1  0  0  0  0
 14 16  1  0  0  0  0
 14 17  1  0  0  0  0
 17 18  1  0  0  0  0
 17 19  1  0  0  0  0
 17 20  1  0  0  0  0
 20 21  1  0  0  0  0
 20 22  1  0  0  0  0
 20 23  1  0  0  0  0
M  END
> <VConfSearch Rank>
814

> <Conf_Id>
85

> <Delta U+W>
1.193

> <U+W>
-7.189

> <U>
48.775

> <W>
-55.965

> <W(PB)>
-58.038

> <W(SA)>
2.073

> <Valence>
2.602

> <Coulomb>
45.581

> <VdW>
0.592

> <VdW6>
-6.616

> <VdW12>
7.208

> <Bond>
0.196

> <Angle>
0.832

> <Pdih>
1.574

> <Idih>
0.000

> <Tether>
0.000

$$$$
VeraChem MOL file


 23 22  0  0  0  0  0  0  0  0999 V2000     
   18.8597   19.1326   20.6838 N   0  3  0  0  0  0  0  0  0  0  0  0
   18.5216   19.1206   21.6514 H   0  0  0  0  0  0  0  0  0  0  0  0
   18.2465   18.5190   20.1363 H   0  0  0  0  0  0  0  0  0  0  0  0
   18.7275   20.0839   20.3252 H   0  0  0  0  0  0  0  0  0  0  0  0
   20.3103   18.6984   20.6007 C   0  0  0  0  0  0  0  0  0  0  0  0
   20.5956   18.7386   19.5459 H   0  0  0  0  0  0  0  0  0  0  0  0
   20.3846   17.6595   20.9328 H   0  0  0  0  0  0  0  0  0  0  0  0
   21.2767   19.5802   21.4175 C   0  0  0  0  0  0  0  0  0  0  0  0
   22.2820   19.4542   20.9940 H   0  0  0  0  0  0  0  0  0  0  0  0
   21.0234   20.6391   21.2746 H   0  0  0  0  0  0  0  0  0  0  0  0
   21.3558   19.2490   22.9321 C   0  0  0  0  0  0  0  0  0  0  0  0
   22.1151   19.9096   23.3734 H   0  0  0  0  0  0  0  0  0  0  0  0
   21.7374   18.2283   23.0734 H   0  0  0  0  0  0  0  0  0  0  0  0
   20.0360   19.4399   23.7225 C   0  0  0  0  0  0  0  0  0  0  0  0
   20.2811   19.8182   24.7248 H   0  0  0  0  0  0  0  0  0  0  0  0
   19.4230   20.2213   23.2540 H   0  0  0  0  0  0  0  0  0  0  0  0
   19.2327   18.1274   23.8937 C   0  0  0  0  0  0  0  0  0  0  0  0
   19.8114   17.4269   24.5121 H   0  0  0  0  0  0  0  0  0  0  0  0
   19.0834   17.6266   22.9298 H   0  0  0  0  0  0  0  0  0  0  0  0
   17.8634   18.3791   24.5597 C   0  0  0  0  0  0  0  0  0  0  0  0
   17.9858   18.8323   25.5521 H   0  0  0  0  0  0  0  0  0  0  0  0
   17.3151   17.4365   24.6864 H   0  0  0  0  0  0  0  0  0  0  0  0
   17.2425   19.0507   23.9528 H   0  0  0  0  0  0  0  0  0  0  0  0
  1  2  1  0  0  0  0
  1  3  1  0  0  0  0
  1  4  1  0  0  0  0
  1  5  1  0  0  0  0
  5  6  1  0  0  0  0
  5  7  1  0  0  0  0
  5  8  1  0  0  0  0
  8  9  1  0  0  0  0
  8 10  1  0  0  0  0
  8 11  1  0  0  0  0
 11 12  1  0  0  0  0
 11 13  1  0  0  0  0
 11 14  1  0  0  0  0
 14 15  1  0  0  0  0
 14 16  1  0  0  0  0
 14 17  1  0  0  0  0
 17 18  1  0  0  0  0
 17 19  1  0  0  0  0
 17 20  1  0  0  0  0
 20 21  1  0  0  0  0
 20 22  1  0  0  0  0
 20 23  1  0  0  0  0
M  END
> <VConfSearch Rank>
815

> <Conf_Id>
82

> <Delta U+W>
5.994

> <U+W>
-2.388

> <U>
52.836

> <W>
-55.224

> <W(PB)>
-57.261

> <W(SA)>
2.037

> <Valence>
5.785

> <Coulomb>
46.744

> <VdW>
0.307

> <VdW6>
-7.672

> <VdW12>
7.979

> <Bond>
0.217

> <Angle>
1.470

> <Pdih>
4.098

> <Idih>
0.000

> <Tether>
0.000

$$$$
VeraChem MOL file


 23 22  0  0  0  0  0  0  0  0999 V2000     
   21.3436   17.9072   23.5242 N   0  3  0  0  0  0  0  0  0  0  0  0
   22.3139   18.2070   23.3838 H   0  0  0  0  0  0  0  0  0  0  0  0
   21.3324   17.3138   24.3609 H   0  0  0  0  0  0  0  0  0  0  0  0
   20.7918   18.7451   23.7344 H   0  0  0  0  0  0  0  0  0  0  0  0
   20.8005   17.1788   22.3102 C   0  0  0  0  0  0  0  0  0  0  0  0
   19.7909   16.8255   22.5362 H   0  0  0  0  0  0  0  0  0  0  0  0
   21.4378   16.3048   22.1506 H   0  0  0  0  0  0  0  0  0  0  0  0
   20.7823   18.0300   21.0242 C   0  0  0  0  0  0  0  0  0  0  0  0
   21.7216   18.5922   20.9380 H   0  0  0  0  0  0  0  0  0  0  0  0
   20.7671   17.3417   20.1686 H   0  0  0  0  0  0  0  0  0  0  0  0
   19.5700   18.9893   20.8819 C   0  0  0  0  0  0  0  0  0  0  0  0
   18.6372   18.4105   20.8352 H   0  0  0  0  0  0  0  0  0  0  0  0
   19.6566   19.4851   19.9051 H   0  0  0  0  0  0  0  0  0  0  0  0
   19.4628   20.0884   21.9699 C   0  0  0  0  0  0  0  0  0  0  0  0
   20.4609   20.3456   22.3487 H   0  0  0  0  0  0  0  0  0  0  0  0
   19.0788   21.0058   21.5024 H   0  0  0  0  0  0  0  0  0  0  0  0
   18.5068   19.7091   23.1272 C   0  0  0  0  0  0  0  0  0  0  0  0
   18.7562   18.7242   23.5395 H   0  0  0  0  0  0  0  0  0  0  0  0
   17.4827   19.6233   22.7374 H   0  0  0  0  0  0  0  0  0  0  0  0
   18.5326   20.7606   24.2566 C   0  0  0  0  0  0  0  0  0  0  0  0
   19.5352   20.8510   24.6942 H   0  0  0  0  0  0  0  0  0  0  0  0
   17.8384   20.4830   25.0604 H   0  0  0  0  0  0  0  0  0  0  0  0
   18.2343   21.7484   23.8817 H   0  0  0  0  0  0  0  0  0  0  0  0
  1  2  1  0  0  0  0
  1  3  1  0  0  0  0
  1  4  1  0  0  0  0
  1  5  1  0  0  0  0
  5  6  1  0  0  0  0
  5  7  1  0  0  0  0
  5  8  1  0  0  0  0
  8  9  1  0  0  0  0
  8 10  1  0  0  0  0
  8 11  1  0  0  0  0
 11 12  1  0  0  0  0
 11 13  1  0  0  0  0
 11 14  1  0  0  0  0
 14 15  1  0  0  0  0
 14 16  1  0  0  0  0
 14 17  1  0  0  0  0
 17 18  1  0  0  0  0
 17 19  1  0  0  0  0
 17 20  1  0  0  0  0
 20 21  1  0  0  0  0
 20 22  1  0  0  0  0
 20 23  1  0  0  0  0
M  END
> <VConfSearch Rank>
816

> <Conf_Id>
5

> <Delta U+W>
6.087

> <U+W>
-2.295

> <U>
52.836

> <W>
-55.131

> <W(PB)>
-57.202

> <W(SA)>
2.071

> <Valence>
5.785

> <Coulomb>
46.744

> <VdW>
0.307

> <VdW6>
-7.672

> <VdW12>
7.980

> <Bond>
0.217

> <Angle>
1.470

> <Pdih>
4.098

> <Idih>
0.000

> <Tether>
0.000

$$$$
VeraChem MOL file


 23 22  0  0  0  0  0  0  0  0999 V2000     
   22.9045   19.8707   24.6507 N   0  3  0  0  0  0  0  0  0  0  0  0
   23.5058   19.1422   24.2523 H   0  0  0  0  0  0  0  0  0  0  0  0
   23.1938   19.9948   25.6269 H   0  0  0  0  0  0  0  0  0  0  0  0
   23.1248   20.7443   24.1616 H   0  0  0  0  0  0  0  0  0  0  0  0
   21.4358   19.5152   24.5398 C   0  0  0  0  0  0  0  0  0  0  0  0
   20.8582   20.3168   25.0080 H   0  0  0  0  0  0  0  0  0  0  0  0
   21.2677   18.5948   25.1056 H   0  0  0  0  0  0  0  0  0  0  0  0
   20.9695   19.3219   23.0859 C   0  0  0  0  0  0  0  0  0  0  0  0
   21.1552   20.2431   22.5175 H   0  0  0  0  0  0  0  0  0  0  0  0
   21.5633   18.5272   22.6147 H   0  0  0  0  0  0  0  0  0  0  0  0
   19.4691   18.9611   23.0164 C   0  0  0  0  0  0  0  0  0  0  0  0
   18.8789   19.7560   23.4935 H   0  0  0  0  0  0  0  0  0  0  0  0
   19.2866   18.0420   23.5906 H   0  0  0  0  0  0  0  0  0  0  0  0
   18.9899   18.7647   21.5601 C   0  0  0  0  0  0  0  0  0  0  0  0
   19.1722   19.6837   20.9860 H   0  0  0  0  0  0  0  0  0  0  0  0
   19.5799   17.9699   21.0830 H   0  0  0  0  0  0  0  0  0  0  0  0
   17.4893   18.4038   21.4911 C   0  0  0  0  0  0  0  0  0  0  0  0
   16.8945   19.1972   21.9651 H   0  0  0  0  0  0  0  0  0  0  0  0
   17.3022   17.4835   22.0621 H   0  0  0  0  0  0  0  0  0  0  0  0
   17.0144   18.2084   20.0354 C   0  0  0  0  0  0  0  0  0  0  0  0
   15.9472   17.9529   20.0068 H   0  0  0  0  0  0  0  0  0  0  0  0
   17.5682   17.3972   19.5450 H   0  0  0  0  0  0  0  0  0  0  0  0
   17.1573   19.1243   19.4472 H   0  0  0  0  0  0  0  0  0  0  0  0
  1  2  1  0  0  0  0
  1  3  1  0  0  0  0
  1  4  1  0  0  0  0
  1  5  1  0  0  0  0
  5  6  1  0  0  0  0
  5  7  1  0  0  0  0
  5  8  1  0  0  0  0
  8  9  1  0  0  0  0
  8 10  1  0  0  0  0
  8 11  1  0  0  0  0
 11 12  1  0  0  0  0
 11 13  1  0  0  0  0
 11 14  1  0  0  0  0
 14 15  1  0  0  0  0
 14 16  1  0  0  0  0
 14 17  1  0  0  0  0
 17 18  1  0  0  0  0
 17 19  1  0  0  0  0
 17 20  1  0  0  0  0
 20 21  1  0  0  0  0
 20 22  1  0  0  0  0
 20 23  1  0  0  0  0
M  END
> <VConfSearch Rank>
817

> <Conf_Id>
40

> <Delta U+W>
0.000

> <U+W>
-8.382

> <U>
46.604

> <W>
-54.986

> <W(PB)>
-57.162

> <W(SA)>
2.176

> <Valence>
1.727

> <Coulomb>
44.434

> <VdW>
0.443

> <VdW6>
-4.623

> <VdW12>
5.066

> <Bond>
0.112

> <Angle>
0.386

> <Pdih>
1.228

> <Idih>
0.000

> <Tether>
0.000

$$$$
VeraChem MOL file


 23 22  0  0  0  0  0  0  0  0999 V2000     
   18.3983   17.4768   19.6904 N   0  3  0  0  0  0  0  0  0  0  0  0
   18.9348   16.6381   19.4465 H   0  0  0  0  0  0  0  0  0  0  0  0
   18.6655   18.2096   19.0252 H   0  0  0  0  0  0  0  0  0  0  0  0
   17.4112   17.2604   19.5148 H   0  0  0  0  0  0  0  0  0  0  0  0
   18.6349   17.9020   21.1253 C   0  0  0  0  0  0  0  0  0  0  0  0
   18.3032   17.0893   21.7771 H   0  0  0  0  0  0  0  0  0  0  0  0
   18.0111   18.7776   21.3221 H   0  0  0  0  0  0  0  0  0  0  0  0
   20.1099   18.2339   21.4208 C   0  0  0  0  0  0  0  0  0  0  0  0
   20.7290   17.3613   21.1733 H   0  0  0  0  0  0  0  0  0  0  0  0
   20.4433   19.0510   20.7672 H   0  0  0  0  0  0  0  0  0  0  0  0
   20.3543   18.6180   22.8994 C   0  0  0  0  0  0  0  0  0  0  0  0
   21.4360   18.7263   23.0516 H   0  0  0  0  0  0  0  0  0  0  0  0
   20.0288   17.7948   23.5504 H   0  0  0  0  0  0  0  0  0  0  0  0
   19.6374   19.9282   23.3139 C   0  0  0  0  0  0  0  0  0  0  0  0
   19.9788   20.7552   22.6761 H   0  0  0  0  0  0  0  0  0  0  0  0
   18.5582   19.8280   23.1382 H   0  0  0  0  0  0  0  0  0  0  0  0
   19.8495   20.3024   24.8010 C   0  0  0  0  0  0  0  0  0  0  0  0
   19.4998   19.4828   25.4443 H   0  0  0  0  0  0  0  0  0  0  0  0
   19.2180   21.1699   25.0390 H   0  0  0  0  0  0  0  0  0  0  0  0
   21.3161   20.6466   25.1475 C   0  0  0  0  0  0  0  0  0  0  0  0
   21.9709   19.7723   25.0468 H   0  0  0  0  0  0  0  0  0  0  0  0
   21.3931   20.9974   26.1848 H   0  0  0  0  0  0  0  0  0  0  0  0
   21.7000   21.4417   24.4953 H   0  0  0  0  0  0  0  0  0  0  0  0
  1  2  1  0  0  0  0
  1  3  1  0  0  0  0
  1  4  1  0  0  0  0
  1  5  1  0  0  0  0
  5  6  1  0  0  0  0
  5  7  1  0  0  0  0
  5  8  1  0  0  0  0
  8  9  1  0  0  0  0
  8 10  1  0  0  0  0
  8 11  1  0  0  0  0
 11 12  1  0  0  0  0
 11 13  1  0  0  0  0
 11 14  1  0  0  0  0
 14 15  1  0  0  0  0
 14 16  1  0  0  0  0
 14 17  1  0  0  0  0
 17 18  1  0  0  0  0
 17 19  1  0  0  0  0
 17 20  1  0  0  0  0
 20 21  1  0  0  0  0
 20 22  1  0  0  0  0
 20 23  1  0  0  0  0
M  END
> <VConfSearch Rank>
818

> <Conf_Id>
65

> <Delta U+W>
1.004

> <U+W>
-7.378

> <U>
48.047

> <W>
-55.425

> <W(PB)>
-57.542

> <W(SA)>
2.116

> <Valence>
2.583

> <Coulomb>
44.791

> <VdW>
0.673

> <VdW6>
-5.788

> <VdW12>
6.462

> <Bond>
0.177

> <Angle>
0.787

> <Pdih>
1.619

> <Idih>
0.000

> <Tether>
0.000

$$$$
VeraChem MOL file


 23 22  0  0  0  0  0  0  0  0999 V2000     
   23.2764   19.5033   22.1329 N   0  3  0  0  0  0  0  0  0  0  0  0
   23.4463   20.0988   21.3160 H   0  0  0  0  0  0  0  0  0  0  0  0
   24.0010   18.7774   22.1281 H   0  0  0  0  0  0  0  0  0  0  0  0
   23.4378   20.0799   22.9650 H   0  0  0  0  0  0  0  0  0  0  0  0
   21.8831   18.9082   22.1189 C   0  0  0  0  0  0  0  0  0  0  0  0
   21.7850   18.2649   22.9970 H   0  0  0  0  0  0  0  0  0  0  0  0
   21.7907   18.2864   21.2243 H   0  0  0  0  0  0  0  0  0  0  0  0
   20.7715   19.9747   22.1254 C   0  0  0  0  0  0  0  0  0  0  0  0
   20.8630   20.5989   23.0243 H   0  0  0  0  0  0  0  0  0  0  0  0
   20.9112   20.6417   21.2643 H   0  0  0  0  0  0  0  0  0  0  0  0
   19.3520   19.3628   22.0595 C   0  0  0  0  0  0  0  0  0  0  0  0
   19.2602   18.7469   21.1542 H   0  0  0  0  0  0  0  0  0  0  0  0
   18.6296   20.1824   21.9531 H   0  0  0  0  0  0  0  0  0  0  0  0
   18.9965   18.5153   23.3077 C   0  0  0  0  0  0  0  0  0  0  0  0
   19.7338   17.7106   23.4276 H   0  0  0  0  0  0  0  0  0  0  0  0
   19.0683   19.1373   24.2106 H   0  0  0  0  0  0  0  0  0  0  0  0
   17.5903   17.8720   23.2352 C   0  0  0  0  0  0  0  0  0  0  0  0
   17.4663   17.1998   24.0958 H   0  0  0  0  0  0  0  0  0  0  0  0
   17.5163   17.2400   22.3392 H   0  0  0  0  0  0  0  0  0  0  0  0
   16.4389   18.9033   23.2414 C   0  0  0  0  0  0  0  0  0  0  0  0
   16.4439   19.5199   22.3342 H   0  0  0  0  0  0  0  0  0  0  0  0
   16.5097   19.5692   24.1111 H   0  0  0  0  0  0  0  0  0  0  0  0
   15.4677   18.3938   23.2874 H   0  0  0  0  0  0  0  0  0  0  0  0
  1  2  1  0  0  0  0
  1  3  1  0  0  0  0
  1  4  1  0  0  0  0
  1  5  1  0  0  0  0
  5  6  1  0  0  0  0
  5  7  1  0  0  0  0
  5  8  1  0  0  0  0
  8  9  1  0  0  0  0
  8 10  1  0  0  0  0
  8 11  1  0  0  0  0
 11 12  1  0  0  0  0
 11 13  1  0  0  0  0
 11 14  1  0  0  0  0
 14 15  1  0  0  0  0
 14 16  1  0  0  0  0
 14 17  1  0  0  0  0
 17 18  1  0  0  0  0
 17 19  1  0  0  0  0
 17 20  1  0  0  0  0
 20 21  1  0  0  0  0
 20 22  1  0  0  0  0
 20 23  1  0  0  0  0
M  END
> <VConfSearch Rank>
819

> <Conf_Id>
92

> <Delta U+W>
0.973

> <U+W>
-7.409

> <U>
48.047

> <W>
-55.456

> <W(PB)>
-57.595

> <W(SA)>
2.138

> <Valence>
2.583

> <Coulomb>
44.791

> <VdW>
0.674

> <VdW6>
-5.789

> <VdW12>
6.462

> <Bond>
0.177

> <Angle>
0.787

> <Pdih>
1.619

> <Idih>
0.000

> <Tether>
0.000

$$$$
VeraChem MOL file


 23 22  0  0  0  0  0  0  0  0999 V2000     
   17.5573   20.4865   20.2768 N   0  3  0  0  0  0  0  0  0  0  0  0
   17.9025   21.1546   19.5793 H   0  0  0  0  0  0  0  0  0  0  0  0
   16.6884   20.8754   20.6569 H   0  0  0  0  0  0  0  0  0  0  0  0
   17.3086   19.6300   19.7713 H   0  0  0  0  0  0  0  0  0  0  0  0
   18.5821   20.2254   21.3618 C   0  0  0  0  0  0  0  0  0  0  0  0
   18.8210   21.1805   21.8374 H   0  0  0  0  0  0  0  0  0  0  0  0
   19.4873   19.8433   20.8829 H   0  0  0  0  0  0  0  0  0  0  0  0
   18.0928   19.2249   22.4259 C   0  0  0  0  0  0  0  0  0  0  0  0
   17.1595   19.5989   22.8676 H   0  0  0  0  0  0  0  0  0  0  0  0
   17.8520   18.2659   21.9481 H   0  0  0  0  0  0  0  0  0  0  0  0
   19.1265   18.9985   23.5543 C   0  0  0  0  0  0  0  0  0  0  0  0
   18.6762   18.3513   24.3197 H   0  0  0  0  0  0  0  0  0  0  0  0
   19.3461   19.9557   24.0474 H   0  0  0  0  0  0  0  0  0  0  0  0
   20.4420   18.3549   23.0537 C   0  0  0  0  0  0  0  0  0  0  0  0
   20.2157   17.4146   22.5323 H   0  0  0  0  0  0  0  0  0  0  0  0
   20.9287   19.0148   22.3231 H   0  0  0  0  0  0  0  0  0  0  0  0
   21.4221   18.0755   24.2148 C   0  0  0  0  0  0  0  0  0  0  0  0
   20.9482   17.4086   24.9487 H   0  0  0  0  0  0  0  0  0  0  0  0
   21.6515   19.0130   24.7404 H   0  0  0  0  0  0  0  0  0  0  0  0
   22.7342   17.4349   23.7142 C   0  0  0  0  0  0  0  0  0  0  0  0
   22.5401   16.4777   23.2129 H   0  0  0  0  0  0  0  0  0  0  0  0
   23.4166   17.2437   24.5526 H   0  0  0  0  0  0  0  0  0  0  0  0
   23.2498   18.0945   23.0040 H   0  0  0  0  0  0  0  0  0  0  0  0
  1  2  1  0  0  0  0
  1  3  1  0  0  0  0
  1  4  1  0  0  0  0
  1  5  1  0  0  0  0
  5  6  1  0  0  0  0
  5  7  1  0  0  0  0
  5  8  1  0  0  0  0
  8  9  1  0  0  0  0
  8 10  1  0  0  0  0
  8 11  1  0  0  0  0
 11 12  1  0  0  0  0
 11 13  1  0  0  0  0
 11 14  1  0  0  0  0
 14 15  1  0  0  0  0
 14 16  1  0  0  0  0
 14 17  1  0  0  0  0
 17 18  1  0  0  0  0
 17 19  1  0  0  0  0
 17 20  1  0  0  0  0
 20 21  1  0  0  0  0
 20 22  1  0  0  0  0
 20 23  1  0  0  0  0
M  END
> <VConfSearch Rank>
820

> <Conf_Id>
42

> <Delta U+W>
0.365

> <U+W>
-8.017

> <U>
47.375

> <W>
-55.392

> <W(PB)>
-57.543

> <W(SA)>
2.152

> <Valence>
2.032

> <Coulomb>
44.843

> <VdW>
0.499

> <VdW6>
-5.218

> <VdW12>
5.717

> <Bond>
0.135

> <Angle>
0.514

> <Pdih>
1.383

> <Idih>
0.000

> <Tether>
0.000

$$$$
VeraChem MOL file


 23 22  0  0  0  0  0  0  0  0999 V2000     
   16.8829   17.6552   22.3700 N   0  3  0  0  0  0  0  0  0  0  0  0
   16.5584   18.0478   23.2596 H   0  0  0  0  0  0  0  0  0  0  0  0
   16.2351   16.8993   22.1231 H   0  0  0  0  0  0  0  0  0  0  0  0
   16.7751   18.3853   21.6595 H   0  0  0  0  0  0  0  0  0  0  0  0
   18.3142   17.1625   22.4598 C   0  0  0  0  0  0  0  0  0  0  0  0
   18.5889   16.7367   21.4910 H   0  0  0  0  0  0  0  0  0  0  0  0
   18.3414   16.3615   23.2036 H   0  0  0  0  0  0  0  0  0  0  0  0
   19.3268   18.2562   22.8520 C   0  0  0  0  0  0  0  0  0  0  0  0
   19.0334   18.7014   23.8119 H   0  0  0  0  0  0  0  0  0  0  0  0
   20.2990   17.7725   23.0070 H   0  0  0  0  0  0  0  0  0  0  0  0
   19.4663   19.3576   21.7729 C   0  0  0  0  0  0  0  0  0  0  0  0
   18.4755   19.7704   21.5422 H   0  0  0  0  0  0  0  0  0  0  0  0
   19.8347   18.9084   20.8402 H   0  0  0  0  0  0  0  0  0  0  0  0
   20.3907   20.5353   22.1771 C   0  0  0  0  0  0  0  0  0  0  0  0
   20.3730   21.2653   21.3560 H   0  0  0  0  0  0  0  0  0  0  0  0
   19.9742   21.0607   23.0476 H   0  0  0  0  0  0  0  0  0  0  0  0
   21.8676   20.1447   22.4424 C   0  0  0  0  0  0  0  0  0  0  0  0
   22.5144   20.9592   22.0871 H   0  0  0  0  0  0  0  0  0  0  0  0
   22.1421   19.2612   21.8493 H   0  0  0  0  0  0  0  0  0  0  0  0
   22.1803   19.9071   23.9384 C   0  0  0  0  0  0  0  0  0  0  0  0
   21.9802   20.8109   24.5285 H   0  0  0  0  0  0  0  0  0  0  0  0
   23.2389   19.6498   24.0732 H   0  0  0  0  0  0  0  0  0  0  0  0
   21.5841   19.0908   24.3606 H   0  0  0  0  0  0  0  0  0  0  0  0
  1  2  1  0  0  0  0
  1  3  1  0  0  0  0
  1  4  1  0  0  0  0
  1  5  1  0  0  0  0
  5  6  1  0  0  0  0
  5  7  1  0  0  0  0
  5  8  1  0  0  0  0
  8  9  1  0  0  0  0
  8 10  1  0  0  0  0
  8 11  1  0  0  0  0
 11 12  1  0  0  0  0
 11 13  1  0  0  0  0
 11 14  1  0  0  0  0
 14 15  1  0  0  0  0
 14 16  1  0  0  0  0
 14 17  1  0  0  0  0
 17 18  1  0  0  0  0
 17 19  1  0  0  0  0
 17 20  1  0  0  0  0
 20 21  1  0  0  0  0
 20 22  1  0  0  0  0
 20 23  1  0  0  0  0
M  END
> <VConfSearch Rank>
821

> <Conf_Id>
3

> <Delta U+W>
3.283

> <U+W>
-5.099

> <U>
50.701

> <W>
-55.800

> <W(PB)>
-57.867

> <W(SA)>
2.067

> <Valence>
4.880

> <Coulomb>
45.095

> <VdW>
0.726

> <VdW6>
-6.620

> <VdW12>
7.346

> <Bond>
0.222

> <Angle>
1.260

> <Pdih>
3.398

> <Idih>
0.000

> <Tether>
0.000

$$$$
VeraChem MOL file


 23 22  0  0  0  0  0  0  0  0999 V2000     
   18.1633   16.9172   23.6664 N   0  3  0  0  0  0  0  0  0  0  0  0
   18.6930   16.2436   24.2288 H   0  0  0  0  0  0  0  0  0  0  0  0
   17.1797   16.6288   23.7020 H   0  0  0  0  0  0  0  0  0  0  0  0
   18.2283   17.8240   24.1386 H   0  0  0  0  0  0  0  0  0  0  0  0
   18.6780   16.9897   22.2423 C   0  0  0  0  0  0  0  0  0  0  0  0
   18.0542   17.6985   21.6919 H   0  0  0  0  0  0  0  0  0  0  0  0
   18.5472   16.0026   21.7907 H   0  0  0  0  0  0  0  0  0  0  0  0
   20.1595   17.4066   22.1389 C   0  0  0  0  0  0  0  0  0  0  0  0
   20.7783   16.6585   22.6519 H   0  0  0  0  0  0  0  0  0  0  0  0
   20.4603   17.3794   21.0831 H   0  0  0  0  0  0  0  0  0  0  0  0
   20.4666   18.8096   22.7210 C   0  0  0  0  0  0  0  0  0  0  0  0
   21.5466   18.9848   22.6334 H   0  0  0  0  0  0  0  0  0  0  0  0
   20.2406   18.8265   23.7955 H   0  0  0  0  0  0  0  0  0  0  0  0
   19.6972   19.9489   22.0051 C   0  0  0  0  0  0  0  0  0  0  0  0
   19.9459   19.9480   20.9349 H   0  0  0  0  0  0  0  0  0  0  0  0
   18.6174   19.7618   22.0713 H   0  0  0  0  0  0  0  0  0  0  0  0
   19.9789   21.3505   22.5990 C   0  0  0  0  0  0  0  0  0  0  0  0
   19.7216   21.3605   23.6674 H   0  0  0  0  0  0  0  0  0  0  0  0
   19.3114   22.0777   22.1159 H   0  0  0  0  0  0  0  0  0  0  0  0
   21.4403   21.8177   22.4114 C   0  0  0  0  0  0  0  0  0  0  0  0
   21.7329   21.7849   21.3539 H   0  0  0  0  0  0  0  0  0  0  0  0
   22.1402   21.1948   22.9819 H   0  0  0  0  0  0  0  0  0  0  0  0
   21.5605   22.8515   22.7605 H   0  0  0  0  0  0  0  0  0  0  0  0
  1  2  1  0  0  0  0
  1  3  1  0  0  0  0
  1  4  1  0  0  0  0
  1  5  1  0  0  0  0
  5  6  1  0  0  0  0
  5  7  1  0  0  0  0
  5  8  1  0  0  0  0
  8  9  1  0  0  0  0
  8 10  1  0  0  0  0
  8 11  1  0  0  0  0
 11 12  1  0  0  0  0
 11 13  1  0  0  0  0
 11 14  1  0  0  0  0
 14 15  1  0  0  0  0
 14 16  1  0  0  0  0
 14 17  1  0  0  0  0
 17 18  1  0  0  0  0
 17 19  1  0  0  0  0
 17 20  1  0  0  0  0
 20 21  1  0  0  0  0
 20 22  1  0  0  0  0
 20 23  1  0  0  0  0
M  END
> <VConfSearch Rank>
822

> <Conf_Id>
83

> <Delta U+W>
1.229

> <U+W>
-7.154

> <U>
48.727

> <W>
-55.880

> <W(PB)>
-57.960

> <W(SA)>
2.080

> <Valence>
2.671

> <Coulomb>
45.371

> <VdW>
0.684

> <VdW6>
-6.511

> <VdW12>
7.195

> <Bond>
0.203

> <Angle>
0.915

> <Pdih>
1.554

> <Idih>
0.000

> <Tether>
0.000

$$$$
VeraChem MOL file


 23 22  0  0  0  0  0  0  0  0999 V2000     
   18.1857   18.5221   20.1581 N   0  3  0  0  0  0  0  0  0  0  0  0
   17.2576   18.9570   20.1617 H   0  0  0  0  0  0  0  0  0  0  0  0
   18.2054   17.8429   20.9248 H   0  0  0  0  0  0  0  0  0  0  0  0
   18.2643   17.9918   19.2838 H   0  0  0  0  0  0  0  0  0  0  0  0
   19.2904   19.5514   20.2941 C   0  0  0  0  0  0  0  0  0  0  0  0
   19.2316   20.2186   19.4298 H   0  0  0  0  0  0  0  0  0  0  0  0
   20.2489   19.0279   20.2521 H   0  0  0  0  0  0  0  0  0  0  0  0
   19.2057   20.3846   21.5894 C   0  0  0  0  0  0  0  0  0  0  0  0
   20.0063   21.1361   21.5779 H   0  0  0  0  0  0  0  0  0  0  0  0
   18.2612   20.9448   21.5932 H   0  0  0  0  0  0  0  0  0  0  0  0
   19.3090   19.5487   22.8902 C   0  0  0  0  0  0  0  0  0  0  0  0
   18.4690   18.8440   22.9497 H   0  0  0  0  0  0  0  0  0  0  0  0
   19.1962   20.2311   23.7425 H   0  0  0  0  0  0  0  0  0  0  0  0
   20.6489   18.7796   23.0163 C   0  0  0  0  0  0  0  0  0  0  0  0
   20.7741   18.1146   22.1518 H   0  0  0  0  0  0  0  0  0  0  0  0
   21.4873   19.4890   22.9844 H   0  0  0  0  0  0  0  0  0  0  0  0
   20.7479   17.9212   24.3007 C   0  0  0  0  0  0  0  0  0  0  0  0
   21.6692   17.3239   24.2542 H   0  0  0  0  0  0  0  0  0  0  0  0
   19.9174   17.2021   24.3327 H   0  0  0  0  0  0  0  0  0  0  0  0
   20.7634   18.7564   25.6013 C   0  0  0  0  0  0  0  0  0  0  0  0
   21.5651   19.5059   25.5799 H   0  0  0  0  0  0  0  0  0  0  0  0
   20.9331   18.1087   26.4712 H   0  0  0  0  0  0  0  0  0  0  0  0
   19.8103   19.2759   25.7594 H   0  0  0  0  0  0  0  0  0  0  0  0
  1  2  1  0  0  0  0
  1  3  1  0  0  0  0
  1  4  1  0  0  0  0
  1  5  1  0  0  0  0
  5  6  1  0  0  0  0
  5  7  1  0  0  0  0
  5  8  1  0  0  0  0
  8  9  1  0  0  0  0
  8 10  1  0  0  0  0
  8 11  1  0  0  0  0
 11 12  1  0  0  0  0
 11 13  1  0  0  0  0
 11 14  1  0  0  0  0
 14 15  1  0  0  0  0
 14 16  1  0  0  0  0
 14 17  1  0  0  0  0
 17 18  1  0  0  0  0
 17 19  1  0  0  0  0
 17 20  1  0  0  0  0
 20 21  1  0  0  0  0
 20 22  1  0  0  0  0
 20 23  1  0  0  0  0
M  END
> <VConfSearch Rank>
823

> <Conf_Id>
50

> <Delta U+W>
1.252

> <U+W>
-7.130

> <U>
48.727

> <W>
-55.857

> <W(PB)>
-57.937

> <W(SA)>
2.080

> <Valence>
2.671

> <Coulomb>
45.371

> <VdW>
0.684

> <VdW6>
-6.511

> <VdW12>
7.196

> <Bond>
0.203

> <Angle>
0.915

> <Pdih>
1.554

> <Idih>
0.000

> <Tether>
0.000

$$$$
VeraChem MOL file


 23 22  0  0  0  0  0  0  0  0999 V2000     
   16.9203   18.2790   23.7586 N   0  3  0  0  0  0  0  0  0  0  0  0
   17.1268   19.1513   24.2546 H   0  0  0  0  0  0  0  0  0  0  0  0
   16.3813   17.6892   24.4017 H   0  0  0  0  0  0  0  0  0  0  0  0
   16.2996   18.5140   22.9775 H   0  0  0  0  0  0  0  0  0  0  0  0
   18.1843   17.5874   23.2861 C   0  0  0  0  0  0  0  0  0  0  0  0
   17.8894   16.6505   22.8057 H   0  0  0  0  0  0  0  0  0  0  0  0
   18.7870   17.3442   24.1653 H   0  0  0  0  0  0  0  0  0  0  0  0
   19.0209   18.4254   22.2999 C   0  0  0  0  0  0  0  0  0  0  0  0
   19.8458   17.8030   21.9354 H   0  0  0  0  0  0  0  0  0  0  0  0
   18.4099   18.6714   21.4214 H   0  0  0  0  0  0  0  0  0  0  0  0
   19.5716   19.7258   22.9390 C   0  0  0  0  0  0  0  0  0  0  0  0
   20.1050   19.4973   23.8722 H   0  0  0  0  0  0  0  0  0  0  0  0
   18.7224   20.3622   23.2216 H   0  0  0  0  0  0  0  0  0  0  0  0
   20.4890   20.5381   21.9879 C   0  0  0  0  0  0  0  0  0  0  0  0
   20.1964   20.3727   20.9418 H   0  0  0  0  0  0  0  0  0  0  0  0
   20.3175   21.6069   22.1771 H   0  0  0  0  0  0  0  0  0  0  0  0
   22.0057   20.2716   22.1660 C   0  0  0  0  0  0  0  0  0  0  0  0
   22.3087   20.5373   23.1884 H   0  0  0  0  0  0  0  0  0  0  0  0
   22.5590   20.9482   21.4998 H   0  0  0  0  0  0  0  0  0  0  0  0
   22.4368   18.8195   21.8653 C   0  0  0  0  0  0  0  0  0  0  0  0
   22.0970   18.5030   20.8707 H   0  0  0  0  0  0  0  0  0  0  0  0
   22.0359   18.1220   22.6110 H   0  0  0  0  0  0  0  0  0  0  0  0
   23.5307   18.7315   21.8898 H   0  0  0  0  0  0  0  0  0  0  0  0
  1  2  1  0  0  0  0
  1  3  1  0  0  0  0
  1  4  1  0  0  0  0
  1  5  1  0  0  0  0
  5  6  1  0  0  0  0
  5  7  1  0  0  0  0
  5  8  1  0  0  0  0
  8  9  1  0  0  0  0
  8 10  1  0  0  0  0
  8 11  1  0  0  0  0
 11 12  1  0  0  0  0
 11 13  1  0  0  0  0
 11 14  1  0  0  0  0
 14 15  1  0  0  0  0
 14 16  1  0  0  0  0
 14 17  1  0  0  0  0
 17 18  1  0  0  0  0
 17 19  1  0  0  0  0
 17 20  1  0  0  0  0
 20 21  1  0  0  0  0
 20 22  1  0  0  0  0
 20 23  1  0  0  0  0
M  END
> <VConfSearch Rank>
824

> <Conf_Id>
55

> <Delta U+W>
3.232

> <U+W>
-5.150

> <U>
50.625

> <W>
-55.776

> <W(PB)>
-57.839

> <W(SA)>
2.064

> <Valence>
4.837

> <Coulomb>
45.097

> <VdW>
0.692

> <VdW6>
-6.655

> <VdW12>
7.347

> <Bond>
0.223

> <Angle>
1.167

> <Pdih>
3.447

> <Idih>
0.000

> <Tether>
0.000

$$$$
VeraChem MOL file


 23 22  0  0  0  0  0  0  0  0999 V2000     
   19.0080   21.2676   24.6250 N   0  3  0  0  0  0  0  0  0  0  0  0
   18.5974   22.1548   24.3165 H   0  0  0  0  0  0  0  0  0  0  0  0
   19.5888   21.4773   25.4439 H   0  0  0  0  0  0  0  0  0  0  0  0
   18.2369   20.6756   24.9501 H   0  0  0  0  0  0  0  0  0  0  0  0
   19.8071   20.6015   23.5234 C   0  0  0  0  0  0  0  0  0  0  0  0
   20.2414   19.6876   23.9326 H   0  0  0  0  0  0  0  0  0  0  0  0
   20.6244   21.2734   23.2479 H   0  0  0  0  0  0  0  0  0  0  0  0
   18.9612   20.2803   22.2755 C   0  0  0  0  0  0  0  0  0  0  0  0
   18.1086   19.6431   22.5453 H   0  0  0  0  0  0  0  0  0  0  0  0
   18.5381   21.2215   21.8998 H   0  0  0  0  0  0  0  0  0  0  0  0
   19.7812   19.6201   21.1383 C   0  0  0  0  0  0  0  0  0  0  0  0
   20.7861   20.0626   21.0931 H   0  0  0  0  0  0  0  0  0  0  0  0
   19.3027   19.8720   20.1818 H   0  0  0  0  0  0  0  0  0  0  0  0
   19.8824   18.0744   21.2169 C   0  0  0  0  0  0  0  0  0  0  0  0
   18.8758   17.6383   21.1559 H   0  0  0  0  0  0  0  0  0  0  0  0
   20.4211   17.7218   20.3265 H   0  0  0  0  0  0  0  0  0  0  0  0
   20.5974   17.5390   22.4789 C   0  0  0  0  0  0  0  0  0  0  0  0
   19.9901   17.7472   23.3693 H   0  0  0  0  0  0  0  0  0  0  0  0
   21.5587   18.0548   22.6113 H   0  0  0  0  0  0  0  0  0  0  0  0
   20.8407   16.0172   22.3927 C   0  0  0  0  0  0  0  0  0  0  0  0
   21.4789   15.7666   21.5353 H   0  0  0  0  0  0  0  0  0  0  0  0
   19.8940   15.4717   22.2853 H   0  0  0  0  0  0  0  0  0  0  0  0
   21.3387   15.6523   23.3004 H   0  0  0  0  0  0  0  0  0  0  0  0
  1  2  1  0  0  0  0
  1  3  1  0  0  0  0
  1  4  1  0  0  0  0
  1  5  1  0  0  0  0
  5  6  1  0  0  0  0
  5  7  1  0  0  0  0
  5  8  1  0  0  0  0
  8  9  1  0  0  0  0
  8 10  1  0  0  0  0
  8 11  1  0  0  0  0
 11 12  1  0  0  0  0
 11 13  1  0  0  0  0
 11 14  1  0  0  0  0
 14 15  1  0  0  0  0
 14 16  1  0  0  0  0
 14 17  1  0  0  0  0
 17 18  1  0  0  0  0
 17 19  1  0  0  0  0
 17 20  1  0  0  0  0
 20 21  1  0  0  0  0
 20 22  1  0  0  0  0
 20 23  1  0  0  0  0
M  END
> <VConfSearch Rank>
825

> <Conf_Id>
93

> <Delta U+W>
2.589

> <U+W>
-5.793

> <U>
50.122

> <W>
-55.915

> <W(PB)>
-58.031

> <W(SA)>
2.115

> <Valence>
4.132

> <Coulomb>
45.536

> <VdW>
0.454

> <VdW6>
-6.262

> <VdW12>
6.715

> <Bond>
0.182

> <Angle>
1.157

> <Pdih>
2.794

> <Idih>
0.000

> <Tether>
0.000

$$$$
VeraChem MOL file


 23 22  0  0  0  0  0  0  0  0999 V2000     
   19.0937   16.9024   20.3152 N   0  3  0  0  0  0  0  0  0  0  0  0
   18.8797   17.6791   19.6814 H   0  0  0  0  0  0  0  0  0  0  0  0
   18.2565   16.3113   20.3561 H   0  0  0  0  0  0  0  0  0  0  0  0
   19.8301   16.3448   19.8706 H   0  0  0  0  0  0  0  0  0  0  0  0
   19.5063   17.3906   21.6890 C   0  0  0  0  0  0  0  0  0  0  0  0
   19.6899   16.5138   22.3159 H   0  0  0  0  0  0  0  0  0  0  0  0
   18.6652   17.9418   22.1133 H   0  0  0  0  0  0  0  0  0  0  0  0
   20.7672   18.2765   21.6599 C   0  0  0  0  0  0  0  0  0  0  0  0
   21.5854   17.6896   21.2216 H   0  0  0  0  0  0  0  0  0  0  0  0
   20.6139   19.1380   20.9965 H   0  0  0  0  0  0  0  0  0  0  0  0
   21.2048   18.7581   23.0664 C   0  0  0  0  0  0  0  0  0  0  0  0
   22.2909   18.9246   23.0477 H   0  0  0  0  0  0  0  0  0  0  0  0
   21.0394   17.9616   23.8053 H   0  0  0  0  0  0  0  0  0  0  0  0
   20.5388   20.0749   23.5438 C   0  0  0  0  0  0  0  0  0  0  0  0
   20.9787   20.3482   24.5129 H   0  0  0  0  0  0  0  0  0  0  0  0
   20.7984   20.8880   22.8519 H   0  0  0  0  0  0  0  0  0  0  0  0
   19.0019   20.0014   23.6949 C   0  0  0  0  0  0  0  0  0  0  0  0
   18.7265   19.1216   24.2930 H   0  0  0  0  0  0  0  0  0  0  0  0
   18.5344   19.8847   22.7086 H   0  0  0  0  0  0  0  0  0  0  0  0
   18.4342   21.2722   24.3624 C   0  0  0  0  0  0  0  0  0  0  0  0
   17.3420   21.2080   24.4518 H   0  0  0  0  0  0  0  0  0  0  0  0
   18.6720   22.1673   23.7730 H   0  0  0  0  0  0  0  0  0  0  0  0
   18.8467   21.4072   25.3708 H   0  0  0  0  0  0  0  0  0  0  0  0
  1  2  1  0  0  0  0
  1  3  1  0  0  0  0
  1  4  1  0  0  0  0
  1  5  1  0  0  0  0
  5  6  1  0  0  0  0
  5  7  1  0  0  0  0
  5  8  1  0  0  0  0
  8  9  1  0  0  0  0
  8 10  1  0  0  0  0
  8 11  1  0  0  0  0
 11 12  1  0  0  0  0
 11 13  1  0  0  0  0
 11 14  1  0  0  0  0
 14 15  1  0  0  0  0
 14 16  1  0  0  0  0
 14 17  1  0  0  0  0
 17 18  1  0  0  0  0
 17 19  1  0  0  0  0
 17 20  1  0  0  0  0
 20 21  1  0  0  0  0
 20 22  1  0  0  0  0
 20 23  1  0  0  0  0
M  END
> <VConfSearch Rank>
826

> <Conf_Id>
70

> <Delta U+W>
2.599

> <U+W>
-5.783

> <U>
50.122

> <W>
-55.906

> <W(PB)>
-58.010

> <W(SA)>
2.105

> <Valence>
4.132

> <Coulomb>
45.536

> <VdW>
0.454

> <VdW6>
-6.262

> <VdW12>
6.715

> <Bond>
0.182

> <Angle>
1.157

> <Pdih>
2.794

> <Idih>
0.000

> <Tether>
0.000

$$$$
VeraChem MOL file


 23 22  0  0  0  0  0  0  0  0999 V2000     
   19.2847   18.4180   25.3219 N   0  3  0  0  0  0  0  0  0  0  0  0
   20.0002   18.3711   26.0543 H   0  0  0  0  0  0  0  0  0  0  0  0
   18.4235   18.0279   25.7193 H   0  0  0  0  0  0  0  0  0  0  0  0
   19.1080   19.4094   25.1342 H   0  0  0  0  0  0  0  0  0  0  0  0
   19.7127   17.6792   24.0691 C   0  0  0  0  0  0  0  0  0  0  0  0
   18.8966   17.7385   23.3443 H   0  0  0  0  0  0  0  0  0  0  0  0
   19.8554   16.6282   24.3346 H   0  0  0  0  0  0  0  0  0  0  0  0
   21.0085   18.2292   23.4397 C   0  0  0  0  0  0  0  0  0  0  0  0
   21.8283   18.1329   24.1639 H   0  0  0  0  0  0  0  0  0  0  0  0
   21.2859   17.5946   22.5884 H   0  0  0  0  0  0  0  0  0  0  0  0
   20.9072   19.7070   22.9783 C   0  0  0  0  0  0  0  0  0  0  0  0
   21.8575   19.9973   22.5093 H   0  0  0  0  0  0  0  0  0  0  0  0
   20.8014   20.3548   23.8589 H   0  0  0  0  0  0  0  0  0  0  0  0
   19.7460   20.0060   21.9949 C   0  0  0  0  0  0  0  0  0  0  0  0
   18.7807   19.8105   22.4808 H   0  0  0  0  0  0  0  0  0  0  0  0
   19.7560   21.0801   21.7638 H   0  0  0  0  0  0  0  0  0  0  0  0
   19.8345   19.2074   20.6731 C   0  0  0  0  0  0  0  0  0  0  0  0
   19.7548   18.1308   20.8748 H   0  0  0  0  0  0  0  0  0  0  0  0
   20.8150   19.3723   20.2050 H   0  0  0  0  0  0  0  0  0  0  0  0
   18.7206   19.6156   19.6857 C   0  0  0  0  0  0  0  0  0  0  0  0
   18.7966   19.0381   18.7553 H   0  0  0  0  0  0  0  0  0  0  0  0
   18.7919   20.6803   19.4277 H   0  0  0  0  0  0  0  0  0  0  0  0
   17.7267   19.4335   20.1150 H   0  0  0  0  0  0  0  0  0  0  0  0
  1  2  1  0  0  0  0
  1  3  1  0  0  0  0
  1  4  1  0  0  0  0
  1  5  1  0  0  0  0
  5  6  1  0  0  0  0
  5  7  1  0  0  0  0
  5  8  1  0  0  0  0
  8  9  1  0  0  0  0
  8 10  1  0  0  0  0
  8 11  1  0  0  0  0
 11 12  1  0  0  0  0
 11 13  1  0  0  0  0
 11 14  1  0  0  0  0
 14 15  1  0  0  0  0
 14 16  1  0  0  0  0
 14 17  1  0  0  0  0
 17 18  1  0  0  0  0
 17 19  1  0  0  0  0
 17 20  1  0  0  0  0
 20 21  1  0  0  0  0
 20 22  1  0  0  0  0
 20 23  1  0  0  0  0
M  END
> <VConfSearch Rank>
827

> <Conf_Id>
72

> <Delta U+W>
1.051

> <U+W>
-7.331

> <U>
48.590

> <W>
-55.922

> <W(PB)>
-58.012

> <W(SA)>
2.090

> <Valence>
2.601

> <Coulomb>
45.520

> <VdW>
0.469

> <VdW6>
-6.867

> <VdW12>
7.336

> <Bond>
0.205

> <Angle>
0.962

> <Pdih>
1.434

> <Idih>
0.000

> <Tether>
0.000

$$$$
VeraChem MOL file


 23 22  0  0  0  0  0  0  0  0999 V2000     
   22.6086   18.6752   23.8653 N   0  3  0  0  0  0  0  0  0  0  0  0
   22.8875   18.4246   24.8200 H   0  0  0  0  0  0  0  0  0  0  0  0
   23.3051   19.3419   23.5172 H   0  0  0  0  0  0  0  0  0  0  0  0
   22.6937   17.8261   23.2974 H   0  0  0  0  0  0  0  0  0  0  0  0
   21.2066   19.2478   23.8205 C   0  0  0  0  0  0  0  0  0  0  0  0
   21.1805   20.1292   24.4668 H   0  0  0  0  0  0  0  0  0  0  0  0
   20.5246   18.4990   24.2318 H   0  0  0  0  0  0  0  0  0  0  0  0
   20.7571   19.6344   22.3991 C   0  0  0  0  0  0  0  0  0  0  0  0
   21.4694   20.3582   21.9815 H   0  0  0  0  0  0  0  0  0  0  0  0
   20.7953   18.7531   21.7462 H   0  0  0  0  0  0  0  0  0  0  0  0
   19.3383   20.2550   22.3690 C   0  0  0  0  0  0  0  0  0  0  0  0
   19.0877   20.5279   21.3352 H   0  0  0  0  0  0  0  0  0  0  0  0
   19.3526   21.2001   22.9292 H   0  0  0  0  0  0  0  0  0  0  0  0
   18.2192   19.3508   22.9527 C   0  0  0  0  0  0  0  0  0  0  0  0
   18.3846   19.2150   24.0300 H   0  0  0  0  0  0  0  0  0  0  0  0
   17.2603   19.8801   22.8663 H   0  0  0  0  0  0  0  0  0  0  0  0
   18.0826   17.9577   22.2871 C   0  0  0  0  0  0  0  0  0  0  0  0
   17.2737   17.4081   22.7883 H   0  0  0  0  0  0  0  0  0  0  0  0
   18.9938   17.3672   22.4515 H   0  0  0  0  0  0  0  0  0  0  0  0
   17.7726   18.0289   20.7747 C   0  0  0  0  0  0  0  0  0  0  0  0
   16.8713   18.6259   20.5845 H   0  0  0  0  0  0  0  0  0  0  0  0
   17.6011   17.0233   20.3694 H   0  0  0  0  0  0  0  0  0  0  0  0
   18.6041   18.4737   20.2141 H   0  0  0  0  0  0  0  0  0  0  0  0
  1  2  1  0  0  0  0
  1  3  1  0  0  0  0
  1  4  1  0  0  0  0
  1  5  1  0  0  0  0
  5  6  1  0  0  0  0
  5  7  1  0  0  0  0
  5  8  1  0  0  0  0
  8  9  1  0  0  0  0
  8 10  1  0  0  0  0
  8 11  1  0  0  0  0
 11 12  1  0  0  0  0
 11 13  1  0  0  0  0
 11 14  1  0  0  0  0
 14 15  1  0  0  0  0
 14 16  1  0  0  0  0
 14 17  1  0  0  0  0
 17 18  1  0  0  0  0
 17 19  1  0  0  0  0
 17 20  1  0  0  0  0
 20 21  1  0  0  0  0
 20 22  1  0  0  0  0
 20 23  1  0  0  0  0
M  END
> <VConfSearch Rank>
828

> <Conf_Id>
26

> <Delta U+W>
1.076

> <U+W>
-7.306

> <U>
48.641

> <W>
-55.947

> <W(PB)>
-58.031

> <W(SA)>
2.084

> <Valence>
2.922

> <Coulomb>
45.269

> <VdW>
0.449

> <VdW6>
-7.045

> <VdW12>
7.494

> <Bond>
0.220

> <Angle>
1.205

> <Pdih>
1.497

> <Idih>
0.000

> <Tether>
0.000

$$$$
VeraChem MOL file


 23 22  0  0  0  0  0  0  0  0999 V2000     
   17.3225   18.0608   20.9610 N   0  3  0  0  0  0  0  0  0  0  0  0
   17.5019   17.8853   19.9671 H   0  0  0  0  0  0  0  0  0  0  0  0
   16.3377   18.3358   21.0417 H   0  0  0  0  0  0  0  0  0  0  0  0
   17.4227   17.1647   21.4485 H   0  0  0  0  0  0  0  0  0  0  0  0
   18.2500   19.1181   21.5243 C   0  0  0  0  0  0  0  0  0  0  0  0
   17.9835   19.2747   22.5728 H   0  0  0  0  0  0  0  0  0  0  0  0
   18.0707   20.0496   20.9807 H   0  0  0  0  0  0  0  0  0  0  0  0
   19.7379   18.7349   21.4184 C   0  0  0  0  0  0  0  0  0  0  0  0
   19.9166   17.7932   21.9528 H   0  0  0  0  0  0  0  0  0  0  0  0
   19.9856   18.5437   20.3659 H   0  0  0  0  0  0  0  0  0  0  0  0
   20.6794   19.8388   21.9609 C   0  0  0  0  0  0  0  0  0  0  0  0
   20.5720   20.7355   21.3352 H   0  0  0  0  0  0  0  0  0  0  0  0
   21.7213   19.5148   21.8367 H   0  0  0  0  0  0  0  0  0  0  0  0
   20.4324   20.2360   23.4414 C   0  0  0  0  0  0  0  0  0  0  0  0
   21.1611   21.0085   23.7232 H   0  0  0  0  0  0  0  0  0  0  0  0
   19.4474   20.7135   23.5316 H   0  0  0  0  0  0  0  0  0  0  0  0
   20.5200   19.0712   24.4601 C   0  0  0  0  0  0  0  0  0  0  0  0
   19.7303   18.3339   24.2630 H   0  0  0  0  0  0  0  0  0  0  0  0
   20.3165   19.4683   25.4644 H   0  0  0  0  0  0  0  0  0  0  0  0
   21.8973   18.3701   24.4724 C   0  0  0  0  0  0  0  0  0  0  0  0
   22.0987   17.8622   23.5211 H   0  0  0  0  0  0  0  0  0  0  0  0
   21.9364   17.6129   25.2662 H   0  0  0  0  0  0  0  0  0  0  0  0
   22.7049   19.0906   24.6554 H   0  0  0  0  0  0  0  0  0  0  0  0
  1  2  1  0  0  0  0
  1  3  1  0  0  0  0
  1  4  1  0  0  0  0
  1  5  1  0  0  0  0
  5  6  1  0  0  0  0
  5  7  1  0  0  0  0
  5  8  1  0  0  0  0
  8  9  1  0  0  0  0
  8 10  1  0  0  0  0
  8 11  1  0  0  0  0
 11 12  1  0  0  0  0
 11 13  1  0  0  0  0
 11 14  1  0  0  0  0
 14 15  1  0  0  0  0
 14 16  1  0  0  0  0
 14 17  1  0  0  0  0
 17 18  1  0  0  0  0
 17 19  1  0  0  0  0
 17 20  1  0  0  0  0
 20 21  1  0  0  0  0
 20 22  1  0  0  0  0
 20 23  1  0  0  0  0
M  END
> <VConfSearch Rank>
829

> <Conf_Id>
90

> <Delta U+W>
1.131

> <U+W>
-7.251

> <U>
48.641

> <W>
-55.892

> <W(PB)>
-57.962

> <W(SA)>
2.070

> <Valence>
2.922

> <Coulomb>
45.269

> <VdW>
0.450

> <VdW6>
-7.045

> <VdW12>
7.495

> <Bond>
0.220

> <Angle>
1.205

> <Pdih>
1.497

> <Idih>
0.000

> <Tether>
0.000

$$$$
VeraChem MOL file


 23 22  0  0  0  0  0  0  0  0999 V2000     
   20.9763   19.5760   24.8744 N   0  3  0  0  0  0  0  0  0  0  0  0
   20.6843   19.9712   25.7747 H   0  0  0  0  0  0  0  0  0  0  0  0
   20.6677   20.2265   24.1455 H   0  0  0  0  0  0  0  0  0  0  0  0
   22.0013   19.5751   24.8666 H   0  0  0  0  0  0  0  0  0  0  0  0
   20.4105   18.1861   24.6592 C   0  0  0  0  0  0  0  0  0  0  0  0
   19.3207   18.2523   24.7097 H   0  0  0  0  0  0  0  0  0  0  0  0
   20.7504   17.5565   25.4861 H   0  0  0  0  0  0  0  0  0  0  0  0
   20.8327   17.5454   23.3212 C   0  0  0  0  0  0  0  0  0  0  0  0
   21.9256   17.4407   23.3016 H   0  0  0  0  0  0  0  0  0  0  0  0
   20.4271   16.5260   23.2756 H   0  0  0  0  0  0  0  0  0  0  0  0
   20.3709   18.3358   22.0712 C   0  0  0  0  0  0  0  0  0  0  0  0
   20.7298   17.8127   21.1741 H   0  0  0  0  0  0  0  0  0  0  0  0
   20.8521   19.3219   22.0632 H   0  0  0  0  0  0  0  0  0  0  0  0
   18.8314   18.4915   21.9864 C   0  0  0  0  0  0  0  0  0  0  0  0
   18.3653   17.5011   22.0817 H   0  0  0  0  0  0  0  0  0  0  0  0
   18.4638   19.0892   22.8311 H   0  0  0  0  0  0  0  0  0  0  0  0
   18.3518   19.1351   20.6631 C   0  0  0  0  0  0  0  0  0  0  0  0
   17.2534   19.1113   20.6370 H   0  0  0  0  0  0  0  0  0  0  0  0
   18.6923   18.5310   19.8106 H   0  0  0  0  0  0  0  0  0  0  0  0
   18.8226   20.5967   20.4860 C   0  0  0  0  0  0  0  0  0  0  0  0
   18.5172   21.2163   21.3390 H   0  0  0  0  0  0  0  0  0  0  0  0
   18.3838   21.0341   19.5799 H   0  0  0  0  0  0  0  0  0  0  0  0
   19.9133   20.6600   20.3870 H   0  0  0  0  0  0  0  0  0  0  0  0
  1  2  1  0  0  0  0
  1  3  1  0  0  0  0
  1  4  1  0  0  0  0
  1  5  1  0  0  0  0
  5  6  1  0  0  0  0
  5  7  1  0  0  0  0
  5  8  1  0  0  0  0
  8  9  1  0  0  0  0
  8 10  1  0  0  0  0
  8 11  1  0  0  0  0
 11 12  1  0  0  0  0
 11 13  1  0  0  0  0
 11 14  1  0  0  0  0
 14 15  1  0  0  0  0
 14 16  1  0  0  0  0
 14 17  1  0  0  0  0
 17 18  1  0  0  0  0
 17 19  1  0  0  0  0
 17 20  1  0  0  0  0
 20 21  1  0  0  0  0
 20 22  1  0  0  0  0
 20 23  1  0  0  0  0
M  END
> <VConfSearch Rank>
830

> <Conf_Id>
85

> <Delta U+W>
1.193

> <U+W>
-7.189

> <U>
48.775

> <W>
-55.965

> <W(PB)>
-58.038

> <W(SA)>
2.073

> <Valence>
2.602

> <Coulomb>
45.581

> <VdW>
0.592

> <VdW6>
-6.616

> <VdW12>
7.208

> <Bond>
0.196

> <Angle>
0.832

> <Pdih>
1.574

> <Idih>
0.000

> <Tether>
0.000

$$$$
VeraChem MOL file


 23 22  0  0  0  0  0  0  0  0999 V2000     
   21.7843   18.9948   22.7763 N   0  3  0  0  0  0  0  0  0  0  0  0
   21.0167   18.4682   23.2055 H   0  0  0  0  0  0  0  0  0  0  0  0
   22.3865   19.3334   23.5346 H   0  0  0  0  0  0  0  0  0  0  0  0
   22.3405   18.3319   22.2267 H   0  0  0  0  0  0  0  0  0  0  0  0
   21.2622   20.1331   21.9211 C   0  0  0  0  0  0  0  0  0  0  0  0
   22.1336   20.6419   21.5002 H   0  0  0  0  0  0  0  0  0  0  0  0
   20.7341   20.8414   22.5650 H   0  0  0  0  0  0  0  0  0  0  0  0
   20.3390   19.6812   20.7712 C   0  0  0  0  0  0  0  0  0  0  0  0
   20.3452   20.4711   20.0083 H   0  0  0  0  0  0  0  0  0  0  0  0
   20.7613   18.7924   20.2837 H   0  0  0  0  0  0  0  0  0  0  0  0
   18.8618   19.4206   21.1711 C   0  0  0  0  0  0  0  0  0  0  0  0
   18.3138   19.1635   20.2539 H   0  0  0  0  0  0  0  0  0  0  0  0
   18.4026   20.3497   21.5363 H   0  0  0  0  0  0  0  0  0  0  0  0
   18.6439   18.2783   22.1962 C   0  0  0  0  0  0  0  0  0  0  0  0
   17.7116   17.7548   21.9424 H   0  0  0  0  0  0  0  0  0  0  0  0
   19.4393   17.5272   22.1017 H   0  0  0  0  0  0  0  0  0  0  0  0
   18.5230   18.7832   23.6548 C   0  0  0  0  0  0  0  0  0  0  0  0
   17.6180   19.3997   23.7507 H   0  0  0  0  0  0  0  0  0  0  0  0
   19.3628   19.4373   23.9178 H   0  0  0  0  0  0  0  0  0  0  0  0
   18.4481   17.6138   24.6592 C   0  0  0  0  0  0  0  0  0  0  0  0
   17.5827   16.9711   24.4512 H   0  0  0  0  0  0  0  0  0  0  0  0
   18.3477   17.9904   25.6855 H   0  0  0  0  0  0  0  0  0  0  0  0
   19.3520   16.9926   24.6156 H   0  0  0  0  0  0  0  0  0  0  0  0
  1  2  1  0  0  0  0
  1  3  1  0  0  0  0
  1  4  1  0  0  0  0
  1  5  1  0  0  0  0
  5  6  1  0  0  0  0
  5  7  1  0  0  0  0
  5  8  1  0  0  0  0
  8  9  1  0  0  0  0
  8 10  1  0  0  0  0
  8 11  1  0  0  0  0
 11 12  1  0  0  0  0
 11 13  1  0  0  0  0
 11 14  1  0  0  0  0
 14 15  1  0  0  0  0
 14 16  1  0  0  0  0
 14 17  1  0  0  0  0
 17 18  1  0  0  0  0
 17 19  1  0  0  0  0
 17 20  1  0  0  0  0
 20 21  1  0  0  0  0
 20 22  1  0  0  0  0
 20 23  1  0  0  0  0
M  END
> <VConfSearch Rank>
831

> <Conf_Id>
82

> <Delta U+W>
5.994

> <U+W>
-2.388

> <U>
52.836

> <W>
-55.224

> <W(PB)>
-57.261

> <W(SA)>
2.037

> <Valence>
5.785

> <Coulomb>
46.744

> <VdW>
0.307

> <VdW6>
-7.672

> <VdW12>
7.979

> <Bond>
0.217

> <Angle>
1.470

> <Pdih>
4.098

> <Idih>
0.000

> <Tether>
0.000

$$$$
VeraChem MOL file


 23 22  0  0  0  0  0  0  0  0999 V2000     
   19.3492   19.2116   20.5663 N   0  3  0  0  0  0  0  0  0  0  0  0
   19.1599   20.1620   20.2319 H   0  0  0  0  0  0  0  0  0  0  0  0
   19.5252   18.6329   19.7378 H   0  0  0  0  0  0  0  0  0  0  0  0
   20.2187   19.2453   21.1079 H   0  0  0  0  0  0  0  0  0  0  0  0
   18.2019   18.6706   21.3974 C   0  0  0  0  0  0  0  0  0  0  0  0
   18.4257   17.6364   21.6723 H   0  0  0  0  0  0  0  0  0  0  0  0
   17.3167   18.6670   20.7556 H   0  0  0  0  0  0  0  0  0  0  0  0
   17.9015   19.4966   22.6647 C   0  0  0  0  0  0  0  0  0  0  0  0
   17.9337   20.5679   22.4257 H   0  0  0  0  0  0  0  0  0  0  0  0
   16.8648   19.2881   22.9609 H   0  0  0  0  0  0  0  0  0  0  0  0
   18.8127   19.1933   23.8845 C   0  0  0  0  0  0  0  0  0  0  0  0
   18.6771   18.1507   24.2038 H   0  0  0  0  0  0  0  0  0  0  0  0
   18.4534   19.8059   24.7230 H   0  0  0  0  0  0  0  0  0  0  0  0
   20.3188   19.4975   23.6790 C   0  0  0  0  0  0  0  0  0  0  0  0
   20.4457   20.3113   22.9528 H   0  0  0  0  0  0  0  0  0  0  0  0
   20.7299   19.8784   24.6243 H   0  0  0  0  0  0  0  0  0  0  0  0
   21.1422   18.2514   23.2710 C   0  0  0  0  0  0  0  0  0  0  0  0
   20.6892   17.7420   22.4122 H   0  0  0  0  0  0  0  0  0  0  0  0
   21.1302   17.5239   24.0949 H   0  0  0  0  0  0  0  0  0  0  0  0
   22.6043   18.6171   22.9392 C   0  0  0  0  0  0  0  0  0  0  0  0
   22.6584   19.3189   22.0969 H   0  0  0  0  0  0  0  0  0  0  0  0
   23.1759   17.7201   22.6671 H   0  0  0  0  0  0  0  0  0  0  0  0
   23.0994   19.0817   23.8019 H   0  0  0  0  0  0  0  0  0  0  0  0
  1  2  1  0  0  0  0
  1  3  1  0  0  0  0
  1  4  1  0  0  0  0
  1  5  1  0  0  0  0
  5  6  1  0  0  0  0
  5  7  1  0  0  0  0
  5  8  1  0  0  0  0
  8  9  1  0  0  0  0
  8 10  1  0  0  0  0
  8 11  1  0  0  0  0
 11 12  1  0  0  0  0
 11 13  1  0  0  0  0
 11 14  1  0  0  0  0
 14 15  1  0  0  0  0
 14 16  1  0  0  0  0
 14 17  1  0  0  0  0
 17 18  1  0  0  0  0
 17 19  1  0  0  0  0
 17 20  1  0  0  0  0
 20 21  1  0  0  0  0
 20 22  1  0  0  0  0
 20 23  1  0  0  0  0
M  END
> <VConfSearch Rank>
832

> <Conf_Id>
5

> <Delta U+W>
6.087

> <U+W>
-2.295

> <U>
52.836

> <W>
-55.131

> <W(PB)>
-57.202

> <W(SA)>
2.071

> <Valence>
5.785

> <Coulomb>
46.744

> <VdW>
0.307

> <VdW6>
-7.672

> <VdW12>
7.980

> <Bond>
0.217

> <Angle>
1.470

> <Pdih>
4.098

> <Idih>
0.000

> <Tether>
0.000

$$$$
VeraChem MOL file


 23 22  0  0  0  0  0  0  0  0999 V2000     
   16.1988   19.6352   21.3335 N   0  3  0  0  0  0  0  0  0  0  0  0
   16.3947   20.5321   20.8773 H   0  0  0  0  0  0  0  0  0  0  0  0
   15.2379   19.6852   21.6886 H   0  0  0  0  0  0  0  0  0  0  0  0
   16.2091   18.9165   20.6026 H   0  0  0  0  0  0  0  0  0  0  0  0
   17.1918   19.3334   22.4375 C   0  0  0  0  0  0  0  0  0  0  0  0
   16.9069   18.3831   22.8972 H   0  0  0  0  0  0  0  0  0  0  0  0
   17.1064   20.1197   23.1925 H   0  0  0  0  0  0  0  0  0  0  0  0
   18.6449   19.2517   21.9369 C   0  0  0  0  0  0  0  0  0  0  0  0
   18.7225   18.4720   21.1674 H   0  0  0  0  0  0  0  0  0  0  0  0
   18.9211   20.2024   21.4615 H   0  0  0  0  0  0  0  0  0  0  0  0
   19.6241   18.9431   23.0910 C   0  0  0  0  0  0  0  0  0  0  0  0
   19.3411   17.9939   23.5674 H   0  0  0  0  0  0  0  0  0  0  0  0
   19.5396   19.7225   23.8612 H   0  0  0  0  0  0  0  0  0  0  0  0
   21.0870   18.8586   22.5993 C   0  0  0  0  0  0  0  0  0  0  0  0
   21.1717   18.0792   21.8293 H   0  0  0  0  0  0  0  0  0  0  0  0
   21.3701   19.8076   22.1230 H   0  0  0  0  0  0  0  0  0  0  0  0
   22.0661   18.5501   23.7538 C   0  0  0  0  0  0  0  0  0  0  0  0
   21.7885   17.6002   24.2321 H   0  0  0  0  0  0  0  0  0  0  0  0
   21.9869   19.3284   24.5257 H   0  0  0  0  0  0  0  0  0  0  0  0
   23.5258   18.4665   23.2590 C   0  0  0  0  0  0  0  0  0  0  0  0
   24.2056   18.2469   24.0924 H   0  0  0  0  0  0  0  0  0  0  0  0
   23.8439   19.4145   22.8058 H   0  0  0  0  0  0  0  0  0  0  0  0
   23.6439   17.6728   22.5099 H   0  0  0  0  0  0  0  0  0  0  0  0
  1  2  1  0  0  0  0
  1  3  1  0  0  0  0
  1  4  1  0  0  0  0
  1  5  1  0  0  0  0
  5  6  1  0  0  0  0
  5  7  1  0  0  0  0
  5  8  1  0  0  0  0
  8  9  1  0  0  0  0
  8 10  1  0  0  0  0
  8 11  1  0  0  0  0
 11 12  1  0  0  0  0
 11 13  1  0  0  0  0
 11 14  1  0  0  0  0
 14 15  1  0  0  0  0
 14 16  1  0  0  0  0
 14 17  1  0  0  0  0
 17 18  1  0  0  0  0
 17 19  1  0  0  0  0
 17 20  1  0  0  0  0
 20 21  1  0  0  0  0
 20 22  1  0  0  0  0
 20 23  1  0  0  0  0
M  END
> <VConfSearch Rank>
833

> <Conf_Id>
40

> <Delta U+W>
0.000

> <U+W>
-8.382

> <U>
46.604

> <W>
-54.986

> <W(PB)>
-57.162

> <W(SA)>
2.176

> <Valence>
1.727

> <Coulomb>
44.434

> <VdW>
0.443

> <VdW6>
-4.623

> <VdW12>
5.066

> <Bond>
0.112

> <Angle>
0.386

> <Pdih>
1.228

> <Idih>
0.000

> <Tether>
0.000

$$$$
VeraChem MOL file


 23 22  0  0  0  0  0  0  0  0999 V2000     
   21.2947   21.9345   24.0048 N   0  3  0  0  0  0  0  0  0  0  0  0
   21.5057   22.6138   23.2667 H   0  0  0  0  0  0  0  0  0  0  0  0
   22.1812   21.4945   24.2720 H   0  0  0  0  0  0  0  0  0  0  0  0
   20.9704   22.4692   24.8178 H   0  0  0  0  0  0  0  0  0  0  0  0
   20.2689   20.9133   23.5570 C   0  0  0  0  0  0  0  0  0  0  0  0
   19.3450   21.4461   23.3163 H   0  0  0  0  0  0  0  0  0  0  0  0
   20.0716   20.2454   24.3993 H   0  0  0  0  0  0  0  0  0  0  0  0
   20.7271   20.0933   22.3359 C   0  0  0  0  0  0  0  0  0  0  0  0
   20.9669   20.7806   21.5137 H   0  0  0  0  0  0  0  0  0  0  0  0
   21.6544   19.5569   22.5775 H   0  0  0  0  0  0  0  0  0  0  0  0
   19.6557   19.0877   21.8516 C   0  0  0  0  0  0  0  0  0  0  0  0
   20.0110   18.6303   20.9192 H   0  0  0  0  0  0  0  0  0  0  0  0
   18.7324   19.6284   21.6015 H   0  0  0  0  0  0  0  0  0  0  0  0
   19.3484   17.9791   22.8904 C   0  0  0  0  0  0  0  0  0  0  0  0
   20.2681   17.4254   23.1245 H   0  0  0  0  0  0  0  0  0  0  0  0
   19.0167   18.4386   23.8308 H   0  0  0  0  0  0  0  0  0  0  0  0
   18.2533   16.9877   22.4273 C   0  0  0  0  0  0  0  0  0  0  0  0
   17.3274   17.5351   22.2018 H   0  0  0  0  0  0  0  0  0  0  0  0
   18.0151   16.3123   23.2609 H   0  0  0  0  0  0  0  0  0  0  0  0
   18.6672   16.1387   21.2037 C   0  0  0  0  0  0  0  0  0  0  0  0
   18.7948   16.7575   20.3070 H   0  0  0  0  0  0  0  0  0  0  0  0
   17.8977   15.3888   20.9790 H   0  0  0  0  0  0  0  0  0  0  0  0
   19.6087   15.6067   21.3922 H   0  0  0  0  0  0  0  0  0  0  0  0
  1  2  1  0  0  0  0
  1  3  1  0  0  0  0
  1  4  1  0  0  0  0
  1  5  1  0  0  0  0
  5  6  1  0  0  0  0
  5  7  1  0  0  0  0
  5  8  1  0  0  0  0
  8  9  1  0  0  0  0
  8 10  1  0  0  0  0
  8 11  1  0  0  0  0
 11 12  1  0  0  0  0
 11 13  1  0  0  0  0
 11 14  1  0  0  0  0
 14 15  1  0  0  0  0
 14 16  1  0  0  0  0
 14 17  1  0  0  0  0
 17 18  1  0  0  0  0
 17 19  1  0  0  0  0
 17 20  1  0  0  0  0
 20 21  1  0  0  0  0
 20 22  1  0  0  0  0
 20 23  1  0  0  0  0
M  END
> <VConfSearch Rank>
834

> <Conf_Id>
65

> <Delta U+W>
1.004

> <U+W>
-7.378

> <U>
48.047

> <W>
-55.425

> <W(PB)>
-57.542

> <W(SA)>
2.116

> <Valence>
2.583

> <Coulomb>
44.791

> <VdW>
0.673

> <VdW6>
-5.788

> <VdW12>
6.462

> <Bond>
0.177

> <Angle>
0.787

> <Pdih>
1.619

> <Idih>
0.000

> <Tether>
0.000

$$$$
VeraChem MOL file


 23 22  0  0  0  0  0  0  0  0999 V2000     
   22.1592   16.5147   23.4899 N   0  3  0  0  0  0  0  0  0  0  0  0
   22.4410   15.9842   22.6593 H   0  0  0  0  0  0  0  0  0  0  0  0
   22.0899   15.8437   24.2625 H   0  0  0  0  0  0  0  0  0  0  0  0
   22.9298   17.1516   23.7167 H   0  0  0  0  0  0  0  0  0  0  0  0
   20.8571   17.2580   23.2712 C   0  0  0  0  0  0  0  0  0  0  0  0
   20.6047   17.7721   24.2021 H   0  0  0  0  0  0  0  0  0  0  0  0
   20.0779   16.5197   23.0633 H   0  0  0  0  0  0  0  0  0  0  0  0
   20.9293   18.2743   22.1158 C   0  0  0  0  0  0  0  0  0  0  0  0
   21.7110   19.0168   22.3247 H   0  0  0  0  0  0  0  0  0  0  0  0
   21.2300   17.7514   21.1982 H   0  0  0  0  0  0  0  0  0  0  0  0
   19.5829   18.9936   21.8638 C   0  0  0  0  0  0  0  0  0  0  0  0
   18.8050   18.2489   21.6454 H   0  0  0  0  0  0  0  0  0  0  0  0
   19.6865   19.6095   20.9611 H   0  0  0  0  0  0  0  0  0  0  0  0
   19.1370   19.8835   23.0520 C   0  0  0  0  0  0  0  0  0  0  0  0
   19.0575   19.2714   23.9599 H   0  0  0  0  0  0  0  0  0  0  0  0
   19.9060   20.6412   23.2564 H   0  0  0  0  0  0  0  0  0  0  0  0
   17.7743   20.5810   22.8216 C   0  0  0  0  0  0  0  0  0  0  0  0
   17.4795   21.0919   23.7490 H   0  0  0  0  0  0  0  0  0  0  0  0
   16.9988   19.8270   22.6270 H   0  0  0  0  0  0  0  0  0  0  0  0
   17.7963   21.6137   21.6717 C   0  0  0  0  0  0  0  0  0  0  0  0
   17.9624   21.1329   20.6999 H   0  0  0  0  0  0  0  0  0  0  0  0
   18.5860   22.3603   21.8263 H   0  0  0  0  0  0  0  0  0  0  0  0
   16.8380   22.1461   21.6157 H   0  0  0  0  0  0  0  0  0  0  0  0
  1  2  1  0  0  0  0
  1  3  1  0  0  0  0
  1  4  1  0  0  0  0
  1  5  1  0  0  0  0
  5  6  1  0  0  0  0
  5  7  1  0  0  0  0
  5  8  1  0  0  0  0
  8  9  1  0  0  0  0
  8 10  1  0  0  0  0
  8 11  1  0  0  0  0
 11 12  1  0  0  0  0
 11 13  1  0  0  0  0
 11 14  1  0  0  0  0
 14 15  1  0  0  0  0
 14 16  1  0  0  0  0
 14 17  1  0  0  0  0
 17 18  1  0  0  0  0
 17 19  1  0  0  0  0
 17 20  1  0  0  0  0
 20 21  1  0  0  0  0
 20 22  1  0  0  0  0
 20 23  1  0  0  0  0
M  END
> <VConfSearch Rank>
835

> <Conf_Id>
92

> <Delta U+W>
0.973

> <U+W>
-7.409

> <U>
48.047

> <W>
-55.456

> <W(PB)>
-57.595

> <W(SA)>
2.138

> <Valence>
2.583

> <Coulomb>
44.791

> <VdW>
0.674

> <VdW6>
-5.789

> <VdW12>
6.462

> <Bond>
0.177

> <Angle>
0.787

> <Pdih>
1.619

> <Idih>
0.000

> <Tether>
0.000

$$$$
VeraChem MOL file


 23 22  0  0  0  0  0  0  0  0999 V2000     
   18.2047   15.7914   22.6893 N   0  3  0  0  0  0  0  0  0  0  0  0
   17.5164   15.5541   23.4117 H   0  0  0  0  0  0  0  0  0  0  0  0
   18.8262   14.9819   22.5929 H   0  0  0  0  0  0  0  0  0  0  0  0
   17.6909   15.8836   21.8070 H   0  0  0  0  0  0  0  0  0  0  0  0
   18.9694   17.0535   23.0329 C   0  0  0  0  0  0  0  0  0  0  0  0
   19.4671   16.8956   23.9935 H   0  0  0  0  0  0  0  0  0  0  0  0
   18.2445   17.8632   23.1498 H   0  0  0  0  0  0  0  0  0  0  0  0
   20.0122   17.4367   21.9659 C   0  0  0  0  0  0  0  0  0  0  0  0
   20.7073   16.5981   21.8264 H   0  0  0  0  0  0  0  0  0  0  0  0
   19.5123   17.5944   21.0009 H   0  0  0  0  0  0  0  0  0  0  0  0
   20.8200   18.7002   22.3457 C   0  0  0  0  0  0  0  0  0  0  0  0
   21.6019   18.8585   21.5900 H   0  0  0  0  0  0  0  0  0  0  0  0
   21.3396   18.5300   23.2990 H   0  0  0  0  0  0  0  0  0  0  0  0
   19.9456   19.9732   22.4475 C   0  0  0  0  0  0  0  0  0  0  0  0
   19.4021   20.1218   21.5041 H   0  0  0  0  0  0  0  0  0  0  0  0
   19.1895   19.8476   23.2340 H   0  0  0  0  0  0  0  0  0  0  0  0
   20.7927   21.2279   22.7555 C   0  0  0  0  0  0  0  0  0  0  0  0
   21.5481   21.3683   21.9696 H   0  0  0  0  0  0  0  0  0  0  0  0
   21.3392   21.0843   23.6982 H   0  0  0  0  0  0  0  0  0  0  0  0
   19.9195   22.4966   22.8581 C   0  0  0  0  0  0  0  0  0  0  0  0
   19.3857   22.6855   21.9176 H   0  0  0  0  0  0  0  0  0  0  0  0
   20.5384   23.3765   23.0766 H   0  0  0  0  0  0  0  0  0  0  0  0
   19.1759   22.4004   23.6599 H   0  0  0  0  0  0  0  0  0  0  0  0
  1  2  1  0  0  0  0
  1  3  1  0  0  0  0
  1  4  1  0  0  0  0
  1  5  1  0  0  0  0
  5  6  1  0  0  0  0
  5  7  1  0  0  0  0
  5  8  1  0  0  0  0
  8  9  1  0  0  0  0
  8 10  1  0  0  0  0
  8 11  1  0  0  0  0
 11 12  1  0  0  0  0
 11 13  1  0  0  0  0
 11 14  1  0  0  0  0
 14 15  1  0  0  0  0
 14 16  1  0  0  0  0
 14 17  1  0  0  0  0
 17 18  1  0  0  0  0
 17 19  1  0  0  0  0
 17 20  1  0  0  0  0
 20 21  1  0  0  0  0
 20 22  1  0  0  0  0
 20 23  1  0  0  0  0
M  END
> <VConfSearch Rank>
836

> <Conf_Id>
42

> <Delta U+W>
0.365

> <U+W>
-8.017

> <U>
47.375

> <W>
-55.392

> <W(PB)>
-57.543

> <W(SA)>
2.152

> <Valence>
2.032

> <Coulomb>
44.843

> <VdW>
0.499

> <VdW6>
-5.218

> <VdW12>
5.717

> <Bond>
0.135

> <Angle>
0.514

> <Pdih>
1.383

> <Idih>
0.000

> <Tether>
0.000

$$$$
VeraChem MOL file


 23 22  0  0  0  0  0  0  0  0999 V2000     
   21.2283   19.8199   25.3077 N   0  3  0  0  0  0  0  0  0  0  0  0
   20.5113   19.3925   25.9025 H   0  0  0  0  0  0  0  0  0  0  0  0
   21.7715   20.4541   25.9032 H   0  0  0  0  0  0  0  0  0  0  0  0
   21.8621   19.0714   25.0119 H   0  0  0  0  0  0  0  0  0  0  0  0
   20.6194   20.5444   24.1228 C   0  0  0  0  0  0  0  0  0  0  0  0
   21.4313   20.9952   23.5457 H   0  0  0  0  0  0  0  0  0  0  0  0
   19.9929   21.3500   24.5152 H   0  0  0  0  0  0  0  0  0  0  0  0
   19.7717   19.6399   23.2071 C   0  0  0  0  0  0  0  0  0  0  0  0
   18.9738   19.1669   23.7947 H   0  0  0  0  0  0  0  0  0  0  0  0
   19.2841   20.2804   22.4620 H   0  0  0  0  0  0  0  0  0  0  0  0
   20.6148   18.5607   22.4852 C   0  0  0  0  0  0  0  0  0  0  0  0
   21.1847   17.9858   23.2268 H   0  0  0  0  0  0  0  0  0  0  0  0
   21.3584   19.0505   21.8413 H   0  0  0  0  0  0  0  0  0  0  0  0
   19.7842   17.5588   21.6418 C   0  0  0  0  0  0  0  0  0  0  0  0
   20.4834   16.8236   21.2199 H   0  0  0  0  0  0  0  0  0  0  0  0
   19.1103   16.9850   22.2928 H   0  0  0  0  0  0  0  0  0  0  0  0
   18.9883   18.1930   20.4717 C   0  0  0  0  0  0  0  0  0  0  0  0
   18.9917   17.4917   19.6255 H   0  0  0  0  0  0  0  0  0  0  0  0
   19.4936   19.1006   20.1131 H   0  0  0  0  0  0  0  0  0  0  0  0
   17.5152   18.5018   20.8278 C   0  0  0  0  0  0  0  0  0  0  0  0
   16.9818   17.5864   21.1150 H   0  0  0  0  0  0  0  0  0  0  0  0
   16.9937   18.9331   19.9635 H   0  0  0  0  0  0  0  0  0  0  0  0
   17.4309   19.2143   21.6557 H   0  0  0  0  0  0  0  0  0  0  0  0
  1  2  1  0  0  0  0
  1  3  1  0  0  0  0
  1  4  1  0  0  0  0
  1  5  1  0  0  0  0
  5  6  1  0  0  0  0
  5  7  1  0  0  0  0
  5  8  1  0  0  0  0
  8  9  1  0  0  0  0
  8 10  1  0  0  0  0
  8 11  1  0  0  0  0
 11 12  1  0  0  0  0
 11 13  1  0  0  0  0
 11 14  1  0  0  0  0
 14 15  1  0  0  0  0
 14 16  1  0  0  0  0
 14 17  1  0  0  0  0
 17 18  1  0  0  0  0
 17 19  1  0  0  0  0
 17 20  1  0  0  0  0
 20 21  1  0  0  0  0
 20 22  1  0  0  0  0
 20 23  1  0  0  0  0
M  END
> <VConfSearch Rank>
837

> <Conf_Id>
3

> <Delta U+W>
3.283

> <U+W>
-5.099

> <U>
50.701

> <W>
-55.800

> <W(PB)>
-57.867

> <W(SA)>
2.067

> <Valence>
4.880

> <Coulomb>
45.095

> <VdW>
0.726

> <VdW6>
-6.620

> <VdW12>
7.346

> <Bond>
0.222

> <Angle>
1.260

> <Pdih>
3.398

> <Idih>
0.000

> <Tether>
0.000

$$$$
VeraChem MOL file


 23 22  0  0  0  0  0  0  0  0999 V2000     
   20.5053   18.6568   19.7913 N   0  3  0  0  0  0  0  0  0  0  0  0
   20.8882   19.4936   19.3399 H   0  0  0  0  0  0  0  0  0  0  0  0
   20.5341   17.9025   19.0971 H   0  0  0  0  0  0  0  0  0  0  0  0
   21.1492   18.3970   20.5447 H   0  0  0  0  0  0  0  0  0  0  0  0
   19.1007   18.8904   20.3116 C   0  0  0  0  0  0  0  0  0  0  0  0
   18.7418   17.9561   20.7507 H   0  0  0  0  0  0  0  0  0  0  0  0
   18.4640   19.1280   19.4551 H   0  0  0  0  0  0  0  0  0  0  0  0
   19.0051   20.0270   21.3500 C   0  0  0  0  0  0  0  0  0  0  0  0
   19.3196   20.9683   20.8800 H   0  0  0  0  0  0  0  0  0  0  0  0
   17.9515   20.1620   21.6286 H   0  0  0  0  0  0  0  0  0  0  0  0
   19.8451   19.7897   22.6305 C   0  0  0  0  0  0  0  0  0  0  0  0
   19.7370   20.6710   23.2759 H   0  0  0  0  0  0  0  0  0  0  0  0
   20.9108   19.7286   22.3728 H   0  0  0  0  0  0  0  0  0  0  0  0
   19.4206   18.5202   23.4120 C   0  0  0  0  0  0  0  0  0  0  0  0
   18.3612   18.5955   23.6931 H   0  0  0  0  0  0  0  0  0  0  0  0
   19.5053   17.6412   22.7597 H   0  0  0  0  0  0  0  0  0  0  0  0
   20.2732   18.2624   24.6781 C   0  0  0  0  0  0  0  0  0  0  0  0
   21.3333   18.1753   24.4016 H   0  0  0  0  0  0  0  0  0  0  0  0
   19.9863   17.2904   25.1033 H   0  0  0  0  0  0  0  0  0  0  0  0
   20.1068   19.3481   25.7657 C   0  0  0  0  0  0  0  0  0  0  0  0
   19.0508   19.4779   26.0359 H   0  0  0  0  0  0  0  0  0  0  0  0
   20.4987   20.3170   25.4328 H   0  0  0  0  0  0  0  0  0  0  0  0
   20.6534   19.0672   26.6752 H   0  0  0  0  0  0  0  0  0  0  0  0
  1  2  1  0  0  0  0
  1  3  1  0  0  0  0
  1  4  1  0  0  0  0
  1  5  1  0  0  0  0
  5  6  1  0  0  0  0
  5  7  1  0  0  0  0
  5  8  1  0  0  0  0
  8  9  1  0  0  0  0
  8 10  1  0  0  0  0
  8 11  1  0  0  0  0
 11 12  1  0  0  0  0
 11 13  1  0  0  0  0
 11 14  1  0  0  0  0
 14 15  1  0  0  0  0
 14 16  1  0  0  0  0
 14 17  1  0  0  0  0
 17 18  1  0  0  0  0
 17 19  1  0  0  0  0
 17 20  1  0  0  0  0
 20 21  1  0  0  0  0
 20 22  1  0  0  0  0
 20 23  1  0  0  0  0
M  END
> <VConfSearch Rank>
838

> <Conf_Id>
83

> <Delta U+W>
1.229

> <U+W>
-7.154

> <U>
48.727

> <W>
-55.880

> <W(PB)>
-57.960

> <W(SA)>
2.080

> <Valence>
2.671

> <Coulomb>
45.371

> <VdW>
0.684

> <VdW6>
-6.511

> <VdW12>
7.195

> <Bond>
0.203

> <Angle>
0.915

> <Pdih>
1.554

> <Idih>
0.000

> <Tether>
0.000

$$$$
VeraChem MOL file


 23 22  0  0  0  0  0  0  0  0999 V2000     
   19.7094   21.8079   21.7217 N   0  3  0  0  0  0  0  0  0  0  0  0
   19.9700   22.4655   22.4635 H   0  0  0  0  0  0  0  0  0  0  0  0
   18.8460   21.3429   22.0182 H   0  0  0  0  0  0  0  0  0  0  0  0
   19.4811   22.3671   20.8928 H   0  0  0  0  0  0  0  0  0  0  0  0
   20.8147   20.8091   21.4407 C   0  0  0  0  0  0  0  0  0  0  0  0
   21.6893   21.3687   21.0980 H   0  0  0  0  0  0  0  0  0  0  0  0
   20.4867   20.1612   20.6239 H   0  0  0  0  0  0  0  0  0  0  0  0
   21.2028   19.9532   22.6638 C   0  0  0  0  0  0  0  0  0  0  0  0
   22.0416   19.3013   22.3857 H   0  0  0  0  0  0  0  0  0  0  0  0
   21.5788   20.6128   23.4571 H   0  0  0  0  0  0  0  0  0  0  0  0
   20.0471   19.0866   23.2250 C   0  0  0  0  0  0  0  0  0  0  0  0
   19.2320   19.7326   23.5770 H   0  0  0  0  0  0  0  0  0  0  0  0
   20.4198   18.5554   24.1103 H   0  0  0  0  0  0  0  0  0  0  0  0
   19.4990   18.0622   22.1989 C   0  0  0  0  0  0  0  0  0  0  0  0
   19.1483   18.5908   21.3029 H   0  0  0  0  0  0  0  0  0  0  0  0
   20.3102   17.3988   21.8687 H   0  0  0  0  0  0  0  0  0  0  0  0
   18.3263   17.2114   22.7442 C   0  0  0  0  0  0  0  0  0  0  0  0
   17.9243   16.6002   21.9241 H   0  0  0  0  0  0  0  0  0  0  0  0
   17.5073   17.8695   23.0663 H   0  0  0  0  0  0  0  0  0  0  0  0
   18.7307   16.2768   23.9071 C   0  0  0  0  0  0  0  0  0  0  0  0
   19.5707   15.6307   23.6209 H   0  0  0  0  0  0  0  0  0  0  0  0
   17.8904   15.6290   24.1888 H   0  0  0  0  0  0  0  0  0  0  0  0
   19.0214   16.8446   24.7995 H   0  0  0  0  0  0  0  0  0  0  0  0
  1  2  1  0  0  0  0
  1  3  1  0  0  0  0
  1  4  1  0  0  0  0
  1  5  1  0  0  0  0
  5  6  1  0  0  0  0
  5  7  1  0  0  0  0
  5  8  1  0  0  0  0
  8  9  1  0  0  0  0
  8 10  1  0  0  0  0
  8 11  1  0  0  0  0
 11 12  1  0  0  0  0
 11 13  1  0  0  0  0
 11 14  1  0  0  0  0
 14 15  1  0  0  0  0
 14 16  1  0  0  0  0
 14 17  1  0  0  0  0
 17 18  1  0  0  0  0
 17 19  1  0  0  0  0
 17 20  1  0  0  0  0
 20 21  1  0  0  0  0
 20 22  1  0  0  0  0
 20 23  1  0  0  0  0
M  END
> <VConfSearch Rank>
839

> <Conf_Id>
50

> <Delta U+W>
1.252

> <U+W>
-7.130

> <U>
48.727

> <W>
-55.857

> <W(PB)>
-57.937

> <W(SA)>
2.080

> <Valence>
2.671

> <Coulomb>
45.371

> <VdW>
0.684

> <VdW6>
-6.511

> <VdW12>
7.196

> <Bond>
0.203

> <Angle>
0.915

> <Pdih>
1.554

> <Idih>
0.000

> <Tether>
0.000

$$$$
VeraChem MOL file


 23 22  0  0  0  0  0  0  0  0999 V2000     
   16.7601   20.0023   22.5277 N   0  3  0  0  0  0  0  0  0  0  0  0
   17.2232   20.7863   22.9972 H   0  0  0  0  0  0  0  0  0  0  0  0
   15.8217   19.9222   22.9337 H   0  0  0  0  0  0  0  0  0  0  0  0
   16.6388   20.2663   21.5448 H   0  0  0  0  0  0  0  0  0  0  0  0
   17.5478   18.7148   22.6727 C   0  0  0  0  0  0  0  0  0  0  0  0
   16.9760   17.9200   22.1859 H   0  0  0  0  0  0  0  0  0  0  0  0
   17.6196   18.4789   23.7379 H   0  0  0  0  0  0  0  0  0  0  0  0
   18.9601   18.7766   22.0593 C   0  0  0  0  0  0  0  0  0  0  0  0
   19.4024   17.7757   22.1157 H   0  0  0  0  0  0  0  0  0  0  0  0
   18.8830   19.0188   20.9910 H   0  0  0  0  0  0  0  0  0  0  0  0
   19.8744   19.8082   22.7682 C   0  0  0  0  0  0  0  0  0  0  0  0
   19.8820   19.6310   23.8526 H   0  0  0  0  0  0  0  0  0  0  0  0
   19.4462   20.8094   22.6261 H   0  0  0  0  0  0  0  0  0  0  0  0
   21.3261   19.8215   22.2218 C   0  0  0  0  0  0  0  0  0  0  0  0
   21.3386   19.5246   21.1641 H   0  0  0  0  0  0  0  0  0  0  0  0
   21.6899   20.8582   22.2419 H   0  0  0  0  0  0  0  0  0  0  0  0
   22.3306   18.9602   23.0295 C   0  0  0  0  0  0  0  0  0  0  0  0
   22.3863   19.3310   24.0625 H   0  0  0  0  0  0  0  0  0  0  0  0
   23.3331   19.1011   22.6018 H   0  0  0  0  0  0  0  0  0  0  0  0
   22.0069   17.4502   23.0443 C   0  0  0  0  0  0  0  0  0  0  0  0
   21.8867   17.0606   22.0252 H   0  0  0  0  0  0  0  0  0  0  0  0
   21.0889   17.2448   23.6085 H   0  0  0  0  0  0  0  0  0  0  0  0
   22.8188   16.8888   23.5245 H   0  0  0  0  0  0  0  0  0  0  0  0
  1  2  1  0  0  0  0
  1  3  1  0  0  0  0
  1  4  1  0  0  0  0
  1  5  1  0  0  0  0
  5  6  1  0  0  0  0
  5  7  1  0  0  0  0
  5  8  1  0  0  0  0
  8  9  1  0  0  0  0
  8 10  1  0  0  0  0
  8 11  1  0  0  0  0
 11 12  1  0  0  0  0
 11 13  1  0  0  0  0
 11 14  1  0  0  0  0
 14 15  1  0  0  0  0
 14 16  1  0  0  0  0
 14 17  1  0  0  0  0
 17 18  1  0  0  0  0
 17 19  1  0  0  0  0
 17 20  1  0  0  0  0
 20 21  1  0  0  0  0
 20 22  1  0  0  0  0
 20 23  1  0  0  0  0
M  END
> <VConfSearch Rank>
840

> <Conf_Id>
55

> <Delta U+W>
3.232

> <U+W>
-5.150

> <U>
50.625

> <W>
-55.776

> <W(PB)>
-57.839

> <W(SA)>
2.064

> <Valence>
4.837

> <Coulomb>
45.097

> <VdW>
0.692

> <VdW6>
-6.655

> <VdW12>
7.347

> <Bond>
0.223

> <Angle>
1.167

> <Pdih>
3.447

> <Idih>
0.000

> <Tether>
0.000

$$$$
VeraChem MOL file


 23 22  0  0  0  0  0  0  0  0999 V2000     
   21.3442   20.6430   24.8302 N   0  3  0  0  0  0  0  0  0  0  0  0
   21.8086   21.5362   24.6366 H   0  0  0  0  0  0  0  0  0  0  0  0
   21.9095   20.1608   25.5372 H   0  0  0  0  0  0  0  0  0  0  0  0
   20.4427   20.8606   25.2668 H   0  0  0  0  0  0  0  0  0  0  0  0
   21.1788   19.8088   23.5762 C   0  0  0  0  0  0  0  0  0  0  0  0
   20.7138   18.8640   23.8633 H   0  0  0  0  0  0  0  0  0  0  0  0
   22.1757   19.5921   23.1830 H   0  0  0  0  0  0  0  0  0  0  0  0
   20.3386   20.5114   22.4917 C   0  0  0  0  0  0  0  0  0  0  0  0
   19.3493   20.7773   22.8872 H   0  0  0  0  0  0  0  0  0  0  0  0
   20.8348   21.4573   22.2365 H   0  0  0  0  0  0  0  0  0  0  0  0
   20.1874   19.6700   21.1992 C   0  0  0  0  0  0  0  0  0  0  0  0
   21.1221   19.1316   20.9890 H   0  0  0  0  0  0  0  0  0  0  0  0
   20.0471   20.3610   20.3564 H   0  0  0  0  0  0  0  0  0  0  0  0
   18.9915   18.6824   21.1974 C   0  0  0  0  0  0  0  0  0  0  0  0
   18.0531   19.2440   21.3037 H   0  0  0  0  0  0  0  0  0  0  0  0
   18.9477   18.2010   20.2106 H   0  0  0  0  0  0  0  0  0  0  0  0
   19.0593   17.5867   22.2861 C   0  0  0  0  0  0  0  0  0  0  0  0
   18.9461   18.0393   23.2797 H   0  0  0  0  0  0  0  0  0  0  0  0
   20.0419   17.0951   22.2613 H   0  0  0  0  0  0  0  0  0  0  0  0
   17.9523   16.5277   22.0975 C   0  0  0  0  0  0  0  0  0  0  0  0
   18.0512   16.0202   21.1290 H   0  0  0  0  0  0  0  0  0  0  0  0
   16.9558   16.9862   22.1431 H   0  0  0  0  0  0  0  0  0  0  0  0
   18.0082   15.7642   22.8843 H   0  0  0  0  0  0  0  0  0  0  0  0
  1  2  1  0  0  0  0
  1  3  1  0  0  0  0
  1  4  1  0  0  0  0
  1  5  1  0  0  0  0
  5  6  1  0  0  0  0
  5  7  1  0  0  0  0
  5  8  1  0  0  0  0
  8  9  1  0  0  0  0
  8 10  1  0  0  0  0
  8 11  1  0  0  0  0
 11 12  1  0  0  0  0
 11 13  1  0  0  0  0
 11 14  1  0  0  0  0
 14 15  1  0  0  0  0
 14 16  1  0  0  0  0
 14 17  1  0  0  0  0
 17 18  1  0  0  0  0
 17 19  1  0  0  0  0
 17 20  1  0  0  0  0
 20 21  1  0  0  0  0
 20 22  1  0  0  0  0
 20 23  1  0  0  0  0
M  END
> <VConfSearch Rank>
841

> <Conf_Id>
93

> <Delta U+W>
2.589

> <U+W>
-5.793

> <U>
50.122

> <W>
-55.915

> <W(PB)>
-58.031

> <W(SA)>
2.115

> <Valence>
4.132

> <Coulomb>
45.536

> <VdW>
0.454

> <VdW6>
-6.262

> <VdW12>
6.715

> <Bond>
0.182

> <Angle>
1.157

> <Pdih>
2.794

> <Idih>
0.000

> <Tether>
0.000

$$$$
VeraChem MOL file


 23 22  0  0  0  0  0  0  0  0999 V2000     
   21.8525   21.1083   21.7917 N   0  3  0  0  0  0  0  0  0  0  0  0
   21.0990   21.7626   21.5576 H   0  0  0  0  0  0  0  0  0  0  0  0
   22.4186   20.9898   20.9447 H   0  0  0  0  0  0  0  0  0  0  0  0
   22.4486   21.5710   22.4856 H   0  0  0  0  0  0  0  0  0  0  0  0
   21.3158   19.7857   22.3000 C   0  0  0  0  0  0  0  0  0  0  0  0
   22.1687   19.1319   22.5009 H   0  0  0  0  0  0  0  0  0  0  0  0
   20.7241   19.3366   21.5003 H   0  0  0  0  0  0  0  0  0  0  0  0
   20.4660   19.9315   23.5777 C   0  0  0  0  0  0  0  0  0  0  0  0
   21.0933   20.3915   24.3529 H   0  0  0  0  0  0  0  0  0  0  0  0
   19.6307   20.6228   23.4044 H   0  0  0  0  0  0  0  0  0  0  0  0
   19.9351   18.5775   24.1128 C   0  0  0  0  0  0  0  0  0  0  0  0
   19.7987   18.6697   25.1993 H   0  0  0  0  0  0  0  0  0  0  0  0
   20.6936   17.7945   23.9743 H   0  0  0  0  0  0  0  0  0  0  0  0
   18.5812   18.1210   23.5095 C   0  0  0  0  0  0  0  0  0  0  0  0
   18.2775   17.1938   24.0149 H   0  0  0  0  0  0  0  0  0  0  0  0
   17.8065   18.8636   23.7452 H   0  0  0  0  0  0  0  0  0  0  0  0
   18.6068   17.8737   21.9834 C   0  0  0  0  0  0  0  0  0  0  0  0
   19.4518   17.2206   21.7245 H   0  0  0  0  0  0  0  0  0  0  0  0
   18.7542   18.8235   21.4532 H   0  0  0  0  0  0  0  0  0  0  0  0
   17.2932   17.2314   21.4888 C   0  0  0  0  0  0  0  0  0  0  0  0
   17.3241   17.0731   20.4030 H   0  0  0  0  0  0  0  0  0  0  0  0
   16.4315   17.8743   21.7112 H   0  0  0  0  0  0  0  0  0  0  0  0
   17.1252   16.2571   21.9660 H   0  0  0  0  0  0  0  0  0  0  0  0
  1  2  1  0  0  0  0
  1  3  1  0  0  0  0
  1  4  1  0  0  0  0
  1  5  1  0  0  0  0
  5  6  1  0  0  0  0
  5  7  1  0  0  0  0
  5  8  1  0  0  0  0
  8  9  1  0  0  0  0
  8 10  1  0  0  0  0
  8 11  1  0  0  0  0
 11 12  1  0  0  0  0
 11 13  1  0  0  0  0
 11 14  1  0  0  0  0
 14 15  1  0  0  0  0
 14 16  1  0  0  0  0
 14 17  1  0  0  0  0
 17 18  1  0  0  0  0
 17 19  1  0  0  0  0
 17 20  1  0  0  0  0
 20 21  1  0  0  0  0
 20 22  1  0  0  0  0
 20 23  1  0  0  0  0
M  END
> <VConfSearch Rank>
842

> <Conf_Id>
70

> <Delta U+W>
2.599

> <U+W>
-5.783

> <U>
50.122

> <W>
-55.906

> <W(PB)>
-58.010

> <W(SA)>
2.105

> <Valence>
4.132

> <Coulomb>
45.536

> <VdW>
0.454

> <VdW6>
-6.262

> <VdW12>
6.715

> <Bond>
0.182

> <Angle>
1.157

> <Pdih>
2.794

> <Idih>
0.000

> <Tether>
0.000

$$$$
VeraChem MOL file


 23 22  0  0  0  0  0  0  0  0999 V2000     
   19.8860   16.1436   22.6263 N   0  3  0  0  0  0  0  0  0  0  0  0
   20.4479   15.5857   23.2771 H   0  0  0  0  0  0  0  0  0  0  0  0
   19.5474   15.5043   21.8993 H   0  0  0  0  0  0  0  0  0  0  0  0
   19.0654   16.4754   23.1420 H   0  0  0  0  0  0  0  0  0  0  0  0
   20.6808   17.2938   22.0400 C   0  0  0  0  0  0  0  0  0  0  0  0
   20.0382   17.8253   21.3331 H   0  0  0  0  0  0  0  0  0  0  0  0
   21.5200   16.8688   21.4827 H   0  0  0  0  0  0  0  0  0  0  0  0
   21.2154   18.2788   23.0991 C   0  0  0  0  0  0  0  0  0  0  0  0
   21.8864   17.7417   23.7825 H   0  0  0  0  0  0  0  0  0  0  0  0
   21.8381   19.0320   22.6000 H   0  0  0  0  0  0  0  0  0  0  0  0
   20.1049   18.9820   23.9233 C   0  0  0  0  0  0  0  0  0  0  0  0
   20.5754   19.6897   24.6196 H   0  0  0  0  0  0  0  0  0  0  0  0
   19.5969   18.2397   24.5536 H   0  0  0  0  0  0  0  0  0  0  0  0
   19.0423   19.7332   23.0799 C   0  0  0  0  0  0  0  0  0  0  0  0
   18.4954   19.0242   22.4441 H   0  0  0  0  0  0  0  0  0  0  0  0
   18.2974   20.1624   23.7642 H   0  0  0  0  0  0  0  0  0  0  0  0
   19.6335   20.8656   22.2075 C   0  0  0  0  0  0  0  0  0  0  0  0
   20.3294   20.4494   21.4670 H   0  0  0  0  0  0  0  0  0  0  0  0
   20.2130   21.5551   22.8374 H   0  0  0  0  0  0  0  0  0  0  0  0
   18.5288   21.6518   21.4700 C   0  0  0  0  0  0  0  0  0  0  0  0
   18.9655   22.4489   20.8544 H   0  0  0  0  0  0  0  0  0  0  0  0
   17.8339   22.1179   22.1807 H   0  0  0  0  0  0  0  0  0  0  0  0
   17.9509   20.9934   20.8084 H   0  0  0  0  0  0  0  0  0  0  0  0
  1  2  1  0  0  0  0
  1  3  1  0  0  0  0
  1  4  1  0  0  0  0
  1  5  1  0  0  0  0
  5  6  1  0  0  0  0
  5  7  1  0  0  0  0
  5  8  1  0  0  0  0
  8  9  1  0  0  0  0
  8 10  1  0  0  0  0
  8 11  1  0  0  0  0
 11 12  1  0  0  0  0
 11 13  1  0  0  0  0
 11 14  1  0  0  0  0
 14 15  1  0  0  0  0
 14 16  1  0  0  0  0
 14 17  1  0  0  0  0
 17 18  1  0  0  0  0
 17 19  1  0  0  0  0
 17 20  1  0  0  0  0
 20 21  1  0  0  0  0
 20 22  1  0  0  0  0
 20 23  1  0  0  0  0
M  END
> <VConfSearch Rank>
843

> <Conf_Id>
72

> <Delta U+W>
1.051

> <U+W>
-7.331

> <U>
48.590

> <W>
-55.922

> <W(PB)>
-58.012

> <W(SA)>
2.090

> <Valence>
2.601

> <Coulomb>
45.520

> <VdW>
0.469

> <VdW6>
-6.867

> <VdW12>
7.336

> <Bond>
0.205

> <Angle>
0.962

> <Pdih>
1.434

> <Idih>
0.000

> <Tether>
0.000

$$$$
VeraChem MOL file


 23 22  0  0  0  0  0  0  0  0999 V2000     
   22.2938   18.0562   24.2025 N   0  3  0  0  0  0  0  0  0  0  0  0
   22.6441   17.1131   24.4017 H   0  0  0  0  0  0  0  0  0  0  0  0
   22.5316   18.6391   25.0114 H   0  0  0  0  0  0  0  0  0  0  0  0
   22.8317   18.4120   23.4058 H   0  0  0  0  0  0  0  0  0  0  0  0
   20.8043   18.0562   23.9246 C   0  0  0  0  0  0  0  0  0  0  0  0
   20.2972   17.6402   24.7994 H   0  0  0  0  0  0  0  0  0  0  0  0
   20.6213   17.3948   23.0738 H   0  0  0  0  0  0  0  0  0  0  0  0
   20.2464   19.4592   23.6212 C   0  0  0  0  0  0  0  0  0  0  0  0
   20.4685   20.1246   24.4659 H   0  0  0  0  0  0  0  0  0  0  0  0
   20.7637   19.8831   22.7510 H   0  0  0  0  0  0  0  0  0  0  0  0
   18.7168   19.4542   23.3775 C   0  0  0  0  0  0  0  0  0  0  0  0
   18.3798   20.4824   23.1898 H   0  0  0  0  0  0  0  0  0  0  0  0
   18.2114   19.1415   24.3016 H   0  0  0  0  0  0  0  0  0  0  0  0
   18.2445   18.5339   22.2196 C   0  0  0  0  0  0  0  0  0  0  0  0
   18.4352   17.4855   22.4858 H   0  0  0  0  0  0  0  0  0  0  0  0
   17.1532   18.6203   22.1261 H   0  0  0  0  0  0  0  0  0  0  0  0
   18.8886   18.8260   20.8404 C   0  0  0  0  0  0  0  0  0  0  0  0
   18.4901   18.1091   20.1090 H   0  0  0  0  0  0  0  0  0  0  0  0
   19.9709   18.6438   20.8804 H   0  0  0  0  0  0  0  0  0  0  0  0
   18.6193   20.2594   20.3294 C   0  0  0  0  0  0  0  0  0  0  0  0
   17.5424   20.4692   20.2929 H   0  0  0  0  0  0  0  0  0  0  0  0
   19.0212   20.3885   19.3162 H   0  0  0  0  0  0  0  0  0  0  0  0
   19.0943   21.0114   20.9716 H   0  0  0  0  0  0  0  0  0  0  0  0
  1  2  1  0  0  0  0
  1  3  1  0  0  0  0
  1  4  1  0  0  0  0
  1  5  1  0  0  0  0
  5  6  1  0  0  0  0
  5  7  1  0  0  0  0
  5  8  1  0  0  0  0
  8  9  1  0  0  0  0
  8 10  1  0  0  0  0
  8 11  1  0  0  0  0
 11 12  1  0  0  0  0
 11 13  1  0  0  0  0
 11 14  1  0  0  0  0
 14 15  1  0  0  0  0
 14 16  1  0  0  0  0
 14 17  1  0  0  0  0
 17 18  1  0  0  0  0
 17 19  1  0  0  0  0
 17 20  1  0  0  0  0
 20 21  1  0  0  0  0
 20 22  1  0  0  0  0
 20 23  1  0  0  0  0
M  END
> <VConfSearch Rank>
844

> <Conf_Id>
26

> <Delta U+W>
1.076

> <U+W>
-7.306

> <U>
48.641

> <W>
-55.947

> <W(PB)>
-58.031

> <W(SA)>
2.084

> <Valence>
2.922

> <Coulomb>
45.269

> <VdW>
0.449

> <VdW6>
-7.045

> <VdW12>
7.494

> <Bond>
0.220

> <Angle>
1.205

> <Pdih>
1.497

> <Idih>
0.000

> <Tether>
0.000

$$$$
VeraChem MOL file


 23 22  0  0  0  0  0  0  0  0999 V2000     
   17.7367   20.8220   24.0824 N   0  3  0  0  0  0  0  0  0  0  0  0
   17.9217   20.9774   25.0786 H   0  0  0  0  0  0  0  0  0  0  0  0
   16.7227   20.9037   23.9515 H   0  0  0  0  0  0  0  0  0  0  0  0
   18.1669   21.5992   23.5709 H   0  0  0  0  0  0  0  0  0  0  0  0
   18.2582   19.4788   23.6139 C   0  0  0  0  0  0  0  0  0  0  0  0
   18.0009   19.3685   22.5572 H   0  0  0  0  0  0  0  0  0  0  0  0
   17.7391   18.6992   24.1779 H   0  0  0  0  0  0  0  0  0  0  0  0
   19.7796   19.3243   23.7967 C   0  0  0  0  0  0  0  0  0  0  0  0
   20.3013   20.1143   23.2415 H   0  0  0  0  0  0  0  0  0  0  0  0
   20.0313   19.4738   24.8550 H   0  0  0  0  0  0  0  0  0  0  0  0
   20.2969   17.9339   23.3514 C   0  0  0  0  0  0  0  0  0  0  0  0
   19.8535   17.1661   24.0005 H   0  0  0  0  0  0  0  0  0  0  0  0
   21.3795   17.8804   23.5274 H   0  0  0  0  0  0  0  0  0  0  0  0
   19.9927   17.5682   21.8734 C   0  0  0  0  0  0  0  0  0  0  0  0
   20.4156   16.5761   21.6637 H   0  0  0  0  0  0  0  0  0  0  0  0
   18.9078   17.4600   21.7402 H   0  0  0  0  0  0  0  0  0  0  0  0
   20.5292   18.5725   20.8218 C   0  0  0  0  0  0  0  0  0  0  0  0
   20.0406   19.5483   20.9446 H   0  0  0  0  0  0  0  0  0  0  0  0
   20.2443   18.2175   19.8216 H   0  0  0  0  0  0  0  0  0  0  0  0
   22.0640   18.7476   20.8688 C   0  0  0  0  0  0  0  0  0  0  0  0
   22.3881   19.2040   21.8124 H   0  0  0  0  0  0  0  0  0  0  0  0
   22.4019   19.3995   20.0529 H   0  0  0  0  0  0  0  0  0  0  0  0
   22.5746   17.7820   20.7607 H   0  0  0  0  0  0  0  0  0  0  0  0
  1  2  1  0  0  0  0
  1  3  1  0  0  0  0
  1  4  1  0  0  0  0
  1  5  1  0  0  0  0
  5  6  1  0  0  0  0
  5  7  1  0  0  0  0
  5  8  1  0  0  0  0
  8  9  1  0  0  0  0
  8 10  1  0  0  0  0
  8 11  1  0  0  0  0
 11 12  1  0  0  0  0
 11 13  1  0  0  0  0
 11 14  1  0  0  0  0
 14 15  1  0  0  0  0
 14 16  1  0  0  0  0
 14 17  1  0  0  0  0
 17 18  1  0  0  0  0
 17 19  1  0  0  0  0
 17 20  1  0  0  0  0
 20 21  1  0  0  0  0
 20 22  1  0  0  0  0
 20 23  1  0  0  0  0
M  END
> <VConfSearch Rank>
845

> <Conf_Id>
90

> <Delta U+W>
1.131

> <U+W>
-7.251

> <U>
48.641

> <W>
-55.892

> <W(PB)>
-57.962

> <W(SA)>
2.070

> <Valence>
2.922

> <Coulomb>
45.269

> <VdW>
0.450

> <VdW6>
-7.045

> <VdW12>
7.495

> <Bond>
0.220

> <Angle>
1.205

> <Pdih>
1.497

> <Idih>
0.000

> <Tether>
0.000

$$$$
VeraChem MOL file


 23 22  0  0  0  0  0  0  0  0999 V2000     
   21.0578   21.2684   22.7433 N   0  3  0  0  0  0  0  0  0  0  0  0
   21.0078   22.1731   22.2629 H   0  0  0  0  0  0  0  0  0  0  0  0
   21.1877   20.5515   22.0230 H   0  0  0  0  0  0  0  0  0  0  0  0
   21.9074   21.2806   23.3165 H   0  0  0  0  0  0  0  0  0  0  0  0
   19.8197   21.0044   23.5776 C   0  0  0  0  0  0  0  0  0  0  0  0
   18.9513   21.0353   22.9145 H   0  0  0  0  0  0  0  0  0  0  0  0
   19.7243   21.8203   24.2992 H   0  0  0  0  0  0  0  0  0  0  0  0
   19.8544   19.6580   24.3291 C   0  0  0  0  0  0  0  0  0  0  0  0
   20.7028   19.6569   25.0262 H   0  0  0  0  0  0  0  0  0  0  0  0
   18.9506   19.5767   24.9475 H   0  0  0  0  0  0  0  0  0  0  0  0
   19.9518   18.4211   23.4012 C   0  0  0  0  0  0  0  0  0  0  0  0
   19.9857   17.5174   24.0250 H   0  0  0  0  0  0  0  0  0  0  0  0
   20.9013   18.4494   22.8520 H   0  0  0  0  0  0  0  0  0  0  0  0
   18.7648   18.3105   22.4111 C   0  0  0  0  0  0  0  0  0  0  0  0
   17.8226   18.3697   22.9733 H   0  0  0  0  0  0  0  0  0  0  0  0
   18.7669   19.1638   21.7198 H   0  0  0  0  0  0  0  0  0  0  0  0
   18.7679   16.9960   21.5940 C   0  0  0  0  0  0  0  0  0  0  0  0
   17.8445   16.9478   20.9999 H   0  0  0  0  0  0  0  0  0  0  0  0
   18.7399   16.1342   22.2753 H   0  0  0  0  0  0  0  0  0  0  0  0
   19.9794   16.8680   20.6428 C   0  0  0  0  0  0  0  0  0  0  0  0
   20.0451   17.7314   19.9681 H   0  0  0  0  0  0  0  0  0  0  0  0
   19.8881   15.9657   20.0243 H   0  0  0  0  0  0  0  0  0  0  0  0
   20.9223   16.7922   21.1983 H   0  0  0  0  0  0  0  0  0  0  0  0
  1  2  1  0  0  0  0
  1  3  1  0  0  0  0
  1  4  1  0  0  0  0
  1  5  1  0  0  0  0
  5  6  1  0  0  0  0
  5  7  1  0  0  0  0
  5  8  1  0  0  0  0
  8  9  1  0  0  0  0
  8 10  1  0  0  0  0
  8 11  1  0  0  0  0
 11 12  1  0  0  0  0
 11 13  1  0  0  0  0
 11 14  1  0  0  0  0
 14 15  1  0  0  0  0
 14 16  1  0  0  0  0
 14 17  1  0  0  0  0
 17 18  1  0  0  0  0
 17 19  1  0  0  0  0
 17 20  1  0  0  0  0
 20 21  1  0  0  0  0
 20 22  1  0  0  0  0
 20 23  1  0  0  0  0
M  END
> <VConfSearch Rank>
846

> <Conf_Id>
85

> <Delta U+W>
1.193

> <U+W>
-7.189

> <U>
48.775

> <W>
-55.965

> <W(PB)>
-58.038

> <W(SA)>
2.073

> <Valence>
2.602

> <Coulomb>
45.581

> <VdW>
0.592

> <VdW6>
-6.616

> <VdW12>
7.208

> <Bond>
0.196

> <Angle>
0.832

> <Pdih>
1.574

> <Idih>
0.000

> <Tether>
0.000

$$$$
VeraChem MOL file


 23 22  0  0  0  0  0  0  0  0999 V2000     
   20.8441   20.6037   22.0683 N   0  3  0  0  0  0  0  0  0  0  0  0
   19.9772   20.4253   22.5854 H   0  0  0  0  0  0  0  0  0  0  0  0
   20.6682   21.3922   21.4360 H   0  0  0  0  0  0  0  0  0  0  0  0
   21.5464   20.9159   22.7467 H   0  0  0  0  0  0  0  0  0  0  0  0
   21.3015   19.3695   21.3153 C   0  0  0  0  0  0  0  0  0  0  0  0
   22.2248   19.6371   20.7944 H   0  0  0  0  0  0  0  0  0  0  0  0
   20.5485   19.1187   20.5634 H   0  0  0  0  0  0  0  0  0  0  0  0
   21.5686   18.1474   22.2175 C   0  0  0  0  0  0  0  0  0  0  0  0
   22.2470   17.4748   21.6759 H   0  0  0  0  0  0  0  0  0  0  0  0
   22.1153   18.4622   23.1163 H   0  0  0  0  0  0  0  0  0  0  0  0
   20.3100   17.3305   22.6159 C   0  0  0  0  0  0  0  0  0  0  0  0
   20.6515   16.4677   23.2046 H   0  0  0  0  0  0  0  0  0  0  0  0
   19.8393   16.9054   21.7186 H   0  0  0  0  0  0  0  0  0  0  0  0
   19.2591   18.0995   23.4570 C   0  0  0  0  0  0  0  0  0  0  0  0
   18.8189   17.4044   24.1855 H   0  0  0  0  0  0  0  0  0  0  0  0
   19.7488   18.8809   24.0532 H   0  0  0  0  0  0  0  0  0  0  0  0
   18.1075   18.6865   22.6048 C   0  0  0  0  0  0  0  0  0  0  0  0
   17.5342   17.8636   22.1550 H   0  0  0  0  0  0  0  0  0  0  0  0
   18.4968   19.2765   21.7666 H   0  0  0  0  0  0  0  0  0  0  0  0
   17.1590   19.5608   23.4520 C   0  0  0  0  0  0  0  0  0  0  0  0
   16.7123   18.9793   24.2691 H   0  0  0  0  0  0  0  0  0  0  0  0
   16.3413   19.9556   22.8350 H   0  0  0  0  0  0  0  0  0  0  0  0
   17.6905   20.4142   23.8924 H   0  0  0  0  0  0  0  0  0  0  0  0
  1  2  1  0  0  0  0
  1  3  1  0  0  0  0
  1  4  1  0  0  0  0
  1  5  1  0  0  0  0
  5  6  1  0  0  0  0
  5  7  1  0  0  0  0
  5  8  1  0  0  0  0
  8  9  1  0  0  0  0
  8 10  1  0  0  0  0
  8 11  1  0  0  0  0
 11 12  1  0  0  0  0
 11 13  1  0  0  0  0
 11 14  1  0  0  0  0
 14 15  1  0  0  0  0
 14 16  1  0  0  0  0
 14 17  1  0  0  0  0
 17 18  1  0  0  0  0
 17 19  1  0  0  0  0
 17 20  1  0  0  0  0
 20 21  1  0  0  0  0
 20 22  1  0  0  0  0
 20 23  1  0  0  0  0
M  END
> <VConfSearch Rank>
847

> <Conf_Id>
82

> <Delta U+W>
5.994

> <U+W>
-2.388

> <U>
52.836

> <W>
-55.224

> <W(PB)>
-57.261

> <W(SA)>
2.037

> <Valence>
5.785

> <Coulomb>
46.744

> <VdW>
0.307

> <VdW6>
-7.672

> <VdW12>
7.979

> <Bond>
0.217

> <Angle>
1.470

> <Pdih>
4.098

> <Idih>
0.000

> <Tether>
0.000

$$$$
VeraChem MOL file


 23 22  0  0  0  0  0  0  0  0999 V2000     
   19.5379   17.0121   23.0958 N   0  3  0  0  0  0  0  0  0  0  0  0
   18.5811   16.7415   23.3456 H   0  0  0  0  0  0  0  0  0  0  0  0
   20.0484   16.1469   22.8881 H   0  0  0  0  0  0  0  0  0  0  0  0
   19.4857   17.5541   22.2273 H   0  0  0  0  0  0  0  0  0  0  0  0
   20.2032   17.8065   24.2029 C   0  0  0  0  0  0  0  0  0  0  0  0
   21.2373   18.0122   23.9138 H   0  0  0  0  0  0  0  0  0  0  0  0
   20.2198   17.1667   25.0894 H   0  0  0  0  0  0  0  0  0  0  0  0
   19.4831   19.1260   24.5480 C   0  0  0  0  0  0  0  0  0  0  0  0
   18.3985   18.9584   24.5838 H   0  0  0  0  0  0  0  0  0  0  0  0
   19.7751   19.4086   25.5682 H   0  0  0  0  0  0  0  0  0  0  0  0
   19.8087   20.3223   23.6136 C   0  0  0  0  0  0  0  0  0  0  0  0
   20.8766   20.5720   23.6823 H   0  0  0  0  0  0  0  0  0  0  0  0
   19.2765   21.1998   24.0062 H   0  0  0  0  0  0  0  0  0  0  0  0
   19.3980   20.1361   22.1304 C   0  0  0  0  0  0  0  0  0  0  0  0
   18.5317   19.4653   22.0581 H   0  0  0  0  0  0  0  0  0  0  0  0
   19.0554   21.1042   21.7391 H   0  0  0  0  0  0  0  0  0  0  0  0
   20.5606   19.6458   21.2330 C   0  0  0  0  0  0  0  0  0  0  0  0
   21.0395   18.7555   21.6576 H   0  0  0  0  0  0  0  0  0  0  0  0
   21.3402   20.4198   21.1955 H   0  0  0  0  0  0  0  0  0  0  0  0
   20.0830   19.3377   19.7982 C   0  0  0  0  0  0  0  0  0  0  0  0
   19.3252   18.5437   19.7922 H   0  0  0  0  0  0  0  0  0  0  0  0
   20.9226   19.0064   19.1732 H   0  0  0  0  0  0  0  0  0  0  0  0
   19.6463   20.2289   19.3287 H   0  0  0  0  0  0  0  0  0  0  0  0
  1  2  1  0  0  0  0
  1  3  1  0  0  0  0
  1  4  1  0  0  0  0
  1  5  1  0  0  0  0
  5  6  1  0  0  0  0
  5  7  1  0  0  0  0
  5  8  1  0  0  0  0
  8  9  1  0  0  0  0
  8 10  1  0  0  0  0
  8 11  1  0  0  0  0
 11 12  1  0  0  0  0
 11 13  1  0  0  0  0
 11 14  1  0  0  0  0
 14 15  1  0  0  0  0
 14 16  1  0  0  0  0
 14 17  1  0  0  0  0
 17 18  1  0  0  0  0
 17 19  1  0  0  0  0
 17 20  1  0  0  0  0
 20 21  1  0  0  0  0
 20 22  1  0  0  0  0
 20 23  1  0  0  0  0
M  END
> <VConfSearch Rank>
848

> <Conf_Id>
5

> <Delta U+W>
6.087

> <U+W>
-2.295

> <U>
52.836

> <W>
-55.131

> <W(PB)>
-57.202

> <W(SA)>
2.071

> <Valence>
5.785

> <Coulomb>
46.744

> <VdW>
0.307

> <VdW6>
-7.672

> <VdW12>
7.980

> <Bond>
0.217

> <Angle>
1.470

> <Pdih>
4.098

> <Idih>
0.000

> <Tether>
0.000

$$$$
VeraChem MOL file


 23 22  0  0  0  0  0  0  0  0999 V2000     
   22.0003   21.1816   24.8537 N   0  3  0  0  0  0  0  0  0  0  0  0
   22.8056   21.2143   24.2204 H   0  0  0  0  0  0  0  0  0  0  0  0
   22.3722   21.1963   25.8095 H   0  0  0  0  0  0  0  0  0  0  0  0
   21.4787   22.0545   24.7238 H   0  0  0  0  0  0  0  0  0  0  0  0
   21.1345   19.9631   24.6054 C   0  0  0  0  0  0  0  0  0  0  0  0
   20.3167   19.9766   25.3310 H   0  0  0  0  0  0  0  0  0  0  0  0
   21.7429   19.0735   24.7899 H   0  0  0  0  0  0  0  0  0  0  0  0
   20.5603   19.9111   23.1785 C   0  0  0  0  0  0  0  0  0  0  0  0
   19.9635   20.8140   22.9921 H   0  0  0  0  0  0  0  0  0  0  0  0
   21.3848   19.9142   22.4530 H   0  0  0  0  0  0  0  0  0  0  0  0
   19.6852   18.6559   22.9664 C   0  0  0  0  0  0  0  0  0  0  0  0
   18.8647   18.6538   23.6976 H   0  0  0  0  0  0  0  0  0  0  0  0
   20.2845   17.7550   23.1590 H   0  0  0  0  0  0  0  0  0  0  0  0
   19.1031   18.5935   21.5360 C   0  0  0  0  0  0  0  0  0  0  0  0
   18.5038   19.4942   21.3434 H   0  0  0  0  0  0  0  0  0  0  0  0
   19.9234   18.5956   20.8048 H   0  0  0  0  0  0  0  0  0  0  0  0
   18.2280   17.3380   21.3242 C   0  0  0  0  0  0  0  0  0  0  0  0
   17.4044   17.3326   22.0519 H   0  0  0  0  0  0  0  0  0  0  0  0
   18.8239   16.4340   21.5134 H   0  0  0  0  0  0  0  0  0  0  0  0
   17.6485   17.2792   19.8948 C   0  0  0  0  0  0  0  0  0  0  0  0
   17.0305   16.3814   19.7637 H   0  0  0  0  0  0  0  0  0  0  0  0
   18.4497   17.2489   19.1449 H   0  0  0  0  0  0  0  0  0  0  0  0
   17.0192   18.1545   19.6876 H   0  0  0  0  0  0  0  0  0  0  0  0
  1  2  1  0  0  0  0
  1  3  1  0  0  0  0
  1  4  1  0  0  0  0
  1  5  1  0  0  0  0
  5  6  1  0  0  0  0
  5  7  1  0  0  0  0
  5  8  1  0  0  0  0
  8  9  1  0  0  0  0
  8 10  1  0  0  0  0
  8 11  1  0  0  0  0
 11 12  1  0  0  0  0
 11 13  1  0  0  0  0
 11 14  1  0  0  0  0
 14 15  1  0  0  0  0
 14 16  1  0  0  0  0
 14 17  1  0  0  0  0
 17 18  1  0  0  0  0
 17 19  1  0  0  0  0
 17 20  1  0  0  0  0
 20 21  1  0  0  0  0
 20 22  1  0  0  0  0
 20 23  1  0  0  0  0
M  END
> <VConfSearch Rank>
849

> <Conf_Id>
40

> <Delta U+W>
0.000

> <U+W>
-8.382

> <U>
46.604

> <W>
-54.986

> <W(PB)>
-57.162

> <W(SA)>
2.176

> <Valence>
1.727

> <Coulomb>
44.434

> <VdW>
0.443

> <VdW6>
-4.623

> <VdW12>
5.066

> <Bond>
0.112

> <Angle>
0.386

> <Pdih>
1.228

> <Idih>
0.000

> <Tether>
0.000

$$$$
VeraChem MOL file


 23 22  0  0  0  0  0  0  0  0999 V2000     
   22.3392   19.3994   20.1605 N   0  3  0  0  0  0  0  0  0  0  0  0
   22.4956   20.3922   19.9587 H   0  0  0  0  0  0  0  0  0  0  0  0
   21.8170   19.0095   19.3692 H   0  0  0  0  0  0  0  0  0  0  0  0
   23.2598   18.9471   20.1619 H   0  0  0  0  0  0  0  0  0  0  0  0
   21.6106   19.1972   21.4735 C   0  0  0  0  0  0  0  0  0  0  0  0
   22.2338   19.6086   22.2721 H   0  0  0  0  0  0  0  0  0  0  0  0
   21.5073   18.1215   21.6368 H   0  0  0  0  0  0  0  0  0  0  0  0
   20.2231   19.8660   21.5026 C   0  0  0  0  0  0  0  0  0  0  0  0
   20.3382   20.9372   21.2900 H   0  0  0  0  0  0  0  0  0  0  0  0
   19.5962   19.4523   20.7014 H   0  0  0  0  0  0  0  0  0  0  0  0
   19.5050   19.6999   22.8629 C   0  0  0  0  0  0  0  0  0  0  0  0
   18.5836   20.2961   22.8397 H   0  0  0  0  0  0  0  0  0  0  0  0
   20.1301   20.1233   23.6612 H   0  0  0  0  0  0  0  0  0  0  0  0
   19.1616   18.2250   23.1934 C   0  0  0  0  0  0  0  0  0  0  0  0
   18.5193   17.8085   22.4051 H   0  0  0  0  0  0  0  0  0  0  0  0
   20.0808   17.6246   23.1921 H   0  0  0  0  0  0  0  0  0  0  0  0
   18.4726   18.0462   24.5681 C   0  0  0  0  0  0  0  0  0  0  0  0
   19.1154   18.4517   25.3619 H   0  0  0  0  0  0  0  0  0  0  0  0
   18.3720   16.9713   24.7739 H   0  0  0  0  0  0  0  0  0  0  0  0
   17.0738   18.6993   24.6467 C   0  0  0  0  0  0  0  0  0  0  0  0
   17.1333   19.7921   24.5729 H   0  0  0  0  0  0  0  0  0  0  0  0
   16.5919   18.4601   25.6035 H   0  0  0  0  0  0  0  0  0  0  0  0
   16.4217   18.3346   23.8425 H   0  0  0  0  0  0  0  0  0  0  0  0
  1  2  1  0  0  0  0
  1  3  1  0  0  0  0
  1  4  1  0  0  0  0
  1  5  1  0  0  0  0
  5  6  1  0  0  0  0
  5  7  1  0  0  0  0
  5  8  1  0  0  0  0
  8  9  1  0  0  0  0
  8 10  1  0  0  0  0
  8 11  1  0  0  0  0
 11 12  1  0  0  0  0
 11 13  1  0  0  0  0
 11 14  1  0  0  0  0
 14 15  1  0  0  0  0
 14 16  1  0  0  0  0
 14 17  1  0  0  0  0
 17 18  1  0  0  0  0
 17 19  1  0  0  0  0
 17 20  1  0  0  0  0
 20 21  1  0  0  0  0
 20 22  1  0  0  0  0
 20 23  1  0  0  0  0
M  END
> <VConfSearch Rank>
850

> <Conf_Id>
65

> <Delta U+W>
1.004

> <U+W>
-7.378

> <U>
48.047

> <W>
-55.425

> <W(PB)>
-57.542

> <W(SA)>
2.116

> <Valence>
2.583

> <Coulomb>
44.791

> <VdW>
0.673

> <VdW6>
-5.788

> <VdW12>
6.462

> <Bond>
0.177

> <Angle>
0.787

> <Pdih>
1.619

> <Idih>
0.000

> <Tether>
0.000

$$$$
VeraChem MOL file


 23 22  0  0  0  0  0  0  0  0999 V2000     
   21.2105   18.3668   25.8150 N   0  3  0  0  0  0  0  0  0  0  0  0
   21.4792   19.2448   26.2708 H   0  0  0  0  0  0  0  0  0  0  0  0
   21.9442   17.6830   26.0299 H   0  0  0  0  0  0  0  0  0  0  0  0
   20.3542   18.0390   26.2733 H   0  0  0  0  0  0  0  0  0  0  0  0
   21.0221   18.5397   24.3216 C   0  0  0  0  0  0  0  0  0  0  0  0
   20.7691   17.5633   23.9009 H   0  0  0  0  0  0  0  0  0  0  0  0
   21.9765   18.8613   23.8959 H   0  0  0  0  0  0  0  0  0  0  0  0
   19.9257   19.5619   23.9662 C   0  0  0  0  0  0  0  0  0  0  0  0
   18.9666   19.2388   24.3924 H   0  0  0  0  0  0  0  0  0  0  0  0
   20.1693   20.5247   24.4350 H   0  0  0  0  0  0  0  0  0  0  0  0
   19.7725   19.7723   22.4411 C   0  0  0  0  0  0  0  0  0  0  0  0
   20.7310   20.1049   22.0191 H   0  0  0  0  0  0  0  0  0  0  0  0
   19.0595   20.5906   22.2774 H   0  0  0  0  0  0  0  0  0  0  0  0
   19.2858   18.5021   21.6978 C   0  0  0  0  0  0  0  0  0  0  0  0
   19.9866   17.6773   21.8822 H   0  0  0  0  0  0  0  0  0  0  0  0
   18.3173   18.1821   22.1063 H   0  0  0  0  0  0  0  0  0  0  0  0
   19.1616   18.6941   20.1667 C   0  0  0  0  0  0  0  0  0  0  0  0
   18.9277   17.7230   19.7083 H   0  0  0  0  0  0  0  0  0  0  0  0
   20.1305   19.0042   19.7510 H   0  0  0  0  0  0  0  0  0  0  0  0
   18.0709   19.7106   19.7588 C   0  0  0  0  0  0  0  0  0  0  0  0
   18.3227   20.7268   20.0865 H   0  0  0  0  0  0  0  0  0  0  0  0
   17.0981   19.4406   20.1899 H   0  0  0  0  0  0  0  0  0  0  0  0
   17.9585   19.7355   18.6672 H   0  0  0  0  0  0  0  0  0  0  0  0
  1  2  1  0  0  0  0
  1  3  1  0  0  0  0
  1  4  1  0  0  0  0
  1  5  1  0  0  0  0
  5  6  1  0  0  0  0
  5  7  1  0  0  0  0
  5  8  1  0  0  0  0
  8  9  1  0  0  0  0
  8 10  1  0  0  0  0
  8 11  1  0  0  0  0
 11 12  1  0  0  0  0
 11 13  1  0  0  0  0
 11 14  1  0  0  0  0
 14 15  1  0  0  0  0
 14 16  1  0  0  0  0
 14 17  1  0  0  0  0
 17 18  1  0  0  0  0
 17 19  1  0  0  0  0
 17 20  1  0  0  0  0
 20 21  1  0  0  0  0
 20 22  1  0  0  0  0
 20 23  1  0  0  0  0
M  END
> <VConfSearch Rank>
851

> <Conf_Id>
92

> <Delta U+W>
0.973

> <U+W>
-7.409

> <U>
48.047

> <W>
-55.456

> <W(PB)>
-57.595

> <W(SA)>
2.138

> <Valence>
2.583

> <Coulomb>
44.791

> <VdW>
0.674

> <VdW6>
-5.789

> <VdW12>
6.462

> <Bond>
0.177

> <Angle>
0.787

> <Pdih>
1.619

> <Idih>
0.000

> <Tether>
0.000

$$$$
VeraChem MOL file


 23 22  0  0  0  0  0  0  0  0999 V2000     
   17.4034   20.6793   20.5803 N   0  3  0  0  0  0  0  0  0  0  0  0
   16.3995   20.4795   20.6453 H   0  0  0  0  0  0  0  0  0  0  0  0
   17.6290   20.7495   19.5828 H   0  0  0  0  0  0  0  0  0  0  0  0
   17.5493   21.6083   20.9884 H   0  0  0  0  0  0  0  0  0  0  0  0
   18.2345   19.6196   21.2747 C   0  0  0  0  0  0  0  0  0  0  0  0
   18.0090   18.6558   20.8104 H   0  0  0  0  0  0  0  0  0  0  0  0
   17.9205   19.5797   22.3209 H   0  0  0  0  0  0  0  0  0  0  0  0
   19.7486   19.8916   21.1944 C   0  0  0  0  0  0  0  0  0  0  0  0
   20.0428   19.9736   20.1395 H   0  0  0  0  0  0  0  0  0  0  0  0
   19.9750   20.8601   21.6600 H   0  0  0  0  0  0  0  0  0  0  0  0
   20.5920   18.7822   21.8658 C   0  0  0  0  0  0  0  0  0  0  0  0
   21.6559   18.9933   21.6896 H   0  0  0  0  0  0  0  0  0  0  0  0
   20.3824   17.8186   21.3808 H   0  0  0  0  0  0  0  0  0  0  0  0
   20.3419   18.6658   23.3887 C   0  0  0  0  0  0  0  0  0  0  0  0
   20.5205   19.6394   23.8657 H   0  0  0  0  0  0  0  0  0  0  0  0
   19.2918   18.4063   23.5782 H   0  0  0  0  0  0  0  0  0  0  0  0
   21.2518   17.6003   24.0397 C   0  0  0  0  0  0  0  0  0  0  0  0
   22.3065   17.8546   23.8635 H   0  0  0  0  0  0  0  0  0  0  0  0
   21.0778   16.6241   23.5657 H   0  0  0  0  0  0  0  0  0  0  0  0
   21.0006   17.4841   25.5583 C   0  0  0  0  0  0  0  0  0  0  0  0
   21.1992   18.4374   26.0653 H   0  0  0  0  0  0  0  0  0  0  0  0
   21.6558   16.7236   26.0024 H   0  0  0  0  0  0  0  0  0  0  0  0
   19.9617   17.1964   25.7658 H   0  0  0  0  0  0  0  0  0  0  0  0
  1  2  1  0  0  0  0
  1  3  1  0  0  0  0
  1  4  1  0  0  0  0
  1  5  1  0  0  0  0
  5  6  1  0  0  0  0
  5  7  1  0  0  0  0
  5  8  1  0  0  0  0
  8  9  1  0  0  0  0
  8 10  1  0  0  0  0
  8 11  1  0  0  0  0
 11 12  1  0  0  0  0
 11 13  1  0  0  0  0
 11 14  1  0  0  0  0
 14 15  1  0  0  0  0
 14 16  1  0  0  0  0
 14 17  1  0  0  0  0
 17 18  1  0  0  0  0
 17 19  1  0  0  0  0
 17 20  1  0  0  0  0
 20 21  1  0  0  0  0
 20 22  1  0  0  0  0
 20 23  1  0  0  0  0
M  END
> <VConfSearch Rank>
852

> <Conf_Id>
42

> <Delta U+W>
0.365

> <U+W>
-8.017

> <U>
47.375

> <W>
-55.392

> <W(PB)>
-57.543

> <W(SA)>
2.152

> <Valence>
2.032

> <Coulomb>
44.843

> <VdW>
0.499

> <VdW6>
-5.218

> <VdW12>
5.717

> <Bond>
0.135

> <Angle>
0.514

> <Pdih>
1.383

> <Idih>
0.000

> <Tether>
0.000

$$$$
VeraChem MOL file


 23 22  0  0  0  0  0  0  0  0999 V2000     
   17.3191   17.6673   21.0672 N   0  3  0  0  0  0  0  0  0  0  0  0
   17.8617   16.8404   20.7981 H   0  0  0  0  0  0  0  0  0  0  0  0
   16.4887   17.6886   20.4656 H   0  0  0  0  0  0  0  0  0  0  0  0
   16.9902   17.5150   22.0254 H   0  0  0  0  0  0  0  0  0  0  0  0
   18.1341   18.9403   20.9463 C   0  0  0  0  0  0  0  0  0  0  0  0
   17.4936   19.7820   21.2232 H   0  0  0  0  0  0  0  0  0  0  0  0
   18.4119   19.0556   19.8951 H   0  0  0  0  0  0  0  0  0  0  0  0
   19.4080   18.9501   21.8137 C   0  0  0  0  0  0  0  0  0  0  0  0
   20.0366   18.0884   21.5530 H   0  0  0  0  0  0  0  0  0  0  0  0
   19.9790   19.8516   21.5602 H   0  0  0  0  0  0  0  0  0  0  0  0
   19.0992   18.9463   23.3308 C   0  0  0  0  0  0  0  0  0  0  0  0
   18.4404   18.1005   23.5674 H   0  0  0  0  0  0  0  0  0  0  0  0
   18.5361   19.8537   23.5897 H   0  0  0  0  0  0  0  0  0  0  0  0
   20.3525   18.8421   24.2381 C   0  0  0  0  0  0  0  0  0  0  0  0
   20.0037   18.8040   25.2795 H   0  0  0  0  0  0  0  0  0  0  0  0
   20.8662   17.8865   24.0642 H   0  0  0  0  0  0  0  0  0  0  0  0
   21.3525   20.0201   24.1080 C   0  0  0  0  0  0  0  0  0  0  0  0
   21.7801   20.2274   25.0991 H   0  0  0  0  0  0  0  0  0  0  0  0
   20.8262   20.9373   23.8090 H   0  0  0  0  0  0  0  0  0  0  0  0
   22.5208   19.7289   23.1372 C   0  0  0  0  0  0  0  0  0  0  0  0
   23.0989   18.8574   23.4708 H   0  0  0  0  0  0  0  0  0  0  0  0
   23.2061   20.5853   23.0935 H   0  0  0  0  0  0  0  0  0  0  0  0
   22.1716   19.5310   22.1179 H   0  0  0  0  0  0  0  0  0  0  0  0
  1  2  1  0  0  0  0
  1  3  1  0  0  0  0
  1  4  1  0  0  0  0
  1  5  1  0  0  0  0
  5  6  1  0  0  0  0
  5  7  1  0  0  0  0
  5  8  1  0  0  0  0
  8  9  1  0  0  0  0
  8 10  1  0  0  0  0
  8 11  1  0  0  0  0
 11 12  1  0  0  0  0
 11 13  1  0  0  0  0
 11 14  1  0  0  0  0
 14 15  1  0  0  0  0
 14 16  1  0  0  0  0
 14 17  1  0  0  0  0
 17 18  1  0  0  0  0
 17 19  1  0  0  0  0
 17 20  1  0  0  0  0
 20 21  1  0  0  0  0
 20 22  1  0  0  0  0
 20 23  1  0  0  0  0
M  END
> <VConfSearch Rank>
853

> <Conf_Id>
3

> <Delta U+W>
3.283

> <U+W>
-5.099

> <U>
50.701

> <W>
-55.800

> <W(PB)>
-57.867

> <W(SA)>
2.067

> <Valence>
4.880

> <Coulomb>
45.095

> <VdW>
0.726

> <VdW6>
-6.620

> <VdW12>
7.346

> <Bond>
0.222

> <Angle>
1.260

> <Pdih>
3.398

> <Idih>
0.000

> <Tether>
0.000

$$$$
VeraChem MOL file


 23 22  0  0  0  0  0  0  0  0999 V2000     
   22.6836   18.7607   22.4015 N   0  3  0  0  0  0  0  0  0  0  0  0
   23.0299   17.8871   22.8109 H   0  0  0  0  0  0  0  0  0  0  0  0
   23.4949   19.2485   22.0070 H   0  0  0  0  0  0  0  0  0  0  0  0
   22.0742   18.5078   21.6178 H   0  0  0  0  0  0  0  0  0  0  0  0
   21.9564   19.6120   23.4236 C   0  0  0  0  0  0  0  0  0  0  0  0
   21.6421   20.5366   22.9329 H   0  0  0  0  0  0  0  0  0  0  0  0
   22.6714   19.8723   24.2088 H   0  0  0  0  0  0  0  0  0  0  0  0
   20.7349   18.9139   24.0558 C   0  0  0  0  0  0  0  0  0  0  0  0
   21.0727   18.0150   24.5885 H   0  0  0  0  0  0  0  0  0  0  0  0
   20.3055   19.5773   24.8183 H   0  0  0  0  0  0  0  0  0  0  0  0
   19.6316   18.5218   23.0406 C   0  0  0  0  0  0  0  0  0  0  0  0
   18.8362   17.9997   23.5881 H   0  0  0  0  0  0  0  0  0  0  0  0
   20.0295   17.7985   22.3165 H   0  0  0  0  0  0  0  0  0  0  0  0
   19.0319   19.7387   22.2912 C   0  0  0  0  0  0  0  0  0  0  0  0
   18.6094   20.4484   23.0159 H   0  0  0  0  0  0  0  0  0  0  0  0
   19.8306   20.2756   21.7629 H   0  0  0  0  0  0  0  0  0  0  0  0
   17.9477   19.3516   21.2562 C   0  0  0  0  0  0  0  0  0  0  0  0
   18.3678   18.6500   20.5219 H   0  0  0  0  0  0  0  0  0  0  0  0
   17.6625   20.2510   20.6927 H   0  0  0  0  0  0  0  0  0  0  0  0
   16.6779   18.7411   21.8918 C   0  0  0  0  0  0  0  0  0  0  0  0
   16.2572   19.4096   22.6541 H   0  0  0  0  0  0  0  0  0  0  0  0
   16.8868   17.7719   22.3611 H   0  0  0  0  0  0  0  0  0  0  0  0
   15.9071   18.5770   21.1276 H   0  0  0  0  0  0  0  0  0  0  0  0
  1  2  1  0  0  0  0
  1  3  1  0  0  0  0
  1  4  1  0  0  0  0
  1  5  1  0  0  0  0
  5  6  1  0  0  0  0
  5  7  1  0  0  0  0
  5  8  1  0  0  0  0
  8  9  1  0  0  0  0
  8 10  1  0  0  0  0
  8 11  1  0  0  0  0
 11 12  1  0  0  0  0
 11 13  1  0  0  0  0
 11 14  1  0  0  0  0
 14 15  1  0  0  0  0
 14 16  1  0  0  0  0
 14 17  1  0  0  0  0
 17 18  1  0  0  0  0
 17 19  1  0  0  0  0
 17 20  1  0  0  0  0
 20 21  1  0  0  0  0
 20 22  1  0  0  0  0
 20 23  1  0  0  0  0
M  END
> <VConfSearch Rank>
854

> <Conf_Id>
83

> <Delta U+W>
1.229

> <U+W>
-7.154

> <U>
48.727

> <W>
-55.880

> <W(PB)>
-57.960

> <W(SA)>
2.080

> <Valence>
2.671

> <Coulomb>
45.371

> <VdW>
0.684

> <VdW6>
-6.511

> <VdW12>
7.195

> <Bond>
0.203

> <Angle>
0.915

> <Pdih>
1.554

> <Idih>
0.000

> <Tether>
0.000

$$$$
VeraChem MOL file


 23 22  0  0  0  0  0  0  0  0999 V2000     
   20.8822   16.8112   24.0515 N   0  3  0  0  0  0  0  0  0  0  0  0
   21.7946   16.5149   23.6904 H   0  0  0  0  0  0  0  0  0  0  0  0
   20.1953   16.6510   23.3084 H   0  0  0  0  0  0  0  0  0  0  0  0
   20.6453   16.1776   24.8224 H   0  0  0  0  0  0  0  0  0  0  0  0
   20.8965   18.2601   24.4972 C   0  0  0  0  0  0  0  0  0  0  0  0
   21.6222   18.3509   25.3101 H   0  0  0  0  0  0  0  0  0  0  0  0
   19.9087   18.5016   24.8976 H   0  0  0  0  0  0  0  0  0  0  0  0
   21.2620   19.2512   23.3731 C   0  0  0  0  0  0  0  0  0  0  0  0
   21.3018   20.2640   23.7956 H   0  0  0  0  0  0  0  0  0  0  0  0
   22.2765   19.0291   23.0164 H   0  0  0  0  0  0  0  0  0  0  0  0
   20.2835   19.2375   22.1715 C   0  0  0  0  0  0  0  0  0  0  0  0
   20.2922   18.2491   21.6932 H   0  0  0  0  0  0  0  0  0  0  0  0
   20.6589   19.9438   21.4197 H   0  0  0  0  0  0  0  0  0  0  0  0
   18.8327   19.6188   22.5617 C   0  0  0  0  0  0  0  0  0  0  0  0
   18.4650   18.9276   23.3313 H   0  0  0  0  0  0  0  0  0  0  0  0
   18.8221   20.6197   23.0148 H   0  0  0  0  0  0  0  0  0  0  0  0
   17.8444   19.5811   21.3708 C   0  0  0  0  0  0  0  0  0  0  0  0
   16.8273   19.7474   21.7526 H   0  0  0  0  0  0  0  0  0  0  0  0
   17.8427   18.5788   20.9202 H   0  0  0  0  0  0  0  0  0  0  0  0
   18.1458   20.6392   20.2851 C   0  0  0  0  0  0  0  0  0  0  0  0
   18.1858   21.6478   20.7167 H   0  0  0  0  0  0  0  0  0  0  0  0
   17.3621   20.6344   19.5165 H   0  0  0  0  0  0  0  0  0  0  0  0
   19.1005   20.4417   19.7823 H   0  0  0  0  0  0  0  0  0  0  0  0
  1  2  1  0  0  0  0
  1  3  1  0  0  0  0
  1  4  1  0  0  0  0
  1  5  1  0  0  0  0
  5  6  1  0  0  0  0
  5  7  1  0  0  0  0
  5  8  1  0  0  0  0
  8  9  1  0  0  0  0
  8 10  1  0  0  0  0
  8 11  1  0  0  0  0
 11 12  1  0  0  0  0
 11 13  1  0  0  0  0
 11 14  1  0  0  0  0
 14 15  1  0  0  0  0
 14 16  1  0  0  0  0
 14 17  1  0  0  0  0
 17 18  1  0  0  0  0
 17 19  1  0  0  0  0
 17 20  1  0  0  0  0
 20 21  1  0  0  0  0
 20 22  1  0  0  0  0
 20 23  1  0  0  0  0
M  END
> <VConfSearch Rank>
855

> <Conf_Id>
50

> <Delta U+W>
1.252

> <U+W>
-7.130

> <U>
48.727

> <W>
-55.857

> <W(PB)>
-57.937

> <W(SA)>
2.080

> <Valence>
2.671

> <Coulomb>
45.371

> <VdW>
0.684

> <VdW6>
-6.511

> <VdW12>
7.196

> <Bond>
0.203

> <Angle>
0.915

> <Pdih>
1.554

> <Idih>
0.000

> <Tether>
0.000

$$$$
VeraChem MOL file


 23 22  0  0  0  0  0  0  0  0999 V2000     
   16.8281   18.6444   23.7095 N   0  3  0  0  0  0  0  0  0  0  0  0
   17.0434   17.7298   23.3013 H   0  0  0  0  0  0  0  0  0  0  0  0
   15.8286   18.8140   23.5543 H   0  0  0  0  0  0  0  0  0  0  0  0
   16.9637   18.5640   24.7223 H   0  0  0  0  0  0  0  0  0  0  0  0
   17.6848   19.7434   23.1114 C   0  0  0  0  0  0  0  0  0  0  0  0
   17.3724   20.6893   23.5622 H   0  0  0  0  0  0  0  0  0  0  0  0
   17.4753   19.7916   22.0394 H   0  0  0  0  0  0  0  0  0  0  0  0
   19.1966   19.5458   23.3357 C   0  0  0  0  0  0  0  0  0  0  0  0
   19.7169   20.4373   22.9681 H   0  0  0  0  0  0  0  0  0  0  0  0
   19.4011   19.4928   24.4132 H   0  0  0  0  0  0  0  0  0  0  0  0
   19.7437   18.2771   22.6330 C   0  0  0  0  0  0  0  0  0  0  0  0
   19.4608   18.2758   21.5712 H   0  0  0  0  0  0  0  0  0  0  0  0
   19.2612   17.3966   23.0778 H   0  0  0  0  0  0  0  0  0  0  0  0
   21.2793   18.1096   22.7740 C   0  0  0  0  0  0  0  0  0  0  0  0
   21.6285   18.5647   23.7110 H   0  0  0  0  0  0  0  0  0  0  0  0
   21.4995   17.0370   22.8665 H   0  0  0  0  0  0  0  0  0  0  0  0
   22.1031   18.6523   21.5781 C   0  0  0  0  0  0  0  0  0  0  0  0
   21.8172   18.1179   20.6613 H   0  0  0  0  0  0  0  0  0  0  0  0
   23.1627   18.4164   21.7492 H   0  0  0  0  0  0  0  0  0  0  0  0
   21.9658   20.1732   21.3481 C   0  0  0  0  0  0  0  0  0  0  0  0
   22.1884   20.7344   22.2648 H   0  0  0  0  0  0  0  0  0  0  0  0
   20.9548   20.4361   21.0131 H   0  0  0  0  0  0  0  0  0  0  0  0
   22.6654   20.5081   20.5714 H   0  0  0  0  0  0  0  0  0  0  0  0
  1  2  1  0  0  0  0
  1  3  1  0  0  0  0
  1  4  1  0  0  0  0
  1  5  1  0  0  0  0
  5  6  1  0  0  0  0
  5  7  1  0  0  0  0
  5  8  1  0  0  0  0
  8  9  1  0  0  0  0
  8 10  1  0  0  0  0
  8 11  1  0  0  0  0
 11 12  1  0  0  0  0
 11 13  1  0  0  0  0
 11 14  1  0  0  0  0
 14 15  1  0  0  0  0
 14 16  1  0  0  0  0
 14 17  1  0  0  0  0
 17 18  1  0  0  0  0
 17 19  1  0  0  0  0
 17 20  1  0  0  0  0
 20 21  1  0  0  0  0
 20 22  1  0  0  0  0
 20 23  1  0  0  0  0
M  END
> <VConfSearch Rank>
856

> <Conf_Id>
55

> <Delta U+W>
3.232

> <U+W>
-5.150

> <U>
50.625

> <W>
-55.776

> <W(PB)>
-57.839

> <W(SA)>
2.064

> <Valence>
4.837

> <Coulomb>
45.097

> <VdW>
0.692

> <VdW6>
-6.655

> <VdW12>
7.347

> <Bond>
0.223

> <Angle>
1.167

> <Pdih>
3.447

> <Idih>
0.000

> <Tether>
0.000

$$$$
VeraChem MOL file


 23 22  0  0  0  0  0  0  0  0999 V2000     
   22.4659   19.6551   20.9984 N   0  3  0  0  0  0  0  0  0  0  0  0
   22.4609   20.2295   20.1494 H   0  0  0  0  0  0  0  0  0  0  0  0
   23.1853   18.9360   20.8670 H   0  0  0  0  0  0  0  0  0  0  0  0
   22.7815   20.2558   21.7667 H   0  0  0  0  0  0  0  0  0  0  0  0
   21.1063   19.0472   21.2774 C   0  0  0  0  0  0  0  0  0  0  0  0
   21.1964   18.4241   22.1690 H   0  0  0  0  0  0  0  0  0  0  0  0
   20.8481   18.4005   20.4345 H   0  0  0  0  0  0  0  0  0  0  0  0
   20.0022   20.1049   21.4725 C   0  0  0  0  0  0  0  0  0  0  0  0
   20.2699   20.7912   22.2868 H   0  0  0  0  0  0  0  0  0  0  0  0
   19.9483   20.7130   20.5597 H   0  0  0  0  0  0  0  0  0  0  0  0
   18.6061   19.4855   21.7350 C   0  0  0  0  0  0  0  0  0  0  0  0
   18.4771   18.5779   21.1289 H   0  0  0  0  0  0  0  0  0  0  0  0
   17.8458   20.1928   21.3757 H   0  0  0  0  0  0  0  0  0  0  0  0
   18.2945   19.1813   23.2235 C   0  0  0  0  0  0  0  0  0  0  0  0
   18.3242   20.1151   23.8018 H   0  0  0  0  0  0  0  0  0  0  0  0
   17.2600   18.8163   23.2882 H   0  0  0  0  0  0  0  0  0  0  0  0
   19.2334   18.1424   23.8790 C   0  0  0  0  0  0  0  0  0  0  0  0
   20.2466   18.5560   23.9651 H   0  0  0  0  0  0  0  0  0  0  0  0
   19.2993   17.2463   23.2464 H   0  0  0  0  0  0  0  0  0  0  0  0
   18.7435   17.7405   25.2865 C   0  0  0  0  0  0  0  0  0  0  0  0
   17.7459   17.2845   25.2428 H   0  0  0  0  0  0  0  0  0  0  0  0
   18.6917   18.6134   25.9503 H   0  0  0  0  0  0  0  0  0  0  0  0
   19.4268   17.0116   25.7412 H   0  0  0  0  0  0  0  0  0  0  0  0
  1  2  1  0  0  0  0
  1  3  1  0  0  0  0
  1  4  1  0  0  0  0
  1  5  1  0  0  0  0
  5  6  1  0  0  0  0
  5  7  1  0  0  0  0
  5  8  1  0  0  0  0
  8  9  1  0  0  0  0
  8 10  1  0  0  0  0
  8 11  1  0  0  0  0
 11 12  1  0  0  0  0
 11 13  1  0  0  0  0
 11 14  1  0  0  0  0
 14 15  1  0  0  0  0
 14 16  1  0  0  0  0
 14 17  1  0  0  0  0
 17 18  1  0  0  0  0
 17 19  1  0  0  0  0
 17 20  1  0  0  0  0
 20 21  1  0  0  0  0
 20 22  1  0  0  0  0
 20 23  1  0  0  0  0
M  END
> <VConfSearch Rank>
857

> <Conf_Id>
93

> <Delta U+W>
2.589

> <U+W>
-5.793

> <U>
50.122

> <W>
-55.915

> <W(PB)>
-58.031

> <W(SA)>
2.115

> <Valence>
4.132

> <Coulomb>
45.536

> <VdW>
0.454

> <VdW6>
-6.262

> <VdW12>
6.715

> <Bond>
0.182

> <Angle>
1.157

> <Pdih>
2.794

> <Idih>
0.000

> <Tether>
0.000

$$$$
VeraChem MOL file


 23 22  0  0  0  0  0  0  0  0999 V2000     
   22.6418   19.0997   23.6971 N   0  3  0  0  0  0  0  0  0  0  0  0
   22.2899   19.5288   24.5590 H   0  0  0  0  0  0  0  0  0  0  0  0
   23.3224   19.7530   23.2948 H   0  0  0  0  0  0  0  0  0  0  0  0
   23.1615   18.2591   23.9695 H   0  0  0  0  0  0  0  0  0  0  0  0
   21.5232   18.7824   22.7256 C   0  0  0  0  0  0  0  0  0  0  0  0
   21.9720   18.3568   21.8240 H   0  0  0  0  0  0  0  0  0  0  0  0
   21.0409   19.7230   22.4539 H   0  0  0  0  0  0  0  0  0  0  0  0
   20.4876   17.7961   23.3005 C   0  0  0  0  0  0  0  0  0  0  0  0
   21.0122   16.8687   23.5667 H   0  0  0  0  0  0  0  0  0  0  0  0
   20.0615   18.1896   24.2329 H   0  0  0  0  0  0  0  0  0  0  0  0
   19.3550   17.4518   22.3005 C   0  0  0  0  0  0  0  0  0  0  0  0
   18.9802   16.4474   22.5417 H   0  0  0  0  0  0  0  0  0  0  0  0
   19.7611   17.3802   21.2819 H   0  0  0  0  0  0  0  0  0  0  0  0
   18.1439   18.4203   22.3248 C   0  0  0  0  0  0  0  0  0  0  0  0
   17.3841   18.0343   21.6311 H   0  0  0  0  0  0  0  0  0  0  0  0
   17.6820   18.4037   23.3216 H   0  0  0  0  0  0  0  0  0  0  0  0
   18.4783   19.8797   21.9390 C   0  0  0  0  0  0  0  0  0  0  0  0
   19.0430   19.8973   20.9963 H   0  0  0  0  0  0  0  0  0  0  0  0
   19.1152   20.3335   22.7092 H   0  0  0  0  0  0  0  0  0  0  0  0
   17.2023   20.7350   21.7873 C   0  0  0  0  0  0  0  0  0  0  0  0
   17.4583   21.7696   21.5243 H   0  0  0  0  0  0  0  0  0  0  0  0
   16.6288   20.7573   22.7232 H   0  0  0  0  0  0  0  0  0  0  0  0
   16.5519   20.3383   20.9969 H   0  0  0  0  0  0  0  0  0  0  0  0
  1  2  1  0  0  0  0
  1  3  1  0  0  0  0
  1  4  1  0  0  0  0
  1  5  1  0  0  0  0
  5  6  1  0  0  0  0
  5  7  1  0  0  0  0
  5  8  1  0  0  0  0
  8  9  1  0  0  0  0
  8 10  1  0  0  0  0
  8 11  1  0  0  0  0
 11 12  1  0  0  0  0
 11 13  1  0  0  0  0
 11 14  1  0  0  0  0
 14 15  1  0  0  0  0
 14 16  1  0  0  0  0
 14 17  1  0  0  0  0
 17 18  1  0  0  0  0
 17 19  1  0  0  0  0
 17 20  1  0  0  0  0
 20 21  1  0  0  0  0
 20 22  1  0  0  0  0
 20 23  1  0  0  0  0
M  END
> <VConfSearch Rank>
858

> <Conf_Id>
70

> <Delta U+W>
2.599

> <U+W>
-5.783

> <U>
50.122

> <W>
-55.906

> <W(PB)>
-58.010

> <W(SA)>
2.105

> <Valence>
4.132

> <Coulomb>
45.536

> <VdW>
0.454

> <VdW6>
-6.262

> <VdW12>
6.715

> <Bond>
0.182

> <Angle>
1.157

> <Pdih>
2.794

> <Idih>
0.000

> <Tether>
0.000

$$$$
VeraChem MOL file


 23 22  0  0  0  0  0  0  0  0999 V2000     
   18.3426   21.3723   22.1139 N   0  3  0  0  0  0  0  0  0  0  0  0
   18.5836   22.0726   21.4054 H   0  0  0  0  0  0  0  0  0  0  0  0
   17.6321   21.7936   22.7216 H   0  0  0  0  0  0  0  0  0  0  0  0
   17.8965   20.5894   21.6265 H   0  0  0  0  0  0  0  0  0  0  0  0
   19.5600   20.9227   22.8975 C   0  0  0  0  0  0  0  0  0  0  0  0
   19.2311   20.2058   23.6543 H   0  0  0  0  0  0  0  0  0  0  0  0
   19.9666   21.7975   23.4122 H   0  0  0  0  0  0  0  0  0  0  0  0
   20.6585   20.2871   22.0216 C   0  0  0  0  0  0  0  0  0  0  0  0
   21.0054   21.0269   21.2880 H   0  0  0  0  0  0  0  0  0  0  0  0
   21.5279   20.0615   22.6521 H   0  0  0  0  0  0  0  0  0  0  0  0
   20.2066   19.0036   21.2764 C   0  0  0  0  0  0  0  0  0  0  0  0
   21.0606   18.6016   20.7140 H   0  0  0  0  0  0  0  0  0  0  0  0
   19.4537   19.2690   20.5221 H   0  0  0  0  0  0  0  0  0  0  0  0
   19.6308   17.8883   22.1871 C   0  0  0  0  0  0  0  0  0  0  0  0
   18.7194   18.2426   22.6868 H   0  0  0  0  0  0  0  0  0  0  0  0
   19.3196   17.0482   21.5509 H   0  0  0  0  0  0  0  0  0  0  0  0
   20.6364   17.3723   23.2432 C   0  0  0  0  0  0  0  0  0  0  0  0
   20.9073   18.1808   23.9352 H   0  0  0  0  0  0  0  0  0  0  0  0
   21.5637   17.0528   22.7475 H   0  0  0  0  0  0  0  0  0  0  0  0
   20.0563   16.1934   24.0532 C   0  0  0  0  0  0  0  0  0  0  0  0
   20.7811   15.8417   24.7989 H   0  0  0  0  0  0  0  0  0  0  0  0
   19.8098   15.3474   23.3984 H   0  0  0  0  0  0  0  0  0  0  0  0
   19.1434   16.4915   24.5851 H   0  0  0  0  0  0  0  0  0  0  0  0
  1  2  1  0  0  0  0
  1  3  1  0  0  0  0
  1  4  1  0  0  0  0
  1  5  1  0  0  0  0
  5  6  1  0  0  0  0
  5  7  1  0  0  0  0
  5  8  1  0  0  0  0
  8  9  1  0  0  0  0
  8 10  1  0  0  0  0
  8 11  1  0  0  0  0
 11 12  1  0  0  0  0
 11 13  1  0  0  0  0
 11 14  1  0  0  0  0
 14 15  1  0  0  0  0
 14 16  1  0  0  0  0
 14 17  1  0  0  0  0
 17 18  1  0  0  0  0
 17 19  1  0  0  0  0
 17 20  1  0  0  0  0
 20 21  1  0  0  0  0
 20 22  1  0  0  0  0
 20 23  1  0  0  0  0
M  END
> <VConfSearch Rank>
859

> <Conf_Id>
72

> <Delta U+W>
1.051

> <U+W>
-7.331

> <U>
48.590

> <W>
-55.922

> <W(PB)>
-58.012

> <W(SA)>
2.090

> <Valence>
2.601

> <Coulomb>
45.520

> <VdW>
0.469

> <VdW6>
-6.867

> <VdW12>
7.336

> <Bond>
0.205

> <Angle>
0.962

> <Pdih>
1.434

> <Idih>
0.000

> <Tether>
0.000

$$$$
VeraChem MOL file


 23 22  0  0  0  0  0  0  0  0999 V2000     
   17.1842   17.1834   22.3758 N   0  3  0  0  0  0  0  0  0  0  0  0
   16.2136   17.3878   22.6367 H   0  0  0  0  0  0  0  0  0  0  0  0
   17.3330   16.1831   22.5432 H   0  0  0  0  0  0  0  0  0  0  0  0
   17.2593   17.3344   21.3647 H   0  0  0  0  0  0  0  0  0  0  0  0
   18.1670   18.0381   23.1499 C   0  0  0  0  0  0  0  0  0  0  0  0
   18.0129   17.8492   24.2157 H   0  0  0  0  0  0  0  0  0  0  0  0
   17.9317   19.0865   22.9486 H   0  0  0  0  0  0  0  0  0  0  0  0
   19.6351   17.7553   22.7807 C   0  0  0  0  0  0  0  0  0  0  0  0
   19.8500   16.6920   22.9513 H   0  0  0  0  0  0  0  0  0  0  0  0
   19.7879   17.9321   21.7084 H   0  0  0  0  0  0  0  0  0  0  0  0
   20.6332   18.6055   23.6053 C   0  0  0  0  0  0  0  0  0  0  0  0
   21.6579   18.3415   23.3116 H   0  0  0  0  0  0  0  0  0  0  0  0
   20.5476   18.3251   24.6642 H   0  0  0  0  0  0  0  0  0  0  0  0
   20.4375   20.1409   23.4828 C   0  0  0  0  0  0  0  0  0  0  0  0
   19.4752   20.4230   23.9307 H   0  0  0  0  0  0  0  0  0  0  0  0
   21.2035   20.6414   24.0910 H   0  0  0  0  0  0  0  0  0  0  0  0
   20.5017   20.7007   22.0389 C   0  0  0  0  0  0  0  0  0  0  0  0
   20.3381   21.7868   22.0769 H   0  0  0  0  0  0  0  0  0  0  0  0
   19.6782   20.2939   21.4369 H   0  0  0  0  0  0  0  0  0  0  0  0
   21.8492   20.4252   21.3341 C   0  0  0  0  0  0  0  0  0  0  0  0
   22.6895   20.8125   21.9246 H   0  0  0  0  0  0  0  0  0  0  0  0
   21.8761   20.9134   20.3513 H   0  0  0  0  0  0  0  0  0  0  0  0
   22.0075   19.3515   21.1742 H   0  0  0  0  0  0  0  0  0  0  0  0
  1  2  1  0  0  0  0
  1  3  1  0  0  0  0
  1  4  1  0  0  0  0
  1  5  1  0  0  0  0
  5  6  1  0  0  0  0
  5  7  1  0  0  0  0
  5  8  1  0  0  0  0
  8  9  1  0  0  0  0
  8 10  1  0  0  0  0
  8 11  1  0  0  0  0
 11 12  1  0  0  0  0
 11 13  1  0  0  0  0
 11 14  1  0  0  0  0
 14 15  1  0  0  0  0
 14 16  1  0  0  0  0
 14 17  1  0  0  0  0
 17 18  1  0  0  0  0
 17 19  1  0  0  0  0
 17 20  1  0  0  0  0
 20 21  1  0  0  0  0
 20 22  1  0  0  0  0
 20 23  1  0  0  0  0
M  END
> <VConfSearch Rank>
860

> <Conf_Id>
26

> <Delta U+W>
1.076

> <U+W>
-7.306

> <U>
48.641

> <W>
-55.947

> <W(PB)>
-58.031

> <W(SA)>
2.084

> <Valence>
2.922

> <Coulomb>
45.269

> <VdW>
0.449

> <VdW6>
-7.045

> <VdW12>
7.494

> <Bond>
0.220

> <Angle>
1.205

> <Pdih>
1.497

> <Idih>
0.000

> <Tether>
0.000

$$$$
VeraChem MOL file


 23 22  0  0  0  0  0  0  0  0999 V2000     
   16.9089   17.9488   22.0825 N   0  3  0  0  0  0  0  0  0  0  0  0
   16.5358   18.1597   21.1513 H   0  0  0  0  0  0  0  0  0  0  0  0
   16.1058   17.8822   22.7169 H   0  0  0  0  0  0  0  0  0  0  0  0
   17.3292   17.0151   22.0346 H   0  0  0  0  0  0  0  0  0  0  0  0
   17.9042   18.9944   22.5423 C   0  0  0  0  0  0  0  0  0  0  0  0
   18.2355   18.7235   23.5482 H   0  0  0  0  0  0  0  0  0  0  0  0
   17.3844   19.9547   22.5980 H   0  0  0  0  0  0  0  0  0  0  0  0
   19.1237   19.1190   21.6100 C   0  0  0  0  0  0  0  0  0  0  0  0
   19.6388   18.1523   21.5431 H   0  0  0  0  0  0  0  0  0  0  0  0
   18.7773   19.3544   20.5949 H   0  0  0  0  0  0  0  0  0  0  0  0
   20.1156   20.2173   22.0670 C   0  0  0  0  0  0  0  0  0  0  0  0
   19.6144   21.1935   22.0108 H   0  0  0  0  0  0  0  0  0  0  0  0
   20.9471   20.2704   21.3515 H   0  0  0  0  0  0  0  0  0  0  0  0
   20.6774   20.0315   23.5025 C   0  0  0  0  0  0  0  0  0  0  0  0
   21.3771   20.8518   23.7139 H   0  0  0  0  0  0  0  0  0  0  0  0
   19.8628   20.1443   24.2305 H   0  0  0  0  0  0  0  0  0  0  0  0
   21.3963   18.6827   23.7597 C   0  0  0  0  0  0  0  0  0  0  0  0
   20.6884   17.8494   23.6574 H   0  0  0  0  0  0  0  0  0  0  0  0
   21.7368   18.6612   24.8044 H   0  0  0  0  0  0  0  0  0  0  0  0
   22.6129   18.4506   22.8353 C   0  0  0  0  0  0  0  0  0  0  0  0
   22.3083   18.3549   21.7858 H   0  0  0  0  0  0  0  0  0  0  0  0
   23.1365   17.5268   23.1132 H   0  0  0  0  0  0  0  0  0  0  0  0
   23.3295   19.2787   22.9113 H   0  0  0  0  0  0  0  0  0  0  0  0
  1  2  1  0  0  0  0
  1  3  1  0  0  0  0
  1  4  1  0  0  0  0
  1  5  1  0  0  0  0
  5  6  1  0  0  0  0
  5  7  1  0  0  0  0
  5  8  1  0  0  0  0
  8  9  1  0  0  0  0
  8 10  1  0  0  0  0
  8 11  1  0  0  0  0
 11 12  1  0  0  0  0
 11 13  1  0  0  0  0
 11 14  1  0  0  0  0
 14 15  1  0  0  0  0
 14 16  1  0  0  0  0
 14 17  1  0  0  0  0
 17 18  1  0  0  0  0
 17 19  1  0  0  0  0
 17 20  1  0  0  0  0
 20 21  1  0  0  0  0
 20 22  1  0  0  0  0
 20 23  1  0  0  0  0
M  END
> <VConfSearch Rank>
861

> <Conf_Id>
90

> <Delta U+W>
1.131

> <U+W>
-7.251

> <U>
48.641

> <W>
-55.892

> <W(PB)>
-57.962

> <W(SA)>
2.070

> <Valence>
2.922

> <Coulomb>
45.269

> <VdW>
0.450

> <VdW6>
-7.045

> <VdW12>
7.495

> <Bond>
0.220

> <Angle>
1.205

> <Pdih>
1.497

> <Idih>
0.000

> <Tether>
0.000

$$$$
VeraChem MOL file


 23 22  0  0  0  0  0  0  0  0999 V2000     
   21.9718   17.7462   21.6527 N   0  3  0  0  0  0  0  0  0  0  0  0
   22.1775   17.0081   20.9709 H   0  0  0  0  0  0  0  0  0  0  0  0
   21.3009   17.3587   22.3230 H   0  0  0  0  0  0  0  0  0  0  0  0
   22.8403   17.9311   22.1646 H   0  0  0  0  0  0  0  0  0  0  0  0
   21.4353   18.9967   20.9844 C   0  0  0  0  0  0  0  0  0  0  0  0
   20.5311   18.7252   20.4335 H   0  0  0  0  0  0  0  0  0  0  0  0
   22.1831   19.3354   20.2622 H   0  0  0  0  0  0  0  0  0  0  0  0
   21.1215   20.1404   21.9705 C   0  0  0  0  0  0  0  0  0  0  0  0
   22.0460   20.4366   22.4837 H   0  0  0  0  0  0  0  0  0  0  0  0
   20.7946   21.0188   21.3984 H   0  0  0  0  0  0  0  0  0  0  0  0
   20.0418   19.7856   23.0236 C   0  0  0  0  0  0  0  0  0  0  0  0
   19.9000   20.6515   23.6848 H   0  0  0  0  0  0  0  0  0  0  0  0
   20.4065   18.9703   23.6612 H   0  0  0  0  0  0  0  0  0  0  0  0
   18.6804   19.4013   22.3909 C   0  0  0  0  0  0  0  0  0  0  0  0
   18.3746   20.1916   21.6915 H   0  0  0  0  0  0  0  0  0  0  0  0
   18.7844   18.4844   21.7955 H   0  0  0  0  0  0  0  0  0  0  0  0
   17.5534   19.2041   23.4331 C   0  0  0  0  0  0  0  0  0  0  0  0
   16.6056   19.0411   22.9012 H   0  0  0  0  0  0  0  0  0  0  0  0
   17.4225   20.1249   24.0186 H   0  0  0  0  0  0  0  0  0  0  0  0
   17.8010   18.0126   24.3862 C   0  0  0  0  0  0  0  0  0  0  0  0
   17.9613   17.0836   23.8239 H   0  0  0  0  0  0  0  0  0  0  0  0
   16.9354   17.8610   25.0440 H   0  0  0  0  0  0  0  0  0  0  0  0
   18.6751   18.1831   25.0266 H   0  0  0  0  0  0  0  0  0  0  0  0
  1  2  1  0  0  0  0
  1  3  1  0  0  0  0
  1  4  1  0  0  0  0
  1  5  1  0  0  0  0
  5  6  1  0  0  0  0
  5  7  1  0  0  0  0
  5  8  1  0  0  0  0
  8  9  1  0  0  0  0
  8 10  1  0  0  0  0
  8 11  1  0  0  0  0
 11 12  1  0  0  0  0
 11 13  1  0  0  0  0
 11 14  1  0  0  0  0
 14 15  1  0  0  0  0
 14 16  1  0  0  0  0
 14 17  1  0  0  0  0
 17 18  1  0  0  0  0
 17 19  1  0  0  0  0
 17 20  1  0  0  0  0
 20 21  1  0  0  0  0
 20 22  1  0  0  0  0
 20 23  1  0  0  0  0
M  END
> <VConfSearch Rank>
862

> <Conf_Id>
85

> <Delta U+W>
1.193

> <U+W>
-7.189

> <U>
48.775

> <W>
-55.965

> <W(PB)>
-58.038

> <W(SA)>
2.073

> <Valence>
2.602

> <Coulomb>
45.581

> <VdW>
0.592

> <VdW6>
-6.616

> <VdW12>
7.208

> <Bond>
0.196

> <Angle>
0.832

> <Pdih>
1.574

> <Idih>
0.000

> <Tether>
0.000

$$$$
VeraChem MOL file


 23 22  0  0  0  0  0  0  0  0999 V2000     
   18.7910   20.0524   24.0202 N   0  3  0  0  0  0  0  0  0  0  0  0
   18.5275   19.6795   23.1025 H   0  0  0  0  0  0  0  0  0  0  0  0
   18.4887   21.0321   24.0525 H   0  0  0  0  0  0  0  0  0  0  0  0
   18.2431   19.5475   24.7245 H   0  0  0  0  0  0  0  0  0  0  0  0
   20.2813   19.9147   24.2646 C   0  0  0  0  0  0  0  0  0  0  0  0
   20.4819   20.3298   25.2561 H   0  0  0  0  0  0  0  0  0  0  0  0
   20.8146   20.5220   23.5285 H   0  0  0  0  0  0  0  0  0  0  0  0
   20.7935   18.4608   24.2146 C   0  0  0  0  0  0  0  0  0  0  0  0
   21.7365   18.4198   24.7756 H   0  0  0  0  0  0  0  0  0  0  0  0
   20.0975   17.8035   24.7526 H   0  0  0  0  0  0  0  0  0  0  0  0
   21.0643   17.9025   22.7915 C   0  0  0  0  0  0  0  0  0  0  0  0
   21.4734   16.8894   22.9087 H   0  0  0  0  0  0  0  0  0  0  0  0
   21.8588   18.4852   22.3050 H   0  0  0  0  0  0  0  0  0  0  0  0
   19.8234   17.8148   21.8664 C   0  0  0  0  0  0  0  0  0  0  0  0
   19.9145   16.9128   21.2452 H   0  0  0  0  0  0  0  0  0  0  0  0
   18.9139   17.6706   22.4645 H   0  0  0  0  0  0  0  0  0  0  0  0
   19.6821   19.0314   20.9192 C   0  0  0  0  0  0  0  0  0  0  0  0
   20.5310   19.0472   20.2211 H   0  0  0  0  0  0  0  0  0  0  0  0
   19.7322   19.9743   21.4766 H   0  0  0  0  0  0  0  0  0  0  0  0
   18.3658   18.9788   20.1153 C   0  0  0  0  0  0  0  0  0  0  0  0
   18.3134   18.0676   19.5051 H   0  0  0  0  0  0  0  0  0  0  0  0
   18.2901   19.8403   19.4391 H   0  0  0  0  0  0  0  0  0  0  0  0
   17.4921   18.9945   20.7795 H   0  0  0  0  0  0  0  0  0  0  0  0
  1  2  1  0  0  0  0
  1  3  1  0  0  0  0
  1  4  1  0  0  0  0
  1  5  1  0  0  0  0
  5  6  1  0  0  0  0
  5  7  1  0  0  0  0
  5  8  1  0  0  0  0
  8  9  1  0  0  0  0
  8 10  1  0  0  0  0
  8 11  1  0  0  0  0
 11 12  1  0  0  0  0
 11 13  1  0  0  0  0
 11 14  1  0  0  0  0
 14 15  1  0  0  0  0
 14 16  1  0  0  0  0
 14 17  1  0  0  0  0
 17 18  1  0  0  0  0
 17 19  1  0  0  0  0
 17 20  1  0  0  0  0
 20 21  1  0  0  0  0
 20 22  1  0  0  0  0
 20 23  1  0  0  0  0
M  END
> <VConfSearch Rank>
863

> <Conf_Id>
82

> <Delta U+W>
5.994

> <U+W>
-2.388

> <U>
52.836

> <W>
-55.224

> <W(PB)>
-57.261

> <W(SA)>
2.037

> <Valence>
5.785

> <Coulomb>
46.744

> <VdW>
0.307

> <VdW6>
-7.672

> <VdW12>
7.979

> <Bond>
0.217

> <Angle>
1.470

> <Pdih>
4.098

> <Idih>
0.000

> <Tether>
0.000

$$$$
VeraChem MOL file


 23 22  0  0  0  0  0  0  0  0999 V2000     
   18.3268   18.1437   21.4546 N   0  3  0  0  0  0  0  0  0  0  0  0
   18.0016   18.6577   20.6294 H   0  0  0  0  0  0  0  0  0  0  0  0
   17.9981   17.1772   21.3533 H   0  0  0  0  0  0  0  0  0  0  0  0
   19.3511   18.1251   21.4195 H   0  0  0  0  0  0  0  0  0  0  0  0
   17.8301   18.7754   22.7406 C   0  0  0  0  0  0  0  0  0  0  0  0
   18.1490   18.1544   23.5820 H   0  0  0  0  0  0  0  0  0  0  0  0
   16.7375   18.7599   22.7027 H   0  0  0  0  0  0  0  0  0  0  0  0
   18.3059   20.2273   22.9508 C   0  0  0  0  0  0  0  0  0  0  0  0
   18.2200   20.7859   22.0093 H   0  0  0  0  0  0  0  0  0  0  0  0
   17.6082   20.7094   23.6484 H   0  0  0  0  0  0  0  0  0  0  0  0
   19.7373   20.3776   23.5329 C   0  0  0  0  0  0  0  0  0  0  0  0
   19.7830   19.9310   24.5358 H   0  0  0  0  0  0  0  0  0  0  0  0
   19.9204   21.4509   23.6811 H   0  0  0  0  0  0  0  0  0  0  0  0
   20.8767   19.8147   22.6451 C   0  0  0  0  0  0  0  0  0  0  0  0
   20.5917   19.8642   21.5858 H   0  0  0  0  0  0  0  0  0  0  0  0
   21.7535   20.4695   22.7460 H   0  0  0  0  0  0  0  0  0  0  0  0
   21.3065   18.3810   23.0414 C   0  0  0  0  0  0  0  0  0  0  0  0
   20.4408   17.7106   23.0997 H   0  0  0  0  0  0  0  0  0  0  0  0
   21.7430   18.3998   24.0500 H   0  0  0  0  0  0  0  0  0  0  0  0
   22.3400   17.8013   22.0527 C   0  0  0  0  0  0  0  0  0  0  0  0
   21.9276   17.7363   21.0376 H   0  0  0  0  0  0  0  0  0  0  0  0
   22.6440   16.7915   22.3578 H   0  0  0  0  0  0  0  0  0  0  0  0
   23.2419   18.4262   22.0146 H   0  0  0  0  0  0  0  0  0  0  0  0
  1  2  1  0  0  0  0
  1  3  1  0  0  0  0
  1  4  1  0  0  0  0
  1  5  1  0  0  0  0
  5  6  1  0  0  0  0
  5  7  1  0  0  0  0
  5  8  1  0  0  0  0
  8  9  1  0  0  0  0
  8 10  1  0  0  0  0
  8 11  1  0  0  0  0
 11 12  1  0  0  0  0
 11 13  1  0  0  0  0
 11 14  1  0  0  0  0
 14 15  1  0  0  0  0
 14 16  1  0  0  0  0
 14 17  1  0  0  0  0
 17 18  1  0  0  0  0
 17 19  1  0  0  0  0
 17 20  1  0  0  0  0
 20 21  1  0  0  0  0
 20 22  1  0  0  0  0
 20 23  1  0  0  0  0
M  END
> <VConfSearch Rank>
864

> <Conf_Id>
5

> <Delta U+W>
6.087

> <U+W>
-2.295

> <U>
52.836

> <W>
-55.131

> <W(PB)>
-57.202

> <W(SA)>
2.071

> <Valence>
5.785

> <Coulomb>
46.744

> <VdW>
0.307

> <VdW6>
-7.672

> <VdW12>
7.980

> <Bond>
0.217

> <Angle>
1.470

> <Pdih>
4.098

> <Idih>
0.000

> <Tether>
0.000

$$$$
VeraChem MOL file


 23 22  0  0  0  0  0  0  0  0999 V2000     
   23.4523   18.0239   22.1177 N   0  3  0  0  0  0  0  0  0  0  0  0
   23.3623   17.7197   21.1429 H   0  0  0  0  0  0  0  0  0  0  0  0
   24.1689   17.4308   22.5499 H   0  0  0  0  0  0  0  0  0  0  0  0
   23.8256   18.9785   22.1025 H   0  0  0  0  0  0  0  0  0  0  0  0
   22.1334   17.9440   22.8593 C   0  0  0  0  0  0  0  0  0  0  0  0
   22.3085   18.2525   23.8935 H   0  0  0  0  0  0  0  0  0  0  0  0
   21.8106   16.8994   22.8622 H   0  0  0  0  0  0  0  0  0  0  0  0
   21.0356   18.8237   22.2351 C   0  0  0  0  0  0  0  0  0  0  0  0
   21.3708   19.8694   22.2195 H   0  0  0  0  0  0  0  0  0  0  0  0
   20.8747   18.5211   21.1917 H   0  0  0  0  0  0  0  0  0  0  0  0
   19.7092   18.7140   23.0192 C   0  0  0  0  0  0  0  0  0  0  0  0
   19.8755   19.0125   24.0637 H   0  0  0  0  0  0  0  0  0  0  0  0
   19.3800   17.6656   23.0370 H   0  0  0  0  0  0  0  0  0  0  0  0
   18.5991   19.5939   22.4008 C   0  0  0  0  0  0  0  0  0  0  0  0
   18.9280   20.6423   22.3830 H   0  0  0  0  0  0  0  0  0  0  0  0
   18.4326   19.2956   21.3563 H   0  0  0  0  0  0  0  0  0  0  0  0
   17.2726   19.4839   23.1851 C   0  0  0  0  0  0  0  0  0  0  0  0
   17.4334   19.7837   24.2302 H   0  0  0  0  0  0  0  0  0  0  0  0
   16.9380   18.4372   23.2036 H   0  0  0  0  0  0  0  0  0  0  0  0
   16.1666   20.3639   22.5647 C   0  0  0  0  0  0  0  0  0  0  0  0
   15.2331   20.2726   23.1349 H   0  0  0  0  0  0  0  0  0  0  0  0
   15.9591   20.0652   21.5288 H   0  0  0  0  0  0  0  0  0  0  0  0
   16.4583   21.4222   22.5634 H   0  0  0  0  0  0  0  0  0  0  0  0
  1  2  1  0  0  0  0
  1  3  1  0  0  0  0
  1  4  1  0  0  0  0
  1  5  1  0  0  0  0
  5  6  1  0  0  0  0
  5  7  1  0  0  0  0
  5  8  1  0  0  0  0
  8  9  1  0  0  0  0
  8 10  1  0  0  0  0
  8 11  1  0  0  0  0
 11 12  1  0  0  0  0
 11 13  1  0  0  0  0
 11 14  1  0  0  0  0
 14 15  1  0  0  0  0
 14 16  1  0  0  0  0
 14 17  1  0  0  0  0
 17 18  1  0  0  0  0
 17 19  1  0  0  0  0
 17 20  1  0  0  0  0
 20 21  1  0  0  0  0
 20 22  1  0  0  0  0
 20 23  1  0  0  0  0
M  END
> <VConfSearch Rank>
865

> <Conf_Id>
40

> <Delta U+W>
0.000

> <U+W>
-8.382

> <U>
46.604

> <W>
-54.986

> <W(PB)>
-57.162

> <W(SA)>
2.176

> <Valence>
1.727

> <Coulomb>
44.434

> <VdW>
0.443

> <VdW6>
-4.623

> <VdW12>
5.066

> <Bond>
0.112

> <Angle>
0.386

> <Pdih>
1.228

> <Idih>
0.000

> <Tether>
0.000

$$$$
VeraChem MOL file


 23 22  0  0  0  0  0  0  0  0999 V2000     
   19.5448   16.2734   24.8880 N   0  3  0  0  0  0  0  0  0  0  0  0
   20.4388   15.7735   24.9306 H   0  0  0  0  0  0  0  0  0  0  0  0
   18.9047   15.6993   24.3299 H   0  0  0  0  0  0  0  0  0  0  0  0
   19.1702   16.2955   25.8425 H   0  0  0  0  0  0  0  0  0  0  0  0
   19.7027   17.6663   24.3128 C   0  0  0  0  0  0  0  0  0  0  0  0
   20.3716   18.2288   24.9697 H   0  0  0  0  0  0  0  0  0  0  0  0
   18.7215   18.1474   24.3269 H   0  0  0  0  0  0  0  0  0  0  0  0
   20.2645   17.6665   22.8784 C   0  0  0  0  0  0  0  0  0  0  0  0
   21.2273   17.1385   22.8716 H   0  0  0  0  0  0  0  0  0  0  0  0
   19.5924   17.1026   22.2178 H   0  0  0  0  0  0  0  0  0  0  0  0
   20.4716   19.0924   22.3149 C   0  0  0  0  0  0  0  0  0  0  0  0
   20.9767   19.0078   21.3440 H   0  0  0  0  0  0  0  0  0  0  0  0
   21.1520   19.6509   22.9726 H   0  0  0  0  0  0  0  0  0  0  0  0
   19.1460   19.8775   22.1446 C   0  0  0  0  0  0  0  0  0  0  0  0
   18.4743   19.3286   21.4703 H   0  0  0  0  0  0  0  0  0  0  0  0
   18.6294   19.9404   23.1114 H   0  0  0  0  0  0  0  0  0  0  0  0
   19.3470   21.3173   21.6125 C   0  0  0  0  0  0  0  0  0  0  0  0
   20.0100   21.8747   22.2890 H   0  0  0  0  0  0  0  0  0  0  0  0
   18.3795   21.8382   21.6333 H   0  0  0  0  0  0  0  0  0  0  0  0
   19.9081   21.3705   20.1732 C   0  0  0  0  0  0  0  0  0  0  0  0
   20.9299   20.9746   20.1229 H   0  0  0  0  0  0  0  0  0  0  0  0
   19.9387   22.4064   19.8112 H   0  0  0  0  0  0  0  0  0  0  0  0
   19.2802   20.7925   19.4828 H   0  0  0  0  0  0  0  0  0  0  0  0
  1  2  1  0  0  0  0
  1  3  1  0  0  0  0
  1  4  1  0  0  0  0
  1  5  1  0  0  0  0
  5  6  1  0  0  0  0
  5  7  1  0  0  0  0
  5  8  1  0  0  0  0
  8  9  1  0  0  0  0
  8 10  1  0  0  0  0
  8 11  1  0  0  0  0
 11 12  1  0  0  0  0
 11 13  1  0  0  0  0
 11 14  1  0  0  0  0
 14 15  1  0  0  0  0
 14 16  1  0  0  0  0
 14 17  1  0  0  0  0
 17 18  1  0  0  0  0
 17 19  1  0  0  0  0
 17 20  1  0  0  0  0
 20 21  1  0  0  0  0
 20 22  1  0  0  0  0
 20 23  1  0  0  0  0
M  END
> <VConfSearch Rank>
866

> <Conf_Id>
65

> <Delta U+W>
1.004

> <U+W>
-7.378

> <U>
48.047

> <W>
-55.425

> <W(PB)>
-57.542

> <W(SA)>
2.116

> <Valence>
2.583

> <Coulomb>
44.791

> <VdW>
0.673

> <VdW6>
-5.788

> <VdW12>
6.462

> <Bond>
0.177

> <Angle>
0.787

> <Pdih>
1.619

> <Idih>
0.000

> <Tether>
0.000

$$$$
VeraChem MOL file


 23 22  0  0  0  0  0  0  0  0999 V2000     
   22.7576   20.7259   23.5743 N   0  3  0  0  0  0  0  0  0  0  0  0
   22.5494   21.6986   23.8217 H   0  0  0  0  0  0  0  0  0  0  0  0
   23.6508   20.7315   23.0701 H   0  0  0  0  0  0  0  0  0  0  0  0
   22.9136   20.2185   24.4512 H   0  0  0  0  0  0  0  0  0  0  0  0
   21.6496   20.1026   22.7498 C   0  0  0  0  0  0  0  0  0  0  0  0
   21.9526   19.0830   22.4983 H   0  0  0  0  0  0  0  0  0  0  0  0
   21.5575   20.6733   21.8218 H   0  0  0  0  0  0  0  0  0  0  0  0
   20.2937   20.0797   23.4806 C   0  0  0  0  0  0  0  0  0  0  0  0
   20.3853   19.5055   24.4122 H   0  0  0  0  0  0  0  0  0  0  0  0
   20.0257   21.1050   23.7686 H   0  0  0  0  0  0  0  0  0  0  0  0
   19.1552   19.4889   22.6154 C   0  0  0  0  0  0  0  0  0  0  0  0
   19.0595   20.0714   21.6886 H   0  0  0  0  0  0  0  0  0  0  0  0
   18.2104   19.6131   23.1602 H   0  0  0  0  0  0  0  0  0  0  0  0
   19.3654   17.9917   22.2736 C   0  0  0  0  0  0  0  0  0  0  0  0
   20.3224   17.8651   21.7505 H   0  0  0  0  0  0  0  0  0  0  0  0
   19.4403   17.4070   23.2008 H   0  0  0  0  0  0  0  0  0  0  0  0
   18.2475   17.4011   21.3803 C   0  0  0  0  0  0  0  0  0  0  0  0
   18.5315   16.3797   21.0907 H   0  0  0  0  0  0  0  0  0  0  0  0
   18.1751   17.9759   20.4464 H   0  0  0  0  0  0  0  0  0  0  0  0
   16.8655   17.3547   22.0713 C   0  0  0  0  0  0  0  0  0  0  0  0
   16.4782   18.3618   22.2683 H   0  0  0  0  0  0  0  0  0  0  0  0
   16.9185   16.8131   23.0246 H   0  0  0  0  0  0  0  0  0  0  0  0
   16.1349   16.8403   21.4337 H   0  0  0  0  0  0  0  0  0  0  0  0
  1  2  1  0  0  0  0
  1  3  1  0  0  0  0
  1  4  1  0  0  0  0
  1  5  1  0  0  0  0
  5  6  1  0  0  0  0
  5  7  1  0  0  0  0
  5  8  1  0  0  0  0
  8  9  1  0  0  0  0
  8 10  1  0  0  0  0
  8 11  1  0  0  0  0
 11 12  1  0  0  0  0
 11 13  1  0  0  0  0
 11 14  1  0  0  0  0
 14 15  1  0  0  0  0
 14 16  1  0  0  0  0
 14 17  1  0  0  0  0
 17 18  1  0  0  0  0
 17 19  1  0  0  0  0
 17 20  1  0  0  0  0
 20 21  1  0  0  0  0
 20 22  1  0  0  0  0
 20 23  1  0  0  0  0
M  END
> <VConfSearch Rank>
867

> <Conf_Id>
92

> <Delta U+W>
0.973

> <U+W>
-7.409

> <U>
48.047

> <W>
-55.456

> <W(PB)>
-57.595

> <W(SA)>
2.138

> <Valence>
2.583

> <Coulomb>
44.791

> <VdW>
0.674

> <VdW6>
-5.789

> <VdW12>
6.462

> <Bond>
0.177

> <Angle>
0.787

> <Pdih>
1.619

> <Idih>
0.000

> <Tether>
0.000

$$$$
VeraChem MOL file


 23 22  0  0  0  0  0  0  0  0999 V2000     
   18.0639   21.1894   20.4245 N   0  3  0  0  0  0  0  0  0  0  0  0
   18.5607   21.6680   19.6654 H   0  0  0  0  0  0  0  0  0  0  0  0
   17.4542   21.8851   20.8662 H   0  0  0  0  0  0  0  0  0  0  0  0
   17.4556   20.4895   19.9876 H   0  0  0  0  0  0  0  0  0  0  0  0
   19.0219   20.5648   21.4184 C   0  0  0  0  0  0  0  0  0  0  0  0
   19.6554   21.3593   21.8217 H   0  0  0  0  0  0  0  0  0  0  0  0
   19.6569   19.8607   20.8747 H   0  0  0  0  0  0  0  0  0  0  0  0
   18.3053   19.8377   22.5720 C   0  0  0  0  0  0  0  0  0  0  0  0
   17.6374   20.5449   23.0817 H   0  0  0  0  0  0  0  0  0  0  0  0
   17.6683   19.0402   22.1668 H   0  0  0  0  0  0  0  0  0  0  0  0
   19.2893   19.2421   23.6065 C   0  0  0  0  0  0  0  0  0  0  0  0
   18.7112   18.8237   24.4420 H   0  0  0  0  0  0  0  0  0  0  0  0
   19.9078   20.0462   24.0289 H   0  0  0  0  0  0  0  0  0  0  0  0
   20.1995   18.1389   23.0149 C   0  0  0  0  0  0  0  0  0  0  0  0
   19.5781   17.3527   22.5641 H   0  0  0  0  0  0  0  0  0  0  0  0
   20.8196   18.5553   22.2098 H   0  0  0  0  0  0  0  0  0  0  0  0
   21.1175   17.5151   24.0895 C   0  0  0  0  0  0  0  0  0  0  0  0
   20.5068   17.0874   24.8970 H   0  0  0  0  0  0  0  0  0  0  0  0
   21.7410   18.2976   24.5444 H   0  0  0  0  0  0  0  0  0  0  0  0
   22.0257   16.4160   23.4982 C   0  0  0  0  0  0  0  0  0  0  0  0
   21.4297   15.6021   23.0651 H   0  0  0  0  0  0  0  0  0  0  0  0
   22.6693   15.9851   24.2760 H   0  0  0  0  0  0  0  0  0  0  0  0
   22.6744   16.8212   22.7107 H   0  0  0  0  0  0  0  0  0  0  0  0
  1  2  1  0  0  0  0
  1  3  1  0  0  0  0
  1  4  1  0  0  0  0
  1  5  1  0  0  0  0
  5  6  1  0  0  0  0
  5  7  1  0  0  0  0
  5  8  1  0  0  0  0
  8  9  1  0  0  0  0
  8 10  1  0  0  0  0
  8 11  1  0  0  0  0
 11 12  1  0  0  0  0
 11 13  1  0  0  0  0
 11 14  1  0  0  0  0
 14 15  1  0  0  0  0
 14 16  1  0  0  0  0
 14 17  1  0  0  0  0
 17 18  1  0  0  0  0
 17 19  1  0  0  0  0
 17 20  1  0  0  0  0
 20 21  1  0  0  0  0
 20 22  1  0  0  0  0
 20 23  1  0  0  0  0
M  END
> <VConfSearch Rank>
868

> <Conf_Id>
42

> <Delta U+W>
0.365

> <U+W>
-8.017

> <U>
47.375

> <W>
-55.392

> <W(PB)>
-57.543

> <W(SA)>
2.152

> <Valence>
2.032

> <Coulomb>
44.843

> <VdW>
0.499

> <VdW6>
-5.218

> <VdW12>
5.717

> <Bond>
0.135

> <Angle>
0.514

> <Pdih>
1.383

> <Idih>
0.000

> <Tether>
0.000

$$$$
VeraChem MOL file


 23 22  0  0  0  0  0  0  0  0999 V2000     
   17.9785   19.7083   20.0879 N   0  3  0  0  0  0  0  0  0  0  0  0
   17.0978   19.5358   20.5831 H   0  0  0  0  0  0  0  0  0  0  0  0
   17.7612   19.7157   19.0856 H   0  0  0  0  0  0  0  0  0  0  0  0
   18.2843   20.6544   20.3345 H   0  0  0  0  0  0  0  0  0  0  0  0
   19.0294   18.6693   20.4281 C   0  0  0  0  0  0  0  0  0  0  0  0
   19.9307   18.8958   19.8521 H   0  0  0  0  0  0  0  0  0  0  0  0
   18.6510   17.6975   20.0996 H   0  0  0  0  0  0  0  0  0  0  0  0
   19.3757   18.6004   21.9283 C   0  0  0  0  0  0  0  0  0  0  0  0
   18.4643   18.4003   22.5069 H   0  0  0  0  0  0  0  0  0  0  0  0
   20.0451   17.7446   22.0786 H   0  0  0  0  0  0  0  0  0  0  0  0
   20.0635   19.8882   22.4435 C   0  0  0  0  0  0  0  0  0  0  0  0
   19.4398   20.7581   22.1994 H   0  0  0  0  0  0  0  0  0  0  0  0
   21.0123   20.0328   21.9086 H   0  0  0  0  0  0  0  0  0  0  0  0
   20.3267   19.9048   23.9718 C   0  0  0  0  0  0  0  0  0  0  0  0
   20.7725   20.8782   24.2192 H   0  0  0  0  0  0  0  0  0  0  0  0
   19.3747   19.8688   24.5193 H   0  0  0  0  0  0  0  0  0  0  0  0
   21.2812   18.7944   24.4819 C   0  0  0  0  0  0  0  0  0  0  0  0
   21.8929   19.2059   25.2971 H   0  0  0  0  0  0  0  0  0  0  0  0
   21.9877   18.5045   23.6917 H   0  0  0  0  0  0  0  0  0  0  0  0
   20.5403   17.5499   25.0248 C   0  0  0  0  0  0  0  0  0  0  0  0
   19.8880   17.8187   25.8658 H   0  0  0  0  0  0  0  0  0  0  0  0
   21.2586   16.8030   25.3868 H   0  0  0  0  0  0  0  0  0  0  0  0
   19.9212   17.0707   24.2585 H   0  0  0  0  0  0  0  0  0  0  0  0
  1  2  1  0  0  0  0
  1  3  1  0  0  0  0
  1  4  1  0  0  0  0
  1  5  1  0  0  0  0
  5  6  1  0  0  0  0
  5  7  1  0  0  0  0
  5  8  1  0  0  0  0
  8  9  1  0  0  0  0
  8 10  1  0  0  0  0
  8 11  1  0  0  0  0
 11 12  1  0  0  0  0
 11 13  1  0  0  0  0
 11 14  1  0  0  0  0
 14 15  1  0  0  0  0
 14 16  1  0  0  0  0
 14 17  1  0  0  0  0
 17 18  1  0  0  0  0
 17 19  1  0  0  0  0
 17 20  1  0  0  0  0
 20 21  1  0  0  0  0
 20 22  1  0  0  0  0
 20 23  1  0  0  0  0
M  END
> <VConfSearch Rank>
869

> <Conf_Id>
3

> <Delta U+W>
3.283

> <U+W>
-5.099

> <U>
50.701

> <W>
-55.800

> <W(PB)>
-57.867

> <W(SA)>
2.067

> <Valence>
4.880

> <Coulomb>
45.095

> <VdW>
0.726

> <VdW6>
-6.620

> <VdW12>
7.346

> <Bond>
0.222

> <Angle>
1.260

> <Pdih>
3.398

> <Idih>
0.000

> <Tether>
0.000

$$$$
VeraChem MOL file


 23 22  0  0  0  0  0  0  0  0999 V2000     
   19.2949   21.9167   22.8323 N   0  3  0  0  0  0  0  0  0  0  0  0
   18.3173   22.1762   22.6664 H   0  0  0  0  0  0  0  0  0  0  0  0
   19.7942   22.7764   23.0839 H   0  0  0  0  0  0  0  0  0  0  0  0
   19.3114   21.3072   23.6557 H   0  0  0  0  0  0  0  0  0  0  0  0
   19.9109   21.2405   21.6233 C   0  0  0  0  0  0  0  0  0  0  0  0
   20.9559   21.0191   21.8543 H   0  0  0  0  0  0  0  0  0  0  0  0
   19.8915   21.9556   20.7965 H   0  0  0  0  0  0  0  0  0  0  0  0
   19.1840   19.9481   21.1982 C   0  0  0  0  0  0  0  0  0  0  0  0
   18.1506   20.1940   20.9199 H   0  0  0  0  0  0  0  0  0  0  0  0
   19.6606   19.5588   20.2887 H   0  0  0  0  0  0  0  0  0  0  0  0
   19.1715   18.8406   22.2820 C   0  0  0  0  0  0  0  0  0  0  0  0
   18.5979   17.9899   21.8919 H   0  0  0  0  0  0  0  0  0  0  0  0
   18.6302   19.1925   23.1702 H   0  0  0  0  0  0  0  0  0  0  0  0
   20.5908   18.3665   22.6862 C   0  0  0  0  0  0  0  0  0  0  0  0
   21.1211   17.9890   21.8010 H   0  0  0  0  0  0  0  0  0  0  0  0
   21.1734   19.2213   23.0539 H   0  0  0  0  0  0  0  0  0  0  0  0
   20.5866   17.2790   23.7878 C   0  0  0  0  0  0  0  0  0  0  0  0
   20.0667   17.6550   24.6801 H   0  0  0  0  0  0  0  0  0  0  0  0
   21.6239   17.0862   24.0956 H   0  0  0  0  0  0  0  0  0  0  0  0
   19.9474   15.9459   23.3364 C   0  0  0  0  0  0  0  0  0  0  0  0
   20.4282   15.5657   22.4258 H   0  0  0  0  0  0  0  0  0  0  0  0
   18.8745   16.0590   23.1379 H   0  0  0  0  0  0  0  0  0  0  0  0
   20.0586   15.1830   24.1178 H   0  0  0  0  0  0  0  0  0  0  0  0
  1  2  1  0  0  0  0
  1  3  1  0  0  0  0
  1  4  1  0  0  0  0
  1  5  1  0  0  0  0
  5  6  1  0  0  0  0
  5  7  1  0  0  0  0
  5  8  1  0  0  0  0
  8  9  1  0  0  0  0
  8 10  1  0  0  0  0
  8 11  1  0  0  0  0
 11 12  1  0  0  0  0
 11 13  1  0  0  0  0
 11 14  1  0  0  0  0
 14 15  1  0  0  0  0
 14 16  1  0  0  0  0
 14 17  1  0  0  0  0
 17 18  1  0  0  0  0
 17 19  1  0  0  0  0
 17 20  1  0  0  0  0
 20 21  1  0  0  0  0
 20 22  1  0  0  0  0
 20 23  1  0  0  0  0
M  END
> <VConfSearch Rank>
870

> <Conf_Id>
83

> <Delta U+W>
1.229

> <U+W>
-7.154

> <U>
48.727

> <W>
-55.880

> <W(PB)>
-57.960

> <W(SA)>
2.080

> <Valence>
2.671

> <Coulomb>
45.371

> <VdW>
0.684

> <VdW6>
-6.511

> <VdW12>
7.195

> <Bond>
0.203

> <Angle>
0.915

> <Pdih>
1.554

> <Idih>
0.000

> <Tether>
0.000

$$$$
VeraChem MOL file


 23 22  0  0  0  0  0  0  0  0999 V2000     
   19.4398   21.0567   20.5123 N   0  3  0  0  0  0  0  0  0  0  0  0
   18.7659   21.7922   20.7478 H   0  0  0  0  0  0  0  0  0  0  0  0
   18.9209   20.1747   20.4620 H   0  0  0  0  0  0  0  0  0  0  0  0
   19.7843   21.2577   19.5674 H   0  0  0  0  0  0  0  0  0  0  0  0
   20.5696   20.9843   21.5205 C   0  0  0  0  0  0  0  0  0  0  0  0
   21.0985   21.9409   21.4965 H   0  0  0  0  0  0  0  0  0  0  0  0
   21.2646   20.2057   21.1958 H   0  0  0  0  0  0  0  0  0  0  0  0
   20.0981   20.6971   22.9608 C   0  0  0  0  0  0  0  0  0  0  0  0
   20.9704   20.7167   23.6275 H   0  0  0  0  0  0  0  0  0  0  0  0
   19.4423   21.5132   23.2919 H   0  0  0  0  0  0  0  0  0  0  0  0
   19.3574   19.3463   23.1291 C   0  0  0  0  0  0  0  0  0  0  0  0
   18.4411   19.3442   22.5240 H   0  0  0  0  0  0  0  0  0  0  0  0
   19.0331   19.2646   24.1746 H   0  0  0  0  0  0  0  0  0  0  0  0
   20.2321   18.1208   22.7608 C   0  0  0  0  0  0  0  0  0  0  0  0
   20.5769   18.2137   21.7226 H   0  0  0  0  0  0  0  0  0  0  0  0
   21.1351   18.1091   23.3864 H   0  0  0  0  0  0  0  0  0  0  0  0
   19.4897   16.7697   22.9010 C   0  0  0  0  0  0  0  0  0  0  0  0
   20.1367   15.9710   22.5120 H   0  0  0  0  0  0  0  0  0  0  0  0
   18.5908   16.7715   22.2687 H   0  0  0  0  0  0  0  0  0  0  0  0
   19.1007   16.4276   24.3573 C   0  0  0  0  0  0  0  0  0  0  0  0
   19.9781   16.4518   25.0166 H   0  0  0  0  0  0  0  0  0  0  0  0
   18.6676   15.4205   24.4124 H   0  0  0  0  0  0  0  0  0  0  0  0
   18.3544   17.1283   24.7515 H   0  0  0  0  0  0  0  0  0  0  0  0
  1  2  1  0  0  0  0
  1  3  1  0  0  0  0
  1  4  1  0  0  0  0
  1  5  1  0  0  0  0
  5  6  1  0  0  0  0
  5  7  1  0  0  0  0
  5  8  1  0  0  0  0
  8  9  1  0  0  0  0
  8 10  1  0  0  0  0
  8 11  1  0  0  0  0
 11 12  1  0  0  0  0
 11 13  1  0  0  0  0
 11 14  1  0  0  0  0
 14 15  1  0  0  0  0
 14 16  1  0  0  0  0
 14 17  1  0  0  0  0
 17 18  1  0  0  0  0
 17 19  1  0  0  0  0
 17 20  1  0  0  0  0
 20 21  1  0  0  0  0
 20 22  1  0  0  0  0
 20 23  1  0  0  0  0
M  END
> <VConfSearch Rank>
871

> <Conf_Id>
50

> <Delta U+W>
1.252

> <U+W>
-7.130

> <U>
48.727

> <W>
-55.857

> <W(PB)>
-57.937

> <W(SA)>
2.080

> <Valence>
2.671

> <Coulomb>
45.371

> <VdW>
0.684

> <VdW6>
-6.511

> <VdW12>
7.196

> <Bond>
0.203

> <Angle>
0.915

> <Pdih>
1.554

> <Idih>
0.000

> <Tether>
0.000

$$$$
VeraChem MOL file


 23 22  0  0  0  0  0  0  0  0999 V2000     
   17.5834   17.9128   24.6170 N   0  3  0  0  0  0  0  0  0  0  0  0
   18.4184   17.9461   25.2095 H   0  0  0  0  0  0  0  0  0  0  0  0
   17.0365   17.0980   24.9156 H   0  0  0  0  0  0  0  0  0  0  0  0
   17.0241   18.7438   24.8342 H   0  0  0  0  0  0  0  0  0  0  0  0
   17.9402   17.8422   23.1450 C   0  0  0  0  0  0  0  0  0  0  0  0
   17.0064   17.7680   22.5810 H   0  0  0  0  0  0  0  0  0  0  0  0
   18.5124   16.9256   22.9780 H   0  0  0  0  0  0  0  0  0  0  0  0
   18.7459   19.0552   22.6409 C   0  0  0  0  0  0  0  0  0  0  0  0
   18.8576   18.9649   21.5546 H   0  0  0  0  0  0  0  0  0  0  0  0
   18.1695   19.9734   22.8154 H   0  0  0  0  0  0  0  0  0  0  0  0
   20.1366   19.1705   23.3157 C   0  0  0  0  0  0  0  0  0  0  0  0
   20.6841   18.2218   23.2281 H   0  0  0  0  0  0  0  0  0  0  0  0
   19.9896   19.3392   24.3908 H   0  0  0  0  0  0  0  0  0  0  0  0
   20.9970   20.3340   22.7571 C   0  0  0  0  0  0  0  0  0  0  0  0
   20.3518   21.1483   22.3994 H   0  0  0  0  0  0  0  0  0  0  0  0
   21.5771   20.7600   23.5875 H   0  0  0  0  0  0  0  0  0  0  0  0
   22.0014   19.9239   21.6499 C   0  0  0  0  0  0  0  0  0  0  0  0
   22.7073   19.1823   22.0493 H   0  0  0  0  0  0  0  0  0  0  0  0
   22.6038   20.8034   21.3827 H   0  0  0  0  0  0  0  0  0  0  0  0
   21.3442   19.3666   20.3683 C   0  0  0  0  0  0  0  0  0  0  0  0
   20.5895   20.0604   19.9760 H   0  0  0  0  0  0  0  0  0  0  0  0
   20.8658   18.3972   20.5548 H   0  0  0  0  0  0  0  0  0  0  0  0
   22.0987   19.2140   19.5858 H   0  0  0  0  0  0  0  0  0  0  0  0
  1  2  1  0  0  0  0
  1  3  1  0  0  0  0
  1  4  1  0  0  0  0
  1  5  1  0  0  0  0
  5  6  1  0  0  0  0
  5  7  1  0  0  0  0
  5  8  1  0  0  0  0
  8  9  1  0  0  0  0
  8 10  1  0  0  0  0
  8 11  1  0  0  0  0
 11 12  1  0  0  0  0
 11 13  1  0  0  0  0
 11 14  1  0  0  0  0
 14 15  1  0  0  0  0
 14 16  1  0  0  0  0
 14 17  1  0  0  0  0
 17 18  1  0  0  0  0
 17 19  1  0  0  0  0
 17 20  1  0  0  0  0
 20 21  1  0  0  0  0
 20 22  1  0  0  0  0
 20 23  1  0  0  0  0
M  END
> <VConfSearch Rank>
872

> <Conf_Id>
55

> <Delta U+W>
3.232

> <U+W>
-5.150

> <U>
50.625

> <W>
-55.776

> <W(PB)>
-57.839

> <W(SA)>
2.064

> <Valence>
4.837

> <Coulomb>
45.097

> <VdW>
0.692

> <VdW6>
-6.655

> <VdW12>
7.347

> <Bond>
0.223

> <Angle>
1.167

> <Pdih>
3.447

> <Idih>
0.000

> <Tether>
0.000

$$$$
VeraChem MOL file


 23 22  0  0  0  0  0  0  0  0999 V2000     
   21.5361   16.4193   22.1534 N   0  3  0  0  0  0  0  0  0  0  0  0
   21.8842   16.1471   21.2285 H   0  0  0  0  0  0  0  0  0  0  0  0
   21.3043   15.5529   22.6510 H   0  0  0  0  0  0  0  0  0  0  0  0
   22.3191   16.8508   22.6550 H   0  0  0  0  0  0  0  0  0  0  0  0
   20.3441   17.3497   22.0573 C   0  0  0  0  0  0  0  0  0  0  0  0
   20.0075   17.5662   23.0728 H   0  0  0  0  0  0  0  0  0  0  0  0
   19.5426   16.8164   21.5392 H   0  0  0  0  0  0  0  0  0  0  0  0
   20.6607   18.6588   21.3077 C   0  0  0  0  0  0  0  0  0  0  0  0
   21.4960   19.1833   21.7903 H   0  0  0  0  0  0  0  0  0  0  0  0
   21.0011   18.3981   20.2966 H   0  0  0  0  0  0  0  0  0  0  0  0
   19.4371   19.6021   21.1877 C   0  0  0  0  0  0  0  0  0  0  0  0
   18.5233   19.0142   21.0234 H   0  0  0  0  0  0  0  0  0  0  0  0
   19.5640   20.2124   20.2827 H   0  0  0  0  0  0  0  0  0  0  0  0
   19.2394   20.5725   22.3813 C   0  0  0  0  0  0  0  0  0  0  0  0
   20.1176   21.2268   22.4703 H   0  0  0  0  0  0  0  0  0  0  0  0
   18.3915   21.2316   22.1487 H   0  0  0  0  0  0  0  0  0  0  0  0
   18.9768   19.8795   23.7382 C   0  0  0  0  0  0  0  0  0  0  0  0
   19.8762   19.3404   24.0629 H   0  0  0  0  0  0  0  0  0  0  0  0
   18.1729   19.1380   23.6301 H   0  0  0  0  0  0  0  0  0  0  0  0
   18.5902   20.8977   24.8320 C   0  0  0  0  0  0  0  0  0  0  0  0
   17.6701   21.4341   24.5656 H   0  0  0  0  0  0  0  0  0  0  0  0
   19.3869   21.6383   24.9809 H   0  0  0  0  0  0  0  0  0  0  0  0
   18.4182   20.3906   25.7903 H   0  0  0  0  0  0  0  0  0  0  0  0
  1  2  1  0  0  0  0
  1  3  1  0  0  0  0
  1  4  1  0  0  0  0
  1  5  1  0  0  0  0
  5  6  1  0  0  0  0
  5  7  1  0  0  0  0
  5  8  1  0  0  0  0
  8  9  1  0  0  0  0
  8 10  1  0  0  0  0
  8 11  1  0  0  0  0
 11 12  1  0  0  0  0
 11 13  1  0  0  0  0
 11 14  1  0  0  0  0
 14 15  1  0  0  0  0
 14 16  1  0  0  0  0
 14 17  1  0  0  0  0
 17 18  1  0  0  0  0
 17 19  1  0  0  0  0
 17 20  1  0  0  0  0
 20 21  1  0  0  0  0
 20 22  1  0  0  0  0
 20 23  1  0  0  0  0
M  END
> <VConfSearch Rank>
873

> <Conf_Id>
93

> <Delta U+W>
2.589

> <U+W>
-5.793

> <U>
50.122

> <W>
-55.915

> <W(PB)>
-58.031

> <W(SA)>
2.115

> <Valence>
4.132

> <Coulomb>
45.536

> <VdW>
0.454

> <VdW6>
-6.262

> <VdW12>
6.715

> <Bond>
0.182

> <Angle>
1.157

> <Pdih>
2.794

> <Idih>
0.000

> <Tether>
0.000

$$$$
VeraChem MOL file


 23 22  0  0  0  0  0  0  0  0999 V2000     
   20.3877   20.9879   20.2973 N   0  3  0  0  0  0  0  0  0  0  0  0
   21.0270   21.4798   20.9299 H   0  0  0  0  0  0  0  0  0  0  0  0
   19.6936   21.6741   19.9820 H   0  0  0  0  0  0  0  0  0  0  0  0
   20.9314   20.7143   19.4724 H   0  0  0  0  0  0  0  0  0  0  0  0
   19.7366   19.7946   20.9663 C   0  0  0  0  0  0  0  0  0  0  0  0
   19.0509   19.3389   20.2469 H   0  0  0  0  0  0  0  0  0  0  0  0
   19.1492   20.1642   21.8087 H   0  0  0  0  0  0  0  0  0  0  0  0
   20.7557   18.7419   21.4448 C   0  0  0  0  0  0  0  0  0  0  0  0
   21.3288   18.4017   20.5719 H   0  0  0  0  0  0  0  0  0  0  0  0
   21.4804   19.1968   22.1332 H   0  0  0  0  0  0  0  0  0  0  0  0
   20.0910   17.5095   22.1086 C   0  0  0  0  0  0  0  0  0  0  0  0
   20.7545   16.6453   21.9656 H   0  0  0  0  0  0  0  0  0  0  0  0
   19.1583   17.2573   21.5851 H   0  0  0  0  0  0  0  0  0  0  0  0
   19.8272   17.6487   23.6306 C   0  0  0  0  0  0  0  0  0  0  0  0
   19.4239   16.6941   23.9960 H   0  0  0  0  0  0  0  0  0  0  0  0
   20.7812   17.7965   24.1554 H   0  0  0  0  0  0  0  0  0  0  0  0
   18.8502   18.7841   24.0138 C   0  0  0  0  0  0  0  0  0  0  0  0
   17.9357   18.7105   23.4089 H   0  0  0  0  0  0  0  0  0  0  0  0
   19.3065   19.7588   23.7980 H   0  0  0  0  0  0  0  0  0  0  0  0
   18.4788   18.7342   25.5113 C   0  0  0  0  0  0  0  0  0  0  0  0
   17.7940   19.5528   25.7682 H   0  0  0  0  0  0  0  0  0  0  0  0
   19.3717   18.8312   26.1426 H   0  0  0  0  0  0  0  0  0  0  0  0
   17.9821   17.7884   25.7643 H   0  0  0  0  0  0  0  0  0  0  0  0
  1  2  1  0  0  0  0
  1  3  1  0  0  0  0
  1  4  1  0  0  0  0
  1  5  1  0  0  0  0
  5  6  1  0  0  0  0
  5  7  1  0  0  0  0
  5  8  1  0  0  0  0
  8  9  1  0  0  0  0
  8 10  1  0  0  0  0
  8 11  1  0  0  0  0
 11 12  1  0  0  0  0
 11 13  1  0  0  0  0
 11 14  1  0  0  0  0
 14 15  1  0  0  0  0
 14 16  1  0  0  0  0
 14 17  1  0  0  0  0
 17 18  1  0  0  0  0
 17 19  1  0  0  0  0
 17 20  1  0  0  0  0
 20 21  1  0  0  0  0
 20 22  1  0  0  0  0
 20 23  1  0  0  0  0
M  END
> <VConfSearch Rank>
874

> <Conf_Id>
70

> <Delta U+W>
2.599

> <U+W>
-5.783

> <U>
50.122

> <W>
-55.906

> <W(PB)>
-58.010

> <W(SA)>
2.105

> <Valence>
4.132

> <Coulomb>
45.536

> <VdW>
0.454

> <VdW6>
-6.262

> <VdW12>
6.715

> <Bond>
0.182

> <Angle>
1.157

> <Pdih>
2.794

> <Idih>
0.000

> <Tether>
0.000

$$$$
VeraChem MOL file


 23 22  0  0  0  0  0  0  0  0999 V2000     
   16.9825   18.7397   22.6960 N   0  3  0  0  0  0  0  0  0  0  0  0
   16.3363   19.5223   22.8385 H   0  0  0  0  0  0  0  0  0  0  0  0
   16.4389   17.8778   22.8116 H   0  0  0  0  0  0  0  0  0  0  0  0
   17.2889   18.7740   21.7190 H   0  0  0  0  0  0  0  0  0  0  0  0
   18.1569   18.7982   23.6529 C   0  0  0  0  0  0  0  0  0  0  0  0
   18.7861   17.9227   23.4724 H   0  0  0  0  0  0  0  0  0  0  0  0
   17.7616   18.7284   24.6699 H   0  0  0  0  0  0  0  0  0  0  0  0
   19.0006   20.0818   23.5180 C   0  0  0  0  0  0  0  0  0  0  0  0
   18.3672   20.9521   23.7351 H   0  0  0  0  0  0  0  0  0  0  0  0
   19.7781   20.0777   24.2925 H   0  0  0  0  0  0  0  0  0  0  0  0
   19.6543   20.2627   22.1226 C   0  0  0  0  0  0  0  0  0  0  0  0
   20.2640   21.1767   22.1333 H   0  0  0  0  0  0  0  0  0  0  0  0
   18.8691   20.4391   21.3752 H   0  0  0  0  0  0  0  0  0  0  0  0
   20.5330   19.0740   21.6541 C   0  0  0  0  0  0  0  0  0  0  0  0
   19.9185   18.1702   21.5466 H   0  0  0  0  0  0  0  0  0  0  0  0
   20.9151   19.3010   20.6492 H   0  0  0  0  0  0  0  0  0  0  0  0
   21.7285   18.7821   22.5914 C   0  0  0  0  0  0  0  0  0  0  0  0
   21.3672   18.4833   23.5844 H   0  0  0  0  0  0  0  0  0  0  0  0
   22.3229   19.6960   22.7300 H   0  0  0  0  0  0  0  0  0  0  0  0
   22.6321   17.6638   22.0300 C   0  0  0  0  0  0  0  0  0  0  0  0
   23.4730   17.4680   22.7080 H   0  0  0  0  0  0  0  0  0  0  0  0
   23.0461   17.9436   21.0525 H   0  0  0  0  0  0  0  0  0  0  0  0
   22.0720   16.7275   21.9088 H   0  0  0  0  0  0  0  0  0  0  0  0
  1  2  1  0  0  0  0
  1  3  1  0  0  0  0
  1  4  1  0  0  0  0
  1  5  1  0  0  0  0
  5  6  1  0  0  0  0
  5  7  1  0  0  0  0
  5  8  1  0  0  0  0
  8  9  1  0  0  0  0
  8 10  1  0  0  0  0
  8 11  1  0  0  0  0
 11 12  1  0  0  0  0
 11 13  1  0  0  0  0
 11 14  1  0  0  0  0
 14 15  1  0  0  0  0
 14 16  1  0  0  0  0
 14 17  1  0  0  0  0
 17 18  1  0  0  0  0
 17 19  1  0  0  0  0
 17 20  1  0  0  0  0
 20 21  1  0  0  0  0
 20 22  1  0  0  0  0
 20 23  1  0  0  0  0
M  END
> <VConfSearch Rank>
875

> <Conf_Id>
72

> <Delta U+W>
1.051

> <U+W>
-7.331

> <U>
48.590

> <W>
-55.922

> <W(PB)>
-58.012

> <W(SA)>
2.090

> <Valence>
2.601

> <Coulomb>
45.520

> <VdW>
0.469

> <VdW6>
-6.867

> <VdW12>
7.336

> <Bond>
0.205

> <Angle>
0.962

> <Pdih>
1.434

> <Idih>
0.000

> <Tether>
0.000

$$$$
VeraChem MOL file


 23 22  0  0  0  0  0  0  0  0999 V2000     
   18.3525   16.2273   23.2187 N   0  3  0  0  0  0  0  0  0  0  0  0
   17.3958   16.0310   23.5319 H   0  0  0  0  0  0  0  0  0  0  0  0
   18.9564   15.5157   23.6427 H   0  0  0  0  0  0  0  0  0  0  0  0
   18.3717   16.0743   22.2053 H   0  0  0  0  0  0  0  0  0  0  0  0
   18.7885   17.6307   23.5874 C   0  0  0  0  0  0  0  0  0  0  0  0
   18.7167   17.7327   24.6735 H   0  0  0  0  0  0  0  0  0  0  0  0
   18.0866   18.3320   23.1286 H   0  0  0  0  0  0  0  0  0  0  0  0
   20.2225   17.9575   23.1303 C   0  0  0  0  0  0  0  0  0  0  0  0
   20.9143   17.2249   23.5667 H   0  0  0  0  0  0  0  0  0  0  0  0
   20.2991   17.8429   22.0415 H   0  0  0  0  0  0  0  0  0  0  0  0
   20.6728   19.3799   23.5462 C   0  0  0  0  0  0  0  0  0  0  0  0
   21.7063   19.5414   23.2118 H   0  0  0  0  0  0  0  0  0  0  0  0
   20.7049   19.4351   24.6432 H   0  0  0  0  0  0  0  0  0  0  0  0
   19.7713   20.5289   23.0192 C   0  0  0  0  0  0  0  0  0  0  0  0
   18.7801   20.4589   23.4871 H   0  0  0  0  0  0  0  0  0  0  0  0
   20.1901   21.4865   23.3581 H   0  0  0  0  0  0  0  0  0  0  0  0
   19.5967   20.5769   21.4799 C   0  0  0  0  0  0  0  0  0  0  0  0
   18.9338   21.4167   21.2288 H   0  0  0  0  0  0  0  0  0  0  0  0
   19.0826   19.6727   21.1275 H   0  0  0  0  0  0  0  0  0  0  0  0
   20.9295   20.7502   20.7170 C   0  0  0  0  0  0  0  0  0  0  0  0
   21.4681   21.6424   21.0618 H   0  0  0  0  0  0  0  0  0  0  0  0
   20.7449   20.8643   19.6410 H   0  0  0  0  0  0  0  0  0  0  0  0
   21.5850   19.8805   20.8495 H   0  0  0  0  0  0  0  0  0  0  0  0
  1  2  1  0  0  0  0
  1  3  1  0  0  0  0
  1  4  1  0  0  0  0
  1  5  1  0  0  0  0
  5  6  1  0  0  0  0
  5  7  1  0  0  0  0
  5  8  1  0  0  0  0
  8  9  1  0  0  0  0
  8 10  1  0  0  0  0
  8 11  1  0  0  0  0
 11 12  1  0  0  0  0
 11 13  1  0  0  0  0
 11 14  1  0  0  0  0
 14 15  1  0  0  0  0
 14 16  1  0  0  0  0
 14 17  1  0  0  0  0
 17 18  1  0  0  0  0
 17 19  1  0  0  0  0
 17 20  1  0  0  0  0
 20 21  1  0  0  0  0
 20 22  1  0  0  0  0
 20 23  1  0  0  0  0
M  END
> <VConfSearch Rank>
876

> <Conf_Id>
26

> <Delta U+W>
1.076

> <U+W>
-7.306

> <U>
48.641

> <W>
-55.947

> <W(PB)>
-58.031

> <W(SA)>
2.084

> <Valence>
2.922

> <Coulomb>
45.269

> <VdW>
0.449

> <VdW6>
-7.045

> <VdW12>
7.494

> <Bond>
0.220

> <Angle>
1.205

> <Pdih>
1.497

> <Idih>
0.000

> <Tether>
0.000

$$$$
VeraChem MOL file


 23 22  0  0  0  0  0  0  0  0999 V2000     
   19.7112   16.2599   24.1467 N   0  3  0  0  0  0  0  0  0  0  0  0
   18.8041   16.0311   24.5658 H   0  0  0  0  0  0  0  0  0  0  0  0
   20.4275   15.7953   24.7151 H   0  0  0  0  0  0  0  0  0  0  0  0
   19.7348   15.8213   23.2206 H   0  0  0  0  0  0  0  0  0  0  0  0
   19.9367   17.7562   24.0700 C   0  0  0  0  0  0  0  0  0  0  0  0
   20.9291   17.9250   23.6439 H   0  0  0  0  0  0  0  0  0  0  0  0
   19.9278   18.1521   25.0891 H   0  0  0  0  0  0  0  0  0  0  0  0
   18.8769   18.4842   23.2223 C   0  0  0  0  0  0  0  0  0  0  0  0
   18.8760   18.0786   22.2026 H   0  0  0  0  0  0  0  0  0  0  0  0
   17.8813   18.2776   23.6369 H   0  0  0  0  0  0  0  0  0  0  0  0
   19.0935   20.0174   23.1824 C   0  0  0  0  0  0  0  0  0  0  0  0
   18.9703   20.4195   24.1975 H   0  0  0  0  0  0  0  0  0  0  0  0
   18.2960   20.4771   22.5836 H   0  0  0  0  0  0  0  0  0  0  0  0
   20.4762   20.4660   22.6370 C   0  0  0  0  0  0  0  0  0  0  0  0
   20.5139   21.5641   22.6382 H   0  0  0  0  0  0  0  0  0  0  0  0
   21.2642   20.1435   23.3308 H   0  0  0  0  0  0  0  0  0  0  0  0
   20.8211   19.9559   21.2147 C   0  0  0  0  0  0  0  0  0  0  0  0
   20.8935   18.8600   21.2113 H   0  0  0  0  0  0  0  0  0  0  0  0
   21.8205   20.3239   20.9435 H   0  0  0  0  0  0  0  0  0  0  0  0
   19.8128   20.4156   20.1374 C   0  0  0  0  0  0  0  0  0  0  0  0
   18.8192   19.9818   20.3051 H   0  0  0  0  0  0  0  0  0  0  0  0
   20.1463   20.1023   19.1397 H   0  0  0  0  0  0  0  0  0  0  0  0
   19.7141   21.5088   20.1306 H   0  0  0  0  0  0  0  0  0  0  0  0
  1  2  1  0  0  0  0
  1  3  1  0  0  0  0
  1  4  1  0  0  0  0
  1  5  1  0  0  0  0
  5  6  1  0  0  0  0
  5  7  1  0  0  0  0
  5  8  1  0  0  0  0
  8  9  1  0  0  0  0
  8 10  1  0  0  0  0
  8 11  1  0  0  0  0
 11 12  1  0  0  0  0
 11 13  1  0  0  0  0
 11 14  1  0  0  0  0
 14 15  1  0  0  0  0
 14 16  1  0  0  0  0
 14 17  1  0  0  0  0
 17 18  1  0  0  0  0
 17 19  1  0  0  0  0
 17 20  1  0  0  0  0
 20 21  1  0  0  0  0
 20 22  1  0  0  0  0
 20 23  1  0  0  0  0
M  END
> <VConfSearch Rank>
877

> <Conf_Id>
90

> <Delta U+W>
1.131

> <U+W>
-7.251

> <U>
48.641

> <W>
-55.892

> <W(PB)>
-57.962

> <W(SA)>
2.070

> <Valence>
2.922

> <Coulomb>
45.269

> <VdW>
0.450

> <VdW6>
-7.045

> <VdW12>
7.495

> <Bond>
0.220

> <Angle>
1.205

> <Pdih>
1.497

> <Idih>
0.000

> <Tether>
0.000

$$$$
VeraChem MOL file


 23 22  0  0  0  0  0  0  0  0999 V2000     
   21.6242   20.2698   21.1980 N   0  3  0  0  0  0  0  0  0  0  0  0
   22.4557   20.8324   21.4077 H   0  0  0  0  0  0  0  0  0  0  0  0
   20.8459   20.6735   21.7280 H   0  0  0  0  0  0  0  0  0  0  0  0
   21.4160   20.4030   20.2033 H   0  0  0  0  0  0  0  0  0  0  0  0
   21.8331   18.8073   21.5385 C   0  0  0  0  0  0  0  0  0  0  0  0
   22.0806   18.7387   22.6009 H   0  0  0  0  0  0  0  0  0  0  0  0
   22.6944   18.4520   20.9663 H   0  0  0  0  0  0  0  0  0  0  0  0
   20.6112   17.9184   21.2291 C   0  0  0  0  0  0  0  0  0  0  0  0
   20.4010   17.9581   20.1521 H   0  0  0  0  0  0  0  0  0  0  0  0
   20.8698   16.8747   21.4518 H   0  0  0  0  0  0  0  0  0  0  0  0
   19.3341   18.3075   22.0154 C   0  0  0  0  0  0  0  0  0  0  0  0
   18.5205   17.6318   21.7178 H   0  0  0  0  0  0  0  0  0  0  0  0
   19.0167   19.3161   21.7219 H   0  0  0  0  0  0  0  0  0  0  0  0
   19.5210   18.2318   23.5519 C   0  0  0  0  0  0  0  0  0  0  0  0
   19.9199   17.2427   23.8160 H   0  0  0  0  0  0  0  0  0  0  0  0
   20.2700   18.9651   23.8792 H   0  0  0  0  0  0  0  0  0  0  0  0
   18.2094   18.4597   24.3413 C   0  0  0  0  0  0  0  0  0  0  0  0
   18.4051   18.2846   25.4085 H   0  0  0  0  0  0  0  0  0  0  0  0
   17.4596   17.7147   24.0404 H   0  0  0  0  0  0  0  0  0  0  0  0
   17.6285   19.8816   24.1682 C   0  0  0  0  0  0  0  0  0  0  0  0
   18.3685   20.6463   24.4377 H   0  0  0  0  0  0  0  0  0  0  0  0
   16.7528   20.0198   24.8155 H   0  0  0  0  0  0  0  0  0  0  0  0
   17.3062   20.0627   23.1354 H   0  0  0  0  0  0  0  0  0  0  0  0
  1  2  1  0  0  0  0
  1  3  1  0  0  0  0
  1  4  1  0  0  0  0
  1  5  1  0  0  0  0
  5  6  1  0  0  0  0
  5  7  1  0  0  0  0
  5  8  1  0  0  0  0
  8  9  1  0  0  0  0
  8 10  1  0  0  0  0
  8 11  1  0  0  0  0
 11 12  1  0  0  0  0
 11 13  1  0  0  0  0
 11 14  1  0  0  0  0
 14 15  1  0  0  0  0
 14 16  1  0  0  0  0
 14 17  1  0  0  0  0
 17 18  1  0  0  0  0
 17 19  1  0  0  0  0
 17 20  1  0  0  0  0
 20 21  1  0  0  0  0
 20 22  1  0  0  0  0
 20 23  1  0  0  0  0
M  END
> <VConfSearch Rank>
878

> <Conf_Id>
85

> <Delta U+W>
1.193

> <U+W>
-7.189

> <U>
48.775

> <W>
-55.965

> <W(PB)>
-58.038

> <W(SA)>
2.073

> <Valence>
2.602

> <Coulomb>
45.581

> <VdW>
0.592

> <VdW6>
-6.616

> <VdW12>
7.208

> <Bond>
0.196

> <Angle>
0.832

> <Pdih>
1.574

> <Idih>
0.000

> <Tether>
0.000

$$$$
VeraChem MOL file


 23 22  0  0  0  0  0  0  0  0999 V2000     
   21.2896   20.2854   22.6291 N   0  3  0  0  0  0  0  0  0  0  0  0
   20.2983   20.3228   22.3712 H   0  0  0  0  0  0  0  0  0  0  0  0
   21.8165   20.7739   21.8969 H   0  0  0  0  0  0  0  0  0  0  0  0
   21.4023   20.8289   23.4911 H   0  0  0  0  0  0  0  0  0  0  0  0
   21.7611   18.8546   22.8027 C   0  0  0  0  0  0  0  0  0  0  0  0
   22.8188   18.8980   23.0765 H   0  0  0  0  0  0  0  0  0  0  0  0
   21.6805   18.3401   21.8415 H   0  0  0  0  0  0  0  0  0  0  0  0
   20.9931   18.0679   23.8843 C   0  0  0  0  0  0  0  0  0  0  0  0
   21.6320   17.2357   24.2085 H   0  0  0  0  0  0  0  0  0  0  0  0
   20.8518   18.6988   24.7719 H   0  0  0  0  0  0  0  0  0  0  0  0
   19.6335   17.4721   23.4300 C   0  0  0  0  0  0  0  0  0  0  0  0
   19.2283   16.8974   24.2744 H   0  0  0  0  0  0  0  0  0  0  0  0
   19.7946   16.7394   22.6271 H   0  0  0  0  0  0  0  0  0  0  0  0
   18.5653   18.5099   22.9995 C   0  0  0  0  0  0  0  0  0  0  0  0
   17.5783   18.1479   23.3197 H   0  0  0  0  0  0  0  0  0  0  0  0
   18.7198   19.4568   23.5334 H   0  0  0  0  0  0  0  0  0  0  0  0
   18.5152   18.7337   21.4683 C   0  0  0  0  0  0  0  0  0  0  0  0
   18.1934   17.8046   20.9770 H   0  0  0  0  0  0  0  0  0  0  0  0
   19.5115   18.9568   21.0685 H   0  0  0  0  0  0  0  0  0  0  0  0
   17.5428   19.8705   21.0893 C   0  0  0  0  0  0  0  0  0  0  0  0
   16.5238   19.6474   21.4317 H   0  0  0  0  0  0  0  0  0  0  0  0
   17.5091   20.0046   20.0002 H   0  0  0  0  0  0  0  0  0  0  0  0
   17.8511   20.8244   21.5363 H   0  0  0  0  0  0  0  0  0  0  0  0
  1  2  1  0  0  0  0
  1  3  1  0  0  0  0
  1  4  1  0  0  0  0
  1  5  1  0  0  0  0
  5  6  1  0  0  0  0
  5  7  1  0  0  0  0
  5  8  1  0  0  0  0
  8  9  1  0  0  0  0
  8 10  1  0  0  0  0
  8 11  1  0  0  0  0
 11 12  1  0  0  0  0
 11 13  1  0  0  0  0
 11 14  1  0  0  0  0
 14 15  1  0  0  0  0
 14 16  1  0  0  0  0
 14 17  1  0  0  0  0
 17 18  1  0  0  0  0
 17 19  1  0  0  0  0
 17 20  1  0  0  0  0
 20 21  1  0  0  0  0
 20 22  1  0  0  0  0
 20 23  1  0  0  0  0
M  END
> <VConfSearch Rank>
879

> <Conf_Id>
82

> <Delta U+W>
5.994

> <U+W>
-2.388

> <U>
52.836

> <W>
-55.224

> <W(PB)>
-57.261

> <W(SA)>
2.037

> <Valence>
5.785

> <Coulomb>
46.744

> <VdW>
0.307

> <VdW6>
-7.672

> <VdW12>
7.979

> <Bond>
0.217

> <Angle>
1.470

> <Pdih>
4.098

> <Idih>
0.000

> <Tether>
0.000

$$$$
VeraChem MOL file


 23 22  0  0  0  0  0  0  0  0999 V2000     
   20.8913   17.2492   22.0973 N   0  3  0  0  0  0  0  0  0  0  0  0
   20.9254   16.5155   22.8125 H   0  0  0  0  0  0  0  0  0  0  0  0
   21.1340   16.8071   21.2040 H   0  0  0  0  0  0  0  0  0  0  0  0
   19.9186   17.5653   22.0293 H   0  0  0  0  0  0  0  0  0  0  0  0
   21.8233   18.3987   22.4282 C   0  0  0  0  0  0  0  0  0  0  0  0
   21.7974   19.1186   21.6058 H   0  0  0  0  0  0  0  0  0  0  0  0
   22.8336   17.9845   22.4846 H   0  0  0  0  0  0  0  0  0  0  0  0
   21.4956   19.1092   23.7573 C   0  0  0  0  0  0  0  0  0  0  0  0
   21.2665   18.3634   24.5300 H   0  0  0  0  0  0  0  0  0  0  0  0
   22.4069   19.6197   24.0963 H   0  0  0  0  0  0  0  0  0  0  0  0
   20.3611   20.1662   23.6812 C   0  0  0  0  0  0  0  0  0  0  0  0
   20.6528   20.9814   23.0045 H   0  0  0  0  0  0  0  0  0  0  0  0
   20.2745   20.6269   24.6750 H   0  0  0  0  0  0  0  0  0  0  0  0
   18.9673   19.6156   23.2844 C   0  0  0  0  0  0  0  0  0  0  0  0
   18.8679   18.5697   23.6037 H   0  0  0  0  0  0  0  0  0  0  0  0
   18.2011   20.1695   23.8446 H   0  0  0  0  0  0  0  0  0  0  0  0
   18.6575   19.7709   21.7755 C   0  0  0  0  0  0  0  0  0  0  0  0
   19.4682   19.3614   21.1612 H   0  0  0  0  0  0  0  0  0  0  0  0
   18.5995   20.8398   21.5260 H   0  0  0  0  0  0  0  0  0  0  0  0
   17.3274   19.0883   21.3928 C   0  0  0  0  0  0  0  0  0  0  0  0
   17.3592   18.0104   21.5976 H   0  0  0  0  0  0  0  0  0  0  0  0
   17.1170   19.2217   20.3236 H   0  0  0  0  0  0  0  0  0  0  0  0
   16.4884   19.5174   21.9560 H   0  0  0  0  0  0  0  0  0  0  0  0
  1  2  1  0  0  0  0
  1  3  1  0  0  0  0
  1  4  1  0  0  0  0
  1  5  1  0  0  0  0
  5  6  1  0  0  0  0
  5  7  1  0  0  0  0
  5  8  1  0  0  0  0
  8  9  1  0  0  0  0
  8 10  1  0  0  0  0
  8 11  1  0  0  0  0
 11 12  1  0  0  0  0
 11 13  1  0  0  0  0
 11 14  1  0  0  0  0
 14 15  1  0  0  0  0
 14 16  1  0  0  0  0
 14 17  1  0  0  0  0
 17 18  1  0  0  0  0
 17 19  1  0  0  0  0
 17 20  1  0  0  0  0
 20 21  1  0  0  0  0
 20 22  1  0  0  0  0
 20 23  1  0  0  0  0
M  END
> <VConfSearch Rank>
880

> <Conf_Id>
5

> <Delta U+W>
6.087

> <U+W>
-2.295

> <U>
52.836

> <W>
-55.131

> <W(PB)>
-57.202

> <W(SA)>
2.071

> <Valence>
5.785

> <Coulomb>
46.744

> <VdW>
0.307

> <VdW6>
-7.672

> <VdW12>
7.980

> <Bond>
0.217

> <Angle>
1.470

> <Pdih>
4.098

> <Idih>
0.000

> <Tether>
0.000

$$$$
VeraChem MOL file


 23 22  0  0  0  0  0  0  0  0999 V2000     
   21.4260   22.1085   21.0478 N   0  3  0  0  0  0  0  0  0  0  0  0
   21.6915   22.5526   21.9327 H   0  0  0  0  0  0  0  0  0  0  0  0
   21.2123   22.8639   20.3877 H   0  0  0  0  0  0  0  0  0  0  0  0
   22.2577   21.6273   20.6904 H   0  0  0  0  0  0  0  0  0  0  0  0
   20.2548   21.1624   21.2187 C   0  0  0  0  0  0  0  0  0  0  0  0
   20.0080   20.7500   20.2366 H   0  0  0  0  0  0  0  0  0  0  0  0
   19.3994   21.7446   21.5719 H   0  0  0  0  0  0  0  0  0  0  0  0
   20.5436   20.0161   22.2042 C   0  0  0  0  0  0  0  0  0  0  0  0
   21.4132   19.4440   21.8540 H   0  0  0  0  0  0  0  0  0  0  0  0
   20.8069   20.4352   23.1845 H   0  0  0  0  0  0  0  0  0  0  0  0
   19.3267   19.0758   22.3501 C   0  0  0  0  0  0  0  0  0  0  0  0
   19.0631   18.6627   21.3664 H   0  0  0  0  0  0  0  0  0  0  0  0
   18.4575   19.6528   22.6955 H   0  0  0  0  0  0  0  0  0  0  0  0
   19.6057   17.9203   23.3379 C   0  0  0  0  0  0  0  0  0  0  0  0
   20.4747   17.3431   22.9926 H   0  0  0  0  0  0  0  0  0  0  0  0
   19.8693   18.3331   24.3216 H   0  0  0  0  0  0  0  0  0  0  0  0
   18.3885   16.9801   23.4837 C   0  0  0  0  0  0  0  0  0  0  0  0
   18.1223   16.5626   22.5025 H   0  0  0  0  0  0  0  0  0  0  0  0
   17.5169   17.5524   23.8314 H   0  0  0  0  0  0  0  0  0  0  0  0
   18.6708   15.8276   24.4708 C   0  0  0  0  0  0  0  0  0  0  0  0
   17.7956   15.1712   24.5610 H   0  0  0  0  0  0  0  0  0  0  0  0
   18.9069   16.2135   25.4711 H   0  0  0  0  0  0  0  0  0  0  0  0
   19.5171   15.2159   24.1319 H   0  0  0  0  0  0  0  0  0  0  0  0
  1  2  1  0  0  0  0
  1  3  1  0  0  0  0
  1  4  1  0  0  0  0
  1  5  1  0  0  0  0
  5  6  1  0  0  0  0
  5  7  1  0  0  0  0
  5  8  1  0  0  0  0
  8  9  1  0  0  0  0
  8 10  1  0  0  0  0
  8 11  1  0  0  0  0
 11 12  1  0  0  0  0
 11 13  1  0  0  0  0
 11 14  1  0  0  0  0
 14 15  1  0  0  0  0
 14 16  1  0  0  0  0
 14 17  1  0  0  0  0
 17 18  1  0  0  0  0
 17 19  1  0  0  0  0
 17 20  1  0  0  0  0
 20 21  1  0  0  0  0
 20 22  1  0  0  0  0
 20 23  1  0  0  0  0
M  END
> <VConfSearch Rank>
881

> <Conf_Id>
40

> <Delta U+W>
0.000

> <U+W>
-8.382

> <U>
46.604

> <W>
-54.986

> <W(PB)>
-57.162

> <W(SA)>
2.176

> <Valence>
1.727

> <Coulomb>
44.434

> <VdW>
0.443

> <VdW6>
-4.623

> <VdW12>
5.066

> <Bond>
0.112

> <Angle>
0.386

> <Pdih>
1.228

> <Idih>
0.000

> <Tether>
0.000

$$$$
VeraChem MOL file


 23 22  0  0  0  0  0  0  0  0999 V2000     
   17.0062   18.7350   24.8667 N   0  3  0  0  0  0  0  0  0  0  0  0
   16.6188   19.6611   25.0747 H   0  0  0  0  0  0  0  0  0  0  0  0
   17.5459   18.4427   25.6877 H   0  0  0  0  0  0  0  0  0  0  0  0
   16.2119   18.0909   24.7873 H   0  0  0  0  0  0  0  0  0  0  0  0
   17.8509   18.7450   23.6089 C   0  0  0  0  0  0  0  0  0  0  0  0
   17.2086   19.0363   22.7734 H   0  0  0  0  0  0  0  0  0  0  0  0
   18.2024   17.7251   23.4337 H   0  0  0  0  0  0  0  0  0  0  0  0
   19.0530   19.7043   23.6971 C   0  0  0  0  0  0  0  0  0  0  0  0
   18.6876   20.7155   23.9205 H   0  0  0  0  0  0  0  0  0  0  0  0
   19.6991   19.4116   24.5354 H   0  0  0  0  0  0  0  0  0  0  0  0
   19.8827   19.7489   22.3920 C   0  0  0  0  0  0  0  0  0  0  0  0
   20.6441   20.5327   22.4959 H   0  0  0  0  0  0  0  0  0  0  0  0
   19.2358   20.0514   21.5569 H   0  0  0  0  0  0  0  0  0  0  0  0
   20.5683   18.3987   22.0608 C   0  0  0  0  0  0  0  0  0  0  0  0
   21.2309   18.1071   22.8873 H   0  0  0  0  0  0  0  0  0  0  0  0
   19.8082   17.6104   21.9814 H   0  0  0  0  0  0  0  0  0  0  0  0
   21.3735   18.4249   20.7389 C   0  0  0  0  0  0  0  0  0  0  0  0
   20.7131   18.7059   19.9066 H   0  0  0  0  0  0  0  0  0  0  0  0
   21.7252   17.4066   20.5211 H   0  0  0  0  0  0  0  0  0  0  0  0
   22.5935   19.3732   20.7782 C   0  0  0  0  0  0  0  0  0  0  0  0
   22.2869   20.4226   20.8679 H   0  0  0  0  0  0  0  0  0  0  0  0
   23.1819   19.2801   19.8562 H   0  0  0  0  0  0  0  0  0  0  0  0
   23.2531   19.1336   21.6224 H   0  0  0  0  0  0  0  0  0  0  0  0
  1  2  1  0  0  0  0
  1  3  1  0  0  0  0
  1  4  1  0  0  0  0
  1  5  1  0  0  0  0
  5  6  1  0  0  0  0
  5  7  1  0  0  0  0
  5  8  1  0  0  0  0
  8  9  1  0  0  0  0
  8 10  1  0  0  0  0
  8 11  1  0  0  0  0
 11 12  1  0  0  0  0
 11 13  1  0  0  0  0
 11 14  1  0  0  0  0
 14 15  1  0  0  0  0
 14 16  1  0  0  0  0
 14 17  1  0  0  0  0
 17 18  1  0  0  0  0
 17 19  1  0  0  0  0
 17 20  1  0  0  0  0
 20 21  1  0  0  0  0
 20 22  1  0  0  0  0
 20 23  1  0  0  0  0
M  END
> <VConfSearch Rank>
882

> <Conf_Id>
65

> <Delta U+W>
1.004

> <U+W>
-7.378

> <U>
48.047

> <W>
-55.425

> <W(PB)>
-57.542

> <W(SA)>
2.116

> <Valence>
2.583

> <Coulomb>
44.791

> <VdW>
0.673

> <VdW6>
-5.788

> <VdW12>
6.462

> <Bond>
0.177

> <Angle>
0.787

> <Pdih>
1.619

> <Idih>
0.000

> <Tether>
0.000

$$$$
VeraChem MOL file


 23 22  0  0  0  0  0  0  0  0999 V2000     
   20.4894   15.9723   20.8905 N   0  3  0  0  0  0  0  0  0  0  0  0
   21.2736   16.1053   20.2438 H   0  0  0  0  0  0  0  0  0  0  0  0
   19.8160   15.3584   20.4198 H   0  0  0  0  0  0  0  0  0  0  0  0
   20.8497   15.4551   21.6989 H   0  0  0  0  0  0  0  0  0  0  0  0
   19.8617   17.2903   21.2965 C   0  0  0  0  0  0  0  0  0  0  0  0
   19.0190   17.0703   21.9568 H   0  0  0  0  0  0  0  0  0  0  0  0
   19.4756   17.7723   20.3943 H   0  0  0  0  0  0  0  0  0  0  0  0
   20.8493   18.2355   22.0067 C   0  0  0  0  0  0  0  0  0  0  0  0
   21.2365   17.7523   22.9136 H   0  0  0  0  0  0  0  0  0  0  0  0
   21.7125   18.4091   21.3503 H   0  0  0  0  0  0  0  0  0  0  0  0
   20.2170   19.5991   22.3734 C   0  0  0  0  0  0  0  0  0  0  0  0
   19.8394   20.0845   21.4628 H   0  0  0  0  0  0  0  0  0  0  0  0
   21.0086   20.2495   22.7676 H   0  0  0  0  0  0  0  0  0  0  0  0
   19.0755   19.4797   23.4151 C   0  0  0  0  0  0  0  0  0  0  0  0
   18.2956   18.8094   23.0304 H   0  0  0  0  0  0  0  0  0  0  0  0
   19.4588   19.0131   24.3330 H   0  0  0  0  0  0  0  0  0  0  0  0
   18.4149   20.8358   23.7630 C   0  0  0  0  0  0  0  0  0  0  0  0
   17.5474   20.6484   24.4113 H   0  0  0  0  0  0  0  0  0  0  0  0
   18.0201   21.3024   22.8497 H   0  0  0  0  0  0  0  0  0  0  0  0
   19.3669   21.8198   24.4804 C   0  0  0  0  0  0  0  0  0  0  0  0
   20.1873   22.1383   23.8255 H   0  0  0  0  0  0  0  0  0  0  0  0
   19.8010   21.3646   25.3801 H   0  0  0  0  0  0  0  0  0  0  0  0
   18.8240   22.7222   24.7900 H   0  0  0  0  0  0  0  0  0  0  0  0
  1  2  1  0  0  0  0
  1  3  1  0  0  0  0
  1  4  1  0  0  0  0
  1  5  1  0  0  0  0
  5  6  1  0  0  0  0
  5  7  1  0  0  0  0
  5  8  1  0  0  0  0
  8  9  1  0  0  0  0
  8 10  1  0  0  0  0
  8 11  1  0  0  0  0
 11 12  1  0  0  0  0
 11 13  1  0  0  0  0
 11 14  1  0  0  0  0
 14 15  1  0  0  0  0
 14 16  1  0  0  0  0
 14 17  1  0  0  0  0
 17 18  1  0  0  0  0
 17 19  1  0  0  0  0
 17 20  1  0  0  0  0
 20 21  1  0  0  0  0
 20 22  1  0  0  0  0
 20 23  1  0  0  0  0
M  END
> <VConfSearch Rank>
883

> <Conf_Id>
92

> <Delta U+W>
0.973

> <U+W>
-7.409

> <U>
48.047

> <W>
-55.456

> <W(PB)>
-57.595

> <W(SA)>
2.138

> <Valence>
2.583

> <Coulomb>
44.791

> <VdW>
0.674

> <VdW6>
-5.789

> <VdW12>
6.462

> <Bond>
0.177

> <Angle>
0.787

> <Pdih>
1.619

> <Idih>
0.000

> <Tether>
0.000

$$$$
VeraChem MOL file


 23 22  0  0  0  0  0  0  0  0999 V2000     
   17.8597   18.9528   25.5898 N   0  3  0  0  0  0  0  0  0  0  0  0
   17.0959   19.6206   25.7404 H   0  0  0  0  0  0  0  0  0  0  0  0
   18.3932   18.9087   26.4641 H   0  0  0  0  0  0  0  0  0  0  0  0
   17.4285   18.0329   25.4531 H   0  0  0  0  0  0  0  0  0  0  0  0
   18.7309   19.3493   24.4152 C   0  0  0  0  0  0  0  0  0  0  0  0
   19.1328   20.3464   24.6144 H   0  0  0  0  0  0  0  0  0  0  0  0
   18.0934   19.4058   23.5292 H   0  0  0  0  0  0  0  0  0  0  0  0
   19.8886   18.3649   24.1632 C   0  0  0  0  0  0  0  0  0  0  0  0
   20.4951   18.2836   25.0750 H   0  0  0  0  0  0  0  0  0  0  0  0
   19.4848   17.3633   23.9640 H   0  0  0  0  0  0  0  0  0  0  0  0
   20.7998   18.8007   22.9916 C   0  0  0  0  0  0  0  0  0  0  0  0
   21.6501   18.1074   22.9301 H   0  0  0  0  0  0  0  0  0  0  0  0
   21.2226   19.7922   23.2055 H   0  0  0  0  0  0  0  0  0  0  0  0
   20.0667   18.8284   21.6288 C   0  0  0  0  0  0  0  0  0  0  0  0
   19.6171   17.8450   21.4335 H   0  0  0  0  0  0  0  0  0  0  0  0
   19.2432   19.5543   21.6600 H   0  0  0  0  0  0  0  0  0  0  0  0
   21.0214   19.1957   20.4711 C   0  0  0  0  0  0  0  0  0  0  0  0
   21.8459   18.4704   20.4250 H   0  0  0  0  0  0  0  0  0  0  0  0
   21.4747   20.1787   20.6617 H   0  0  0  0  0  0  0  0  0  0  0  0
   20.2890   19.2245   19.1127 C   0  0  0  0  0  0  0  0  0  0  0  0
   19.8532   18.2445   18.8784 H   0  0  0  0  0  0  0  0  0  0  0  0
   20.9830   19.4865   18.3035 H   0  0  0  0  0  0  0  0  0  0  0  0
   19.4799   19.9665   19.1159 H   0  0  0  0  0  0  0  0  0  0  0  0
  1  2  1  0  0  0  0
  1  3  1  0  0  0  0
  1  4  1  0  0  0  0
  1  5  1  0  0  0  0
  5  6  1  0  0  0  0
  5  7  1  0  0  0  0
  5  8  1  0  0  0  0
  8  9  1  0  0  0  0
  8 10  1  0  0  0  0
  8 11  1  0  0  0  0
 11 12  1  0  0  0  0
 11 13  1  0  0  0  0
 11 14  1  0  0  0  0
 14 15  1  0  0  0  0
 14 16  1  0  0  0  0
 14 17  1  0  0  0  0
 17 18  1  0  0  0  0
 17 19  1  0  0  0  0
 17 20  1  0  0  0  0
 20 21  1  0  0  0  0
 20 22  1  0  0  0  0
 20 23  1  0  0  0  0
M  END
> <VConfSearch Rank>
884

> <Conf_Id>
42

> <Delta U+W>
0.365

> <U+W>
-8.017

> <U>
47.375

> <W>
-55.392

> <W(PB)>
-57.543

> <W(SA)>
2.152

> <Valence>
2.032

> <Coulomb>
44.843

> <VdW>
0.499

> <VdW6>
-5.218

> <VdW12>
5.717

> <Bond>
0.135

> <Angle>
0.514

> <Pdih>
1.383

> <Idih>
0.000

> <Tether>
0.000

$$$$
VeraChem MOL file


 23 22  0  0  0  0  0  0  0  0999 V2000     
   17.5427   20.4410   24.3738 N   0  3  0  0  0  0  0  0  0  0  0  0
   17.7241   21.3566   23.9503 H   0  0  0  0  0  0  0  0  0  0  0  0
   17.0136   20.6102   25.2361 H   0  0  0  0  0  0  0  0  0  0  0  0
   16.9225   19.9307   23.7379 H   0  0  0  0  0  0  0  0  0  0  0  0
   18.8263   19.6794   24.6417 C   0  0  0  0  0  0  0  0  0  0  0  0
   18.5654   18.7278   25.1127 H   0  0  0  0  0  0  0  0  0  0  0  0
   19.4132   20.2630   25.3561 H   0  0  0  0  0  0  0  0  0  0  0  0
   19.6721   19.4193   23.3799 C   0  0  0  0  0  0  0  0  0  0  0  0
   19.9096   20.3746   22.8934 H   0  0  0  0  0  0  0  0  0  0  0  0
   20.6237   18.9773   23.6997 H   0  0  0  0  0  0  0  0  0  0  0  0
   18.9744   18.4683   22.3771 C   0  0  0  0  0  0  0  0  0  0  0  0
   17.9768   18.8588   22.1369 H   0  0  0  0  0  0  0  0  0  0  0  0
   18.8133   17.4915   22.8539 H   0  0  0  0  0  0  0  0  0  0  0  0
   19.7418   18.2699   21.0441 C   0  0  0  0  0  0  0  0  0  0  0  0
   19.1305   17.6172   20.4055 H   0  0  0  0  0  0  0  0  0  0  0  0
   19.8155   19.2245   20.5052 H   0  0  0  0  0  0  0  0  0  0  0  0
   21.1448   17.6255   21.1883 C   0  0  0  0  0  0  0  0  0  0  0  0
   21.3179   16.9670   20.3255 H   0  0  0  0  0  0  0  0  0  0  0  0
   21.1784   16.9763   22.0744 H   0  0  0  0  0  0  0  0  0  0  0  0
   22.2935   18.6602   21.2351 C   0  0  0  0  0  0  0  0  0  0  0  0
   22.3142   19.2637   20.3184 H   0  0  0  0  0  0  0  0  0  0  0  0
   23.2634   18.1534   21.3212 H   0  0  0  0  0  0  0  0  0  0  0  0
   22.1995   19.3437   22.0860 H   0  0  0  0  0  0  0  0  0  0  0  0
  1  2  1  0  0  0  0
  1  3  1  0  0  0  0
  1  4  1  0  0  0  0
  1  5  1  0  0  0  0
  5  6  1  0  0  0  0
  5  7  1  0  0  0  0
  5  8  1  0  0  0  0
  8  9  1  0  0  0  0
  8 10  1  0  0  0  0
  8 11  1  0  0  0  0
 11 12  1  0  0  0  0
 11 13  1  0  0  0  0
 11 14  1  0  0  0  0
 14 15  1  0  0  0  0
 14 16  1  0  0  0  0
 14 17  1  0  0  0  0
 17 18  1  0  0  0  0
 17 19  1  0  0  0  0
 17 20  1  0  0  0  0
 20 21  1  0  0  0  0
 20 22  1  0  0  0  0
 20 23  1  0  0  0  0
M  END
> <VConfSearch Rank>
885

> <Conf_Id>
3

> <Delta U+W>
3.283

> <U+W>
-5.099

> <U>
50.701

> <W>
-55.800

> <W(PB)>
-57.867

> <W(SA)>
2.067

> <Valence>
4.880

> <Coulomb>
45.095

> <VdW>
0.726

> <VdW6>
-6.620

> <VdW12>
7.346

> <Bond>
0.222

> <Angle>
1.260

> <Pdih>
3.398

> <Idih>
0.000

> <Tether>
0.000

$$$$
VeraChem MOL file


 23 22  0  0  0  0  0  0  0  0999 V2000     
   21.1965   16.7042   21.6179 N   0  3  0  0  0  0  0  0  0  0  0  0
   22.1541   16.8950   21.3061 H   0  0  0  0  0  0  0  0  0  0  0  0
   21.0470   15.6939   21.5242 H   0  0  0  0  0  0  0  0  0  0  0  0
   21.1537   16.9233   22.6177 H   0  0  0  0  0  0  0  0  0  0  0  0
   20.1777   17.5005   20.8265 C   0  0  0  0  0  0  0  0  0  0  0  0
   19.1818   17.2289   21.1858 H   0  0  0  0  0  0  0  0  0  0  0  0
   20.2551   17.1929   19.7802 H   0  0  0  0  0  0  0  0  0  0  0  0
   20.3712   19.0275   20.9258 C   0  0  0  0  0  0  0  0  0  0  0  0
   21.3546   19.2909   20.5141 H   0  0  0  0  0  0  0  0  0  0  0  0
   19.6294   19.5192   20.2826 H   0  0  0  0  0  0  0  0  0  0  0  0
   20.2523   19.5906   22.3647 C   0  0  0  0  0  0  0  0  0  0  0  0
   20.4468   20.6701   22.3242 H   0  0  0  0  0  0  0  0  0  0  0  0
   21.0387   19.1621   23.0002 H   0  0  0  0  0  0  0  0  0  0  0  0
   18.8639   19.3380   23.0058 C   0  0  0  0  0  0  0  0  0  0  0  0
   18.0805   19.7913   22.3829 H   0  0  0  0  0  0  0  0  0  0  0  0
   18.6580   18.2598   23.0246 H   0  0  0  0  0  0  0  0  0  0  0  0
   18.7470   19.8744   24.4532 C   0  0  0  0  0  0  0  0  0  0  0  0
   19.5216   19.4160   25.0837 H   0  0  0  0  0  0  0  0  0  0  0  0
   17.7822   19.5533   24.8703 H   0  0  0  0  0  0  0  0  0  0  0  0
   18.8413   21.4142   24.5501 C   0  0  0  0  0  0  0  0  0  0  0  0
   18.0981   21.8970   23.9023 H   0  0  0  0  0  0  0  0  0  0  0  0
   19.8358   21.7771   24.2630 H   0  0  0  0  0  0  0  0  0  0  0  0
   18.6546   21.7461   25.5796 H   0  0  0  0  0  0  0  0  0  0  0  0
  1  2  1  0  0  0  0
  1  3  1  0  0  0  0
  1  4  1  0  0  0  0
  1  5  1  0  0  0  0
  5  6  1  0  0  0  0
  5  7  1  0  0  0  0
  5  8  1  0  0  0  0
  8  9  1  0  0  0  0
  8 10  1  0  0  0  0
  8 11  1  0  0  0  0
 11 12  1  0  0  0  0
 11 13  1  0  0  0  0
 11 14  1  0  0  0  0
 14 15  1  0  0  0  0
 14 16  1  0  0  0  0
 14 17  1  0  0  0  0
 17 18  1  0  0  0  0
 17 19  1  0  0  0  0
 17 20  1  0  0  0  0
 20 21  1  0  0  0  0
 20 22  1  0  0  0  0
 20 23  1  0  0  0  0
M  END
> <VConfSearch Rank>
886

> <Conf_Id>
83

> <Delta U+W>
1.229

> <U+W>
-7.154

> <U>
48.727

> <W>
-55.880

> <W(PB)>
-57.960

> <W(SA)>
2.080

> <Valence>
2.671

> <Coulomb>
45.371

> <VdW>
0.684

> <VdW6>
-6.511

> <VdW12>
7.195

> <Bond>
0.203

> <Angle>
0.915

> <Pdih>
1.554

> <Idih>
0.000

> <Tether>
0.000

$$$$
VeraChem MOL file


 23 22  0  0  0  0  0  0  0  0999 V2000     
   21.0569   16.8225   23.9132 N   0  3  0  0  0  0  0  0  0  0  0  0
   21.0943   15.9661   23.3513 H   0  0  0  0  0  0  0  0  0  0  0  0
   20.0686   17.0267   24.0897 H   0  0  0  0  0  0  0  0  0  0  0  0
   21.4861   16.6051   24.8190 H   0  0  0  0  0  0  0  0  0  0  0  0
   21.7526   17.9794   23.2233 C   0  0  0  0  0  0  0  0  0  0  0  0
   22.8045   17.7082   23.0984 H   0  0  0  0  0  0  0  0  0  0  0  0
   21.7038   18.8478   23.8850 H   0  0  0  0  0  0  0  0  0  0  0  0
   21.1499   18.3346   21.8486 C   0  0  0  0  0  0  0  0  0  0  0  0
   21.7458   19.1408   21.4003 H   0  0  0  0  0  0  0  0  0  0  0  0
   21.2526   17.4705   21.1789 H   0  0  0  0  0  0  0  0  0  0  0  0
   19.6627   18.7673   21.8998 C   0  0  0  0  0  0  0  0  0  0  0  0
   19.0454   17.9407   22.2761 H   0  0  0  0  0  0  0  0  0  0  0  0
   19.3278   18.9549   20.8714 H   0  0  0  0  0  0  0  0  0  0  0  0
   19.4251   20.0338   22.7612 C   0  0  0  0  0  0  0  0  0  0  0  0
   19.7820   19.8554   23.7840 H   0  0  0  0  0  0  0  0  0  0  0  0
   20.0223   20.8673   22.3665 H   0  0  0  0  0  0  0  0  0  0  0  0
   17.9378   20.4560   22.8385 C   0  0  0  0  0  0  0  0  0  0  0  0
   17.8440   21.2832   23.5561 H   0  0  0  0  0  0  0  0  0  0  0  0
   17.3368   19.6295   23.2429 H   0  0  0  0  0  0  0  0  0  0  0  0
   17.3534   20.9085   21.4809 C   0  0  0  0  0  0  0  0  0  0  0  0
   17.9564   21.7126   21.0396 H   0  0  0  0  0  0  0  0  0  0  0  0
   16.3316   21.2882   21.6104 H   0  0  0  0  0  0  0  0  0  0  0  0
   17.3075   20.0794   20.7642 H   0  0  0  0  0  0  0  0  0  0  0  0
  1  2  1  0  0  0  0
  1  3  1  0  0  0  0
  1  4  1  0  0  0  0
  1  5  1  0  0  0  0
  5  6  1  0  0  0  0
  5  7  1  0  0  0  0
  5  8  1  0  0  0  0
  8  9  1  0  0  0  0
  8 10  1  0  0  0  0
  8 11  1  0  0  0  0
 11 12  1  0  0  0  0
 11 13  1  0  0  0  0
 11 14  1  0  0  0  0
 14 15  1  0  0  0  0
 14 16  1  0  0  0  0
 14 17  1  0  0  0  0
 17 18  1  0  0  0  0
 17 19  1  0  0  0  0
 17 20  1  0  0  0  0
 20 21  1  0  0  0  0
 20 22  1  0  0  0  0
 20 23  1  0  0  0  0
M  END
> <VConfSearch Rank>
887

> <Conf_Id>
50

> <Delta U+W>
1.252

> <U+W>
-7.130

> <U>
48.727

> <W>
-55.857

> <W(PB)>
-57.937

> <W(SA)>
2.080

> <Valence>
2.671

> <Coulomb>
45.371

> <VdW>
0.684

> <VdW6>
-6.511

> <VdW12>
7.196

> <Bond>
0.203

> <Angle>
0.915

> <Pdih>
1.554

> <Idih>
0.000

> <Tether>
0.000

$$$$
VeraChem MOL file


 23 22  0  0  0  0  0  0  0  0999 V2000     
   16.8532   17.8817   22.3028 N   0  3  0  0  0  0  0  0  0  0  0  0
   17.4174   17.2198   21.7614 H   0  0  0  0  0  0  0  0  0  0  0  0
   15.9471   17.9607   21.8287 H   0  0  0  0  0  0  0  0  0  0  0  0
   16.6759   17.4525   23.2165 H   0  0  0  0  0  0  0  0  0  0  0  0
   17.5381   19.2280   22.4355 C   0  0  0  0  0  0  0  0  0  0  0  0
   16.8636   19.8900   22.9855 H   0  0  0  0  0  0  0  0  0  0  0  0
   17.6752   19.6395   21.4319 H   0  0  0  0  0  0  0  0  0  0  0  0
   18.8965   19.1665   23.1605 C   0  0  0  0  0  0  0  0  0  0  0  0
   19.2555   20.1920   23.3031 H   0  0  0  0  0  0  0  0  0  0  0  0
   18.7543   18.7480   24.1657 H   0  0  0  0  0  0  0  0  0  0  0  0
   19.9491   18.3321   22.3868 C   0  0  0  0  0  0  0  0  0  0  0  0
   20.0290   18.6844   21.3491 H   0  0  0  0  0  0  0  0  0  0  0  0
   19.5971   17.2934   22.3296 H   0  0  0  0  0  0  0  0  0  0  0  0
   21.3479   18.3322   23.0572 C   0  0  0  0  0  0  0  0  0  0  0  0
   21.2499   18.4522   24.1449 H   0  0  0  0  0  0  0  0  0  0  0  0
   21.7986   17.3410   22.9088 H   0  0  0  0  0  0  0  0  0  0  0  0
   22.3376   19.3828   22.4917 C   0  0  0  0  0  0  0  0  0  0  0  0
   22.5076   19.1910   21.4230 H   0  0  0  0  0  0  0  0  0  0  0  0
   23.3107   19.2450   22.9835 H   0  0  0  0  0  0  0  0  0  0  0  0
   21.8894   20.8482   22.6838 C   0  0  0  0  0  0  0  0  0  0  0  0
   21.6549   21.0563   23.7357 H   0  0  0  0  0  0  0  0  0  0  0  0
   21.0058   21.0778   22.0757 H   0  0  0  0  0  0  0  0  0  0  0  0
   22.6869   21.5365   22.3753 H   0  0  0  0  0  0  0  0  0  0  0  0
  1  2  1  0  0  0  0
  1  3  1  0  0  0  0
  1  4  1  0  0  0  0
  1  5  1  0  0  0  0
  5  6  1  0  0  0  0
  5  7  1  0  0  0  0
  5  8  1  0  0  0  0
  8  9  1  0  0  0  0
  8 10  1  0  0  0  0
  8 11  1  0  0  0  0
 11 12  1  0  0  0  0
 11 13  1  0  0  0  0
 11 14  1  0  0  0  0
 14 15  1  0  0  0  0
 14 16  1  0  0  0  0
 14 17  1  0  0  0  0
 17 18  1  0  0  0  0
 17 19  1  0  0  0  0
 17 20  1  0  0  0  0
 20 21  1  0  0  0  0
 20 22  1  0  0  0  0
 20 23  1  0  0  0  0
M  END
> <VConfSearch Rank>
888

> <Conf_Id>
55

> <Delta U+W>
3.232

> <U+W>
-5.150

> <U>
50.625

> <W>
-55.776

> <W(PB)>
-57.839

> <W(SA)>
2.064

> <Valence>
4.837

> <Coulomb>
45.097

> <VdW>
0.692

> <VdW6>
-6.655

> <VdW12>
7.347

> <Bond>
0.223

> <Angle>
1.167

> <Pdih>
3.447

> <Idih>
0.000

> <Tether>
0.000

$$$$
VeraChem MOL file


 23 22  0  0  0  0  0  0  0  0999 V2000     
   22.5253   20.6524   22.5948 N   0  3  0  0  0  0  0  0  0  0  0  0
   22.6753   21.4534   21.9729 H   0  0  0  0  0  0  0  0  0  0  0  0
   23.4283   20.1751   22.6885 H   0  0  0  0  0  0  0  0  0  0  0  0
   22.2896   21.0285   23.5188 H   0  0  0  0  0  0  0  0  0  0  0  0
   21.4490   19.7238   22.0706 C   0  0  0  0  0  0  0  0  0  0  0  0
   21.3706   18.8815   22.7604 H   0  0  0  0  0  0  0  0  0  0  0  0
   21.7789   19.3405   21.1013 H   0  0  0  0  0  0  0  0  0  0  0  0
   20.0809   20.4158   21.9126 C   0  0  0  0  0  0  0  0  0  0  0  0
   19.7577   20.8468   22.8695 H   0  0  0  0  0  0  0  0  0  0  0  0
   20.2038   21.2583   21.2190 H   0  0  0  0  0  0  0  0  0  0  0  0
   18.9838   19.4742   21.3546 C   0  0  0  0  0  0  0  0  0  0  0  0
   19.4139   18.8004   20.6006 H   0  0  0  0  0  0  0  0  0  0  0  0
   18.2473   20.0884   20.8181 H   0  0  0  0  0  0  0  0  0  0  0  0
   18.2172   18.6555   22.4259 C   0  0  0  0  0  0  0  0  0  0  0  0
   17.7047   19.3421   23.1137 H   0  0  0  0  0  0  0  0  0  0  0  0
   17.4259   18.0861   21.9188 H   0  0  0  0  0  0  0  0  0  0  0  0
   19.0955   17.6765   23.2387 C   0  0  0  0  0  0  0  0  0  0  0  0
   19.7920   18.2386   23.8742 H   0  0  0  0  0  0  0  0  0  0  0  0
   19.6993   17.0615   22.5569 H   0  0  0  0  0  0  0  0  0  0  0  0
   18.2411   16.7567   24.1368 C   0  0  0  0  0  0  0  0  0  0  0  0
   17.5546   16.1450   23.5370 H   0  0  0  0  0  0  0  0  0  0  0  0
   17.6443   17.3431   24.8477 H   0  0  0  0  0  0  0  0  0  0  0  0
   18.8803   16.0764   24.7144 H   0  0  0  0  0  0  0  0  0  0  0  0
  1  2  1  0  0  0  0
  1  3  1  0  0  0  0
  1  4  1  0  0  0  0
  1  5  1  0  0  0  0
  5  6  1  0  0  0  0
  5  7  1  0  0  0  0
  5  8  1  0  0  0  0
  8  9  1  0  0  0  0
  8 10  1  0  0  0  0
  8 11  1  0  0  0  0
 11 12  1  0  0  0  0
 11 13  1  0  0  0  0
 11 14  1  0  0  0  0
 14 15  1  0  0  0  0
 14 16  1  0  0  0  0
 14 17  1  0  0  0  0
 17 18  1  0  0  0  0
 17 19  1  0  0  0  0
 17 20  1  0  0  0  0
 20 21  1  0  0  0  0
 20 22  1  0  0  0  0
 20 23  1  0  0  0  0
M  END
> <VConfSearch Rank>
889

> <Conf_Id>
93

> <Delta U+W>
2.589

> <U+W>
-5.793

> <U>
50.122

> <W>
-55.915

> <W(PB)>
-58.031

> <W(SA)>
2.115

> <Valence>
4.132

> <Coulomb>
45.536

> <VdW>
0.454

> <VdW6>
-6.262

> <VdW12>
6.715

> <Bond>
0.182

> <Angle>
1.157

> <Pdih>
2.794

> <Idih>
0.000

> <Tether>
0.000

$$$$
VeraChem MOL file


 23 22  0  0  0  0  0  0  0  0999 V2000     
   18.1864   18.7887   19.8596 N   0  3  0  0  0  0  0  0  0  0  0  0
   18.5557   17.8420   19.7245 H   0  0  0  0  0  0  0  0  0  0  0  0
   18.4914   19.3457   19.0542 H   0  0  0  0  0  0  0  0  0  0  0  0
   17.1647   18.7239   19.8066 H   0  0  0  0  0  0  0  0  0  0  0  0
   18.6470   19.3940   21.1700 C   0  0  0  0  0  0  0  0  0  0  0  0
   18.2415   20.4074   21.2328 H   0  0  0  0  0  0  0  0  0  0  0  0
   19.7358   19.4647   21.1400 H   0  0  0  0  0  0  0  0  0  0  0  0
   18.1967   18.5816   22.4001 C   0  0  0  0  0  0  0  0  0  0  0  0
   17.0999   18.5282   22.3897 H   0  0  0  0  0  0  0  0  0  0  0  0
   18.5581   17.5471   22.3281 H   0  0  0  0  0  0  0  0  0  0  0  0
   18.6467   19.2111   23.7427 C   0  0  0  0  0  0  0  0  0  0  0  0
   17.9253   18.9156   24.5171 H   0  0  0  0  0  0  0  0  0  0  0  0
   18.5864   20.3068   23.6836 H   0  0  0  0  0  0  0  0  0  0  0  0
   20.0553   18.7801   24.2280 C   0  0  0  0  0  0  0  0  0  0  0  0
   20.2294   19.2314   25.2147 H   0  0  0  0  0  0  0  0  0  0  0  0
   20.0718   17.6926   24.3838 H   0  0  0  0  0  0  0  0  0  0  0  0
   21.2123   19.1802   23.2837 C   0  0  0  0  0  0  0  0  0  0  0  0
   21.1364   20.2468   23.0302 H   0  0  0  0  0  0  0  0  0  0  0  0
   21.1408   18.6160   22.3448 H   0  0  0  0  0  0  0  0  0  0  0  0
   22.5900   18.9026   23.9221 C   0  0  0  0  0  0  0  0  0  0  0  0
   23.3990   19.1818   23.2347 H   0  0  0  0  0  0  0  0  0  0  0  0
   22.7056   17.8379   24.1637 H   0  0  0  0  0  0  0  0  0  0  0  0
   22.7207   19.4793   24.8471 H   0  0  0  0  0  0  0  0  0  0  0  0
  1  2  1  0  0  0  0
  1  3  1  0  0  0  0
  1  4  1  0  0  0  0
  1  5  1  0  0  0  0
  5  6  1  0  0  0  0
  5  7  1  0  0  0  0
  5  8  1  0  0  0  0
  8  9  1  0  0  0  0
  8 10  1  0  0  0  0
  8 11  1  0  0  0  0
 11 12  1  0  0  0  0
 11 13  1  0  0  0  0
 11 14  1  0  0  0  0
 14 15  1  0  0  0  0
 14 16  1  0  0  0  0
 14 17  1  0  0  0  0
 17 18  1  0  0  0  0
 17 19  1  0  0  0  0
 17 20  1  0  0  0  0
 20 21  1  0  0  0  0
 20 22  1  0  0  0  0
 20 23  1  0  0  0  0
M  END
> <VConfSearch Rank>
890

> <Conf_Id>
70

> <Delta U+W>
2.599

> <U+W>
-5.783

> <U>
50.122

> <W>
-55.906

> <W(PB)>
-58.010

> <W(SA)>
2.105

> <Valence>
4.132

> <Coulomb>
45.536

> <VdW>
0.454

> <VdW6>
-6.262

> <VdW12>
6.715

> <Bond>
0.182

> <Angle>
1.157

> <Pdih>
2.794

> <Idih>
0.000

> <Tether>
0.000

$$$$
VeraChem MOL file


 23 22  0  0  0  0  0  0  0  0999 V2000     
   21.4598   21.2240   23.1848 N   0  3  0  0  0  0  0  0  0  0  0  0
   22.4585   21.2866   22.9630 H   0  0  0  0  0  0  0  0  0  0  0  0
   21.2453   21.9993   23.8210 H   0  0  0  0  0  0  0  0  0  0  0  0
   20.9452   21.3960   22.3159 H   0  0  0  0  0  0  0  0  0  0  0  0
   21.1011   19.8816   23.7910 C   0  0  0  0  0  0  0  0  0  0  0  0
   20.0354   19.8925   24.0341 H   0  0  0  0  0  0  0  0  0  0  0  0
   21.6612   19.7771   24.7242 H   0  0  0  0  0  0  0  0  0  0  0  0
   21.4123   18.6847   22.8700 C   0  0  0  0  0  0  0  0  0  0  0  0
   22.4900   18.6636   22.6607 H   0  0  0  0  0  0  0  0  0  0  0  0
   21.1950   17.7552   23.4115 H   0  0  0  0  0  0  0  0  0  0  0  0
   20.6329   18.7022   21.5286 C   0  0  0  0  0  0  0  0  0  0  0  0
   20.8865   17.7968   20.9601 H   0  0  0  0  0  0  0  0  0  0  0  0
   20.9838   19.5441   20.9170 H   0  0  0  0  0  0  0  0  0  0  0  0
   19.0914   18.7951   21.6703 C   0  0  0  0  0  0  0  0  0  0  0  0
   18.8135   19.7411   22.1536 H   0  0  0  0  0  0  0  0  0  0  0  0
   18.6528   18.8298   20.6634 H   0  0  0  0  0  0  0  0  0  0  0  0
   18.4698   17.6110   22.4478 C   0  0  0  0  0  0  0  0  0  0  0  0
   18.8414   17.5996   23.4812 H   0  0  0  0  0  0  0  0  0  0  0  0
   18.7784   16.6621   21.9875 H   0  0  0  0  0  0  0  0  0  0  0  0
   16.9286   17.6917   22.4709 C   0  0  0  0  0  0  0  0  0  0  0  0
   16.5045   16.8463   23.0282 H   0  0  0  0  0  0  0  0  0  0  0  0
   16.5162   17.6650   21.4539 H   0  0  0  0  0  0  0  0  0  0  0  0
   16.5892   18.6175   22.9534 H   0  0  0  0  0  0  0  0  0  0  0  0
  1  2  1  0  0  0  0
  1  3  1  0  0  0  0
  1  4  1  0  0  0  0
  1  5  1  0  0  0  0
  5  6  1  0  0  0  0
  5  7  1  0  0  0  0
  5  8  1  0  0  0  0
  8  9  1  0  0  0  0
  8 10  1  0  0  0  0
  8 11  1  0  0  0  0
 11 12  1  0  0  0  0
 11 13  1  0  0  0  0
 11 14  1  0  0  0  0
 14 15  1  0  0  0  0
 14 16  1  0  0  0  0
 14 17  1  0  0  0  0
 17 18  1  0  0  0  0
 17 19  1  0  0  0  0
 17 20  1  0  0  0  0
 20 21  1  0  0  0  0
 20 22  1  0  0  0  0
 20 23  1  0  0  0  0
M  END
> <VConfSearch Rank>
891

> <Conf_Id>
72

> <Delta U+W>
1.051

> <U+W>
-7.331

> <U>
48.590

> <W>
-55.922

> <W(PB)>
-58.012

> <W(SA)>
2.090

> <Valence>
2.601

> <Coulomb>
45.520

> <VdW>
0.469

> <VdW6>
-6.867

> <VdW12>
7.336

> <Bond>
0.205

> <Angle>
0.962

> <Pdih>
1.434

> <Idih>
0.000

> <Tether>
0.000

$$$$
VeraChem MOL file


 23 22  0  0  0  0  0  0  0  0999 V2000     
   18.9328   20.8946   20.2831 N   0  3  0  0  0  0  0  0  0  0  0  0
   19.0543   20.7928   19.2697 H   0  0  0  0  0  0  0  0  0  0  0  0
   19.0225   21.8935   20.4947 H   0  0  0  0  0  0  0  0  0  0  0  0
   17.9665   20.6268   20.4959 H   0  0  0  0  0  0  0  0  0  0  0  0
   19.9342   20.0611   21.0565 C   0  0  0  0  0  0  0  0  0  0  0  0
   20.9379   20.3784   20.7611 H   0  0  0  0  0  0  0  0  0  0  0  0
   19.8022   19.0171   20.7605 H   0  0  0  0  0  0  0  0  0  0  0  0
   19.7780   20.1918   22.5830 C   0  0  0  0  0  0  0  0  0  0  0  0
   19.8752   21.2486   22.8649 H   0  0  0  0  0  0  0  0  0  0  0  0
   18.7666   19.8859   22.8792 H   0  0  0  0  0  0  0  0  0  0  0  0
   20.8310   19.3673   23.3643 C   0  0  0  0  0  0  0  0  0  0  0  0
   20.6801   19.5205   24.4412 H   0  0  0  0  0  0  0  0  0  0  0  0
   21.8299   19.7695   23.1456 H   0  0  0  0  0  0  0  0  0  0  0  0
   20.8307   17.8465   23.0514 C   0  0  0  0  0  0  0  0  0  0  0  0
   21.1448   17.6879   22.0110 H   0  0  0  0  0  0  0  0  0  0  0  0
   21.5996   17.3616   23.6685 H   0  0  0  0  0  0  0  0  0  0  0  0
   19.4778   17.1262   23.2819 C   0  0  0  0  0  0  0  0  0  0  0  0
   19.5959   16.0662   23.0170 H   0  0  0  0  0  0  0  0  0  0  0  0
   18.7149   17.5232   22.5989 H   0  0  0  0  0  0  0  0  0  0  0  0
   18.9734   17.2212   24.7396 C   0  0  0  0  0  0  0  0  0  0  0  0
   19.7257   16.8410   25.4428 H   0  0  0  0  0  0  0  0  0  0  0  0
   18.0604   16.6260   24.8704 H   0  0  0  0  0  0  0  0  0  0  0  0
   18.7359   18.2558   25.0166 H   0  0  0  0  0  0  0  0  0  0  0  0
  1  2  1  0  0  0  0
  1  3  1  0  0  0  0
  1  4  1  0  0  0  0
  1  5  1  0  0  0  0
  5  6  1  0  0  0  0
  5  7  1  0  0  0  0
  5  8  1  0  0  0  0
  8  9  1  0  0  0  0
  8 10  1  0  0  0  0
  8 11  1  0  0  0  0
 11 12  1  0  0  0  0
 11 13  1  0  0  0  0
 11 14  1  0  0  0  0
 14 15  1  0  0  0  0
 14 16  1  0  0  0  0
 14 17  1  0  0  0  0
 17 18  1  0  0  0  0
 17 19  1  0  0  0  0
 17 20  1  0  0  0  0
 20 21  1  0  0  0  0
 20 22  1  0  0  0  0
 20 23  1  0  0  0  0
M  END
> <VConfSearch Rank>
892

> <Conf_Id>
26

> <Delta U+W>
1.076

> <U+W>
-7.306

> <U>
48.641

> <W>
-55.947

> <W(PB)>
-58.031

> <W(SA)>
2.084

> <Valence>
2.922

> <Coulomb>
45.269

> <VdW>
0.449

> <VdW6>
-7.045

> <VdW12>
7.494

> <Bond>
0.220

> <Angle>
1.205

> <Pdih>
1.497

> <Idih>
0.000

> <Tether>
0.000

$$$$
VeraChem MOL file


 23 22  0  0  0  0  0  0  0  0999 V2000     
   17.5373   18.9474   20.4645 N   0  3  0  0  0  0  0  0  0  0  0  0
   17.8279   19.2152   19.5187 H   0  0  0  0  0  0  0  0  0  0  0  0
   16.5444   19.1898   20.5508 H   0  0  0  0  0  0  0  0  0  0  0  0
   17.6008   17.9259   20.5216 H   0  0  0  0  0  0  0  0  0  0  0  0
   18.3769   19.6268   21.5271 C   0  0  0  0  0  0  0  0  0  0  0  0
   17.9941   19.3207   22.5042 H   0  0  0  0  0  0  0  0  0  0  0  0
   18.2402   20.7068   21.4266 H   0  0  0  0  0  0  0  0  0  0  0  0
   19.8745   19.2826   21.4251 C   0  0  0  0  0  0  0  0  0  0  0  0
   20.0118   18.1973   21.5128 H   0  0  0  0  0  0  0  0  0  0  0  0
   20.2397   19.5597   20.4273 H   0  0  0  0  0  0  0  0  0  0  0  0
   20.7294   20.0125   22.4907 C   0  0  0  0  0  0  0  0  0  0  0  0
   20.6738   21.0948   22.3095 H   0  0  0  0  0  0  0  0  0  0  0  0
   21.7847   19.7432   22.3504 H   0  0  0  0  0  0  0  0  0  0  0  0
   20.3141   19.7351   23.9609 C   0  0  0  0  0  0  0  0  0  0  0  0
   20.9924   20.2862   24.6266 H   0  0  0  0  0  0  0  0  0  0  0  0
   19.3161   20.1557   24.1436 H   0  0  0  0  0  0  0  0  0  0  0  0
   20.3121   18.2415   24.3749 C   0  0  0  0  0  0  0  0  0  0  0  0
   19.5631   17.6872   23.7936 H   0  0  0  0  0  0  0  0  0  0  0  0
   19.9921   18.1694   25.4237 H   0  0  0  0  0  0  0  0  0  0  0  0
   21.6930   17.5631   24.2286 C   0  0  0  0  0  0  0  0  0  0  0  0
   22.0073   17.5127   23.1787 H   0  0  0  0  0  0  0  0  0  0  0  0
   21.6596   16.5357   24.6134 H   0  0  0  0  0  0  0  0  0  0  0  0
   22.4617   18.1080   24.7918 H   0  0  0  0  0  0  0  0  0  0  0  0
  1  2  1  0  0  0  0
  1  3  1  0  0  0  0
  1  4  1  0  0  0  0
  1  5  1  0  0  0  0
  5  6  1  0  0  0  0
  5  7  1  0  0  0  0
  5  8  1  0  0  0  0
  8  9  1  0  0  0  0
  8 10  1  0  0  0  0
  8 11  1  0  0  0  0
 11 12  1  0  0  0  0
 11 13  1  0  0  0  0
 11 14  1  0  0  0  0
 14 15  1  0  0  0  0
 14 16  1  0  0  0  0
 14 17  1  0  0  0  0
 17 18  1  0  0  0  0
 17 19  1  0  0  0  0
 17 20  1  0  0  0  0
 20 21  1  0  0  0  0
 20 22  1  0  0  0  0
 20 23  1  0  0  0  0
M  END
> <VConfSearch Rank>
893

> <Conf_Id>
90

> <Delta U+W>
1.131

> <U+W>
-7.251

> <U>
48.641

> <W>
-55.892

> <W(PB)>
-57.962

> <W(SA)>
2.070

> <Valence>
2.922

> <Coulomb>
45.269

> <VdW>
0.450

> <VdW6>
-7.045

> <VdW12>
7.495

> <Bond>
0.220

> <Angle>
1.205

> <Pdih>
1.497

> <Idih>
0.000

> <Tether>
0.000

$$$$
VeraChem MOL file


 23 22  0  0  0  0  0  0  0  0999 V2000     
   20.8403   19.0330   20.1550 N   0  3  0  0  0  0  0  0  0  0  0  0
   20.8222   19.6843   19.3630 H   0  0  0  0  0  0  0  0  0  0  0  0
   19.8666   18.8266   20.3977 H   0  0  0  0  0  0  0  0  0  0  0  0
   21.2601   18.1615   19.8160 H   0  0  0  0  0  0  0  0  0  0  0  0
   21.6020   19.6026   21.3356 C   0  0  0  0  0  0  0  0  0  0  0  0
   21.1236   20.5414   21.6264 H   0  0  0  0  0  0  0  0  0  0  0  0
   22.6171   19.8297   20.9987 H   0  0  0  0  0  0  0  0  0  0  0  0
   21.6660   18.6522   22.5487 C   0  0  0  0  0  0  0  0  0  0  0  0
   22.1901   17.7322   22.2576 H   0  0  0  0  0  0  0  0  0  0  0  0
   22.2800   19.1196   23.3300 H   0  0  0  0  0  0  0  0  0  0  0  0
   20.2798   18.2882   23.1373 C   0  0  0  0  0  0  0  0  0  0  0  0
   20.4277   17.6003   23.9812 H   0  0  0  0  0  0  0  0  0  0  0  0
   19.6986   17.7342   22.3894 H   0  0  0  0  0  0  0  0  0  0  0  0
   19.4835   19.5253   23.6240 C   0  0  0  0  0  0  0  0  0  0  0  0
   20.1144   20.1119   24.3060 H   0  0  0  0  0  0  0  0  0  0  0  0
   19.2493   20.1829   22.7763 H   0  0  0  0  0  0  0  0  0  0  0  0
   18.1718   19.1600   24.3598 C   0  0  0  0  0  0  0  0  0  0  0  0
   17.7256   20.0799   24.7631 H   0  0  0  0  0  0  0  0  0  0  0  0
   18.3962   18.5223   25.2262 H   0  0  0  0  0  0  0  0  0  0  0  0
   17.1345   18.4593   23.4529 C   0  0  0  0  0  0  0  0  0  0  0  0
   16.9125   19.0654   22.5651 H   0  0  0  0  0  0  0  0  0  0  0  0
   16.1934   18.3031   23.9959 H   0  0  0  0  0  0  0  0  0  0  0  0
   17.4891   17.4763   23.1194 H   0  0  0  0  0  0  0  0  0  0  0  0
  1  2  1  0  0  0  0
  1  3  1  0  0  0  0
  1  4  1  0  0  0  0
  1  5  1  0  0  0  0
  5  6  1  0  0  0  0
  5  7  1  0  0  0  0
  5  8  1  0  0  0  0
  8  9  1  0  0  0  0
  8 10  1  0  0  0  0
  8 11  1  0  0  0  0
 11 12  1  0  0  0  0
 11 13  1  0  0  0  0
 11 14  1  0  0  0  0
 14 15  1  0  0  0  0
 14 16  1  0  0  0  0
 14 17  1  0  0  0  0
 17 18  1  0  0  0  0
 17 19  1  0  0  0  0
 17 20  1  0  0  0  0
 20 21  1  0  0  0  0
 20 22  1  0  0  0  0
 20 23  1  0  0  0  0
M  END
> <VConfSearch Rank>
894

> <Conf_Id>
85

> <Delta U+W>
1.193

> <U+W>
-7.189

> <U>
48.775

> <W>
-55.965

> <W(PB)>
-58.038

> <W(SA)>
2.073

> <Valence>
2.602

> <Coulomb>
45.581

> <VdW>
0.592

> <VdW6>
-6.616

> <VdW12>
7.208

> <Bond>
0.196

> <Angle>
0.832

> <Pdih>
1.574

> <Idih>
0.000

> <Tether>
0.000

$$$$
VeraChem MOL file


 23 22  0  0  0  0  0  0  0  0999 V2000     
   18.2035   19.9290   23.5378 N   0  3  0  0  0  0  0  0  0  0  0  0
   19.1063   20.1891   23.1280 H   0  0  0  0  0  0  0  0  0  0  0  0
   18.1496   20.3649   24.4648 H   0  0  0  0  0  0  0  0  0  0  0  0
   17.4713   20.3583   22.9629 H   0  0  0  0  0  0  0  0  0  0  0  0
   18.0456   18.4227   23.6141 C   0  0  0  0  0  0  0  0  0  0  0  0
   17.0654   18.2264   24.0571 H   0  0  0  0  0  0  0  0  0  0  0  0
   18.8084   18.0241   24.2882 H   0  0  0  0  0  0  0  0  0  0  0  0
   18.1314   17.7130   22.2474 C   0  0  0  0  0  0  0  0  0  0  0  0
   17.6256   16.7431   22.3428 H   0  0  0  0  0  0  0  0  0  0  0  0
   17.5574   18.2767   21.5000 H   0  0  0  0  0  0  0  0  0  0  0  0
   19.5702   17.4479   21.7280 C   0  0  0  0  0  0  0  0  0  0  0  0
   19.4812   16.8930   20.7837 H   0  0  0  0  0  0  0  0  0  0  0  0
   20.0988   16.7733   22.4157 H   0  0  0  0  0  0  0  0  0  0  0  0
   20.4230   18.7147   21.4615 C   0  0  0  0  0  0  0  0  0  0  0  0
   21.0524   18.5323   20.5793 H   0  0  0  0  0  0  0  0  0  0  0  0
   19.7744   19.5587   21.1919 H   0  0  0  0  0  0  0  0  0  0  0  0
   21.3551   19.0814   22.6422 C   0  0  0  0  0  0  0  0  0  0  0  0
   22.1006   18.2849   22.7758 H   0  0  0  0  0  0  0  0  0  0  0  0
   20.7973   19.1338   23.5847 H   0  0  0  0  0  0  0  0  0  0  0  0
   22.0824   20.4209   22.4003 C   0  0  0  0  0  0  0  0  0  0  0  0
   22.6927   20.3784   21.4886 H   0  0  0  0  0  0  0  0  0  0  0  0
   22.7493   20.6568   23.2398 H   0  0  0  0  0  0  0  0  0  0  0  0
   21.3691   21.2484   22.2943 H   0  0  0  0  0  0  0  0  0  0  0  0
  1  2  1  0  0  0  0
  1  3  1  0  0  0  0
  1  4  1  0  0  0  0
  1  5  1  0  0  0  0
  5  6  1  0  0  0  0
  5  7  1  0  0  0  0
  5  8  1  0  0  0  0
  8  9  1  0  0  0  0
  8 10  1  0  0  0  0
  8 11  1  0  0  0  0
 11 12  1  0  0  0  0
 11 13  1  0  0  0  0
 11 14  1  0  0  0  0
 14 15  1  0  0  0  0
 14 16  1  0  0  0  0
 14 17  1  0  0  0  0
 17 18  1  0  0  0  0
 17 19  1  0  0  0  0
 17 20  1  0  0  0  0
 20 21  1  0  0  0  0
 20 22  1  0  0  0  0
 20 23  1  0  0  0  0
M  END
> <VConfSearch Rank>
895

> <Conf_Id>
82

> <Delta U+W>
5.994

> <U+W>
-2.388

> <U>
52.836

> <W>
-55.224

> <W(PB)>
-57.261

> <W(SA)>
2.037

> <Valence>
5.785

> <Coulomb>
46.744

> <VdW>
0.307

> <VdW6>
-7.672

> <VdW12>
7.979

> <Bond>
0.217

> <Angle>
1.470

> <Pdih>
4.098

> <Idih>
0.000

> <Tether>
0.000

$$$$
VeraChem MOL file


 23 22  0  0  0  0  0  0  0  0999 V2000     
   21.6721   19.2410   23.5330 N   0  3  0  0  0  0  0  0  0  0  0  0
   21.6953   19.8925   24.3242 H   0  0  0  0  0  0  0  0  0  0  0  0
   22.5044   18.6464   23.6112 H   0  0  0  0  0  0  0  0  0  0  0  0
   20.8517   18.6390   23.6563 H   0  0  0  0  0  0  0  0  0  0  0  0
   21.6254   19.9723   22.2054 C   0  0  0  0  0  0  0  0  0  0  0  0
   21.6680   19.2363   21.3982 H   0  0  0  0  0  0  0  0  0  0  0  0
   22.5259   20.5899   22.1492 H   0  0  0  0  0  0  0  0  0  0  0  0
   20.3858   20.8728   22.0287 C   0  0  0  0  0  0  0  0  0  0  0  0
   20.1963   21.4295   22.9561 H   0  0  0  0  0  0  0  0  0  0  0  0
   20.6284   21.6295   21.2708 H   0  0  0  0  0  0  0  0  0  0  0  0
   19.0953   20.1411   21.5712 C   0  0  0  0  0  0  0  0  0  0  0  0
   19.2486   19.6956   20.5785 H   0  0  0  0  0  0  0  0  0  0  0  0
   18.3167   20.9041   21.4332 H   0  0  0  0  0  0  0  0  0  0  0  0
   18.5527   19.0748   22.5571 C   0  0  0  0  0  0  0  0  0  0  0  0
   18.8269   19.3367   23.5876 H   0  0  0  0  0  0  0  0  0  0  0  0
   17.4544   19.1000   22.5283 H   0  0  0  0  0  0  0  0  0  0  0  0
   19.0040   17.6357   22.2075 C   0  0  0  0  0  0  0  0  0  0  0  0
   20.0916   17.5827   22.0787 H   0  0  0  0  0  0  0  0  0  0  0  0
   18.5704   17.3452   21.2402 H   0  0  0  0  0  0  0  0  0  0  0  0
   18.5641   16.6221   23.2849 C   0  0  0  0  0  0  0  0  0  0  0  0
   19.0053   16.8613   24.2611 H   0  0  0  0  0  0  0  0  0  0  0  0
   18.8793   15.6063   23.0129 H   0  0  0  0  0  0  0  0  0  0  0  0
   17.4719   16.6159   23.3970 H   0  0  0  0  0  0  0  0  0  0  0  0
  1  2  1  0  0  0  0
  1  3  1  0  0  0  0
  1  4  1  0  0  0  0
  1  5  1  0  0  0  0
  5  6  1  0  0  0  0
  5  7  1  0  0  0  0
  5  8  1  0  0  0  0
  8  9  1  0  0  0  0
  8 10  1  0  0  0  0
  8 11  1  0  0  0  0
 11 12  1  0  0  0  0
 11 13  1  0  0  0  0
 11 14  1  0  0  0  0
 14 15  1  0  0  0  0
 14 16  1  0  0  0  0
 14 17  1  0  0  0  0
 17 18  1  0  0  0  0
 17 19  1  0  0  0  0
 17 20  1  0  0  0  0
 20 21  1  0  0  0  0
 20 22  1  0  0  0  0
 20 23  1  0  0  0  0
M  END
> <VConfSearch Rank>
896

> <Conf_Id>
5

> <Delta U+W>
6.087

> <U+W>
-2.295

> <U>
52.836

> <W>
-55.131

> <W(PB)>
-57.202

> <W(SA)>
2.071

> <Valence>
5.785

> <Coulomb>
46.744

> <VdW>
0.307

> <VdW6>
-7.672

> <VdW12>
7.980

> <Bond>
0.217

> <Angle>
1.470

> <Pdih>
4.098

> <Idih>
0.000

> <Tether>
0.000

$$$$
VeraChem MOL file


 23 22  0  0  0  0  0  0  0  0999 V2000     
   18.7357   17.4556   19.2443 N   0  3  0  0  0  0  0  0  0  0  0  0
   19.6673   17.4749   18.8170 H   0  0  0  0  0  0  0  0  0  0  0  0
   18.0581   17.6015   18.4882 H   0  0  0  0  0  0  0  0  0  0  0  0
   18.5861   16.5054   19.5989 H   0  0  0  0  0  0  0  0  0  0  0  0
   18.5927   18.4959   20.3366 C   0  0  0  0  0  0  0  0  0  0  0  0
   17.5723   18.4394   20.7251 H   0  0  0  0  0  0  0  0  0  0  0  0
   18.7343   19.4814   19.8847 H   0  0  0  0  0  0  0  0  0  0  0  0
   19.5965   18.3048   21.4875 C   0  0  0  0  0  0  0  0  0  0  0  0
   19.4615   17.3077   21.9277 H   0  0  0  0  0  0  0  0  0  0  0  0
   20.6195   18.3460   21.0902 H   0  0  0  0  0  0  0  0  0  0  0  0
   19.4181   19.3838   22.5785 C   0  0  0  0  0  0  0  0  0  0  0  0
   18.3919   19.3428   22.9697 H   0  0  0  0  0  0  0  0  0  0  0  0
   19.5487   20.3799   22.1331 H   0  0  0  0  0  0  0  0  0  0  0  0
   20.4216   19.2013   23.7398 C   0  0  0  0  0  0  0  0  0  0  0  0
   20.2911   18.2053   24.1854 H   0  0  0  0  0  0  0  0  0  0  0  0
   21.4478   19.2422   23.3489 H   0  0  0  0  0  0  0  0  0  0  0  0
   20.2430   20.2806   24.8307 C   0  0  0  0  0  0  0  0  0  0  0  0
   19.2185   20.2420   25.2268 H   0  0  0  0  0  0  0  0  0  0  0  0
   20.3751   21.2789   24.3903 H   0  0  0  0  0  0  0  0  0  0  0  0
   21.2467   20.0951   25.9886 C   0  0  0  0  0  0  0  0  0  0  0  0
   21.1044   20.8702   26.7528 H   0  0  0  0  0  0  0  0  0  0  0  0
   22.2816   20.1629   25.6287 H   0  0  0  0  0  0  0  0  0  0  0  0
   21.1160   19.1179   26.4716 H   0  0  0  0  0  0  0  0  0  0  0  0
  1  2  1  0  0  0  0
  1  3  1  0  0  0  0
  1  4  1  0  0  0  0
  1  5  1  0  0  0  0
  5  6  1  0  0  0  0
  5  7  1  0  0  0  0
  5  8  1  0  0  0  0
  8  9  1  0  0  0  0
  8 10  1  0  0  0  0
  8 11  1  0  0  0  0
 11 12  1  0  0  0  0
 11 13  1  0  0  0  0
 11 14  1  0  0  0  0
 14 15  1  0  0  0  0
 14 16  1  0  0  0  0
 14 17  1  0  0  0  0
 17 18  1  0  0  0  0
 17 19  1  0  0  0  0
 17 20  1  0  0  0  0
 20 21  1  0  0  0  0
 20 22  1  0  0  0  0
 20 23  1  0  0  0  0
M  END
> <VConfSearch Rank>
897

> <Conf_Id>
40

> <Delta U+W>
0.000

> <U+W>
-8.382

> <U>
46.604

> <W>
-54.986

> <W(PB)>
-57.162

> <W(SA)>
2.176

> <Valence>
1.727

> <Coulomb>
44.434

> <VdW>
0.443

> <VdW6>
-4.623

> <VdW12>
5.066

> <Bond>
0.112

> <Angle>
0.386

> <Pdih>
1.228

> <Idih>
0.000

> <Tether>
0.000

$$$$
VeraChem MOL file


 23 22  0  0  0  0  0  0  0  0999 V2000     
   20.2045   21.5761   20.1510 N   0  3  0  0  0  0  0  0  0  0  0  0
   21.1993   21.6941   19.9338 H   0  0  0  0  0  0  0  0  0  0  0  0
   19.9290   22.3671   20.7420 H   0  0  0  0  0  0  0  0  0  0  0  0
   19.6932   21.6723   19.2670 H   0  0  0  0  0  0  0  0  0  0  0  0
   19.9259   20.2458   20.8207 C   0  0  0  0  0  0  0  0  0  0  0  0
   20.2152   19.4517   20.1271 H   0  0  0  0  0  0  0  0  0  0  0  0
   18.8488   20.1769   20.9930 H   0  0  0  0  0  0  0  0  0  0  0  0
   20.6806   20.0710   22.1522 C   0  0  0  0  0  0  0  0  0  0  0  0
   21.7571   20.1900   21.9711 H   0  0  0  0  0  0  0  0  0  0  0  0
   20.3895   20.8677   22.8497 H   0  0  0  0  0  0  0  0  0  0  0  0
   20.4326   18.6910   22.8062 C   0  0  0  0  0  0  0  0  0  0  0  0
   21.0889   18.6031   23.6817 H   0  0  0  0  0  0  0  0  0  0  0  0
   20.7337   17.8962   22.1099 H   0  0  0  0  0  0  0  0  0  0  0  0
   18.9591   18.4785   23.2378 C   0  0  0  0  0  0  0  0  0  0  0  0
   18.6650   19.2616   23.9502 H   0  0  0  0  0  0  0  0  0  0  0  0
   18.3011   18.5910   22.3661 H   0  0  0  0  0  0  0  0  0  0  0  0
   18.6950   17.0871   23.8630 C   0  0  0  0  0  0  0  0  0  0  0  0
   18.9776   16.2995   23.1506 H   0  0  0  0  0  0  0  0  0  0  0  0
   17.6145   16.9761   24.0304 H   0  0  0  0  0  0  0  0  0  0  0  0
   19.4302   16.8638   25.2043 C   0  0  0  0  0  0  0  0  0  0  0  0
   20.5186   16.8395   25.0694 H   0  0  0  0  0  0  0  0  0  0  0  0
   19.1327   15.9059   25.6502 H   0  0  0  0  0  0  0  0  0  0  0  0
   19.1897   17.6574   25.9236 H   0  0  0  0  0  0  0  0  0  0  0  0
  1  2  1  0  0  0  0
  1  3  1  0  0  0  0
  1  4  1  0  0  0  0
  1  5  1  0  0  0  0
  5  6  1  0  0  0  0
  5  7  1  0  0  0  0
  5  8  1  0  0  0  0
  8  9  1  0  0  0  0
  8 10  1  0  0  0  0
  8 11  1  0  0  0  0
 11 12  1  0  0  0  0
 11 13  1  0  0  0  0
 11 14  1  0  0  0  0
 14 15  1  0  0  0  0
 14 16  1  0  0  0  0
 14 17  1  0  0  0  0
 17 18  1  0  0  0  0
 17 19  1  0  0  0  0
 17 20  1  0  0  0  0
 20 21  1  0  0  0  0
 20 22  1  0  0  0  0
 20 23  1  0  0  0  0
M  END
> <VConfSearch Rank>
898

> <Conf_Id>
65

> <Delta U+W>
1.004

> <U+W>
-7.378

> <U>
48.047

> <W>
-55.425

> <W(PB)>
-57.542

> <W(SA)>
2.116

> <Valence>
2.583

> <Coulomb>
44.791

> <VdW>
0.673

> <VdW6>
-5.788

> <VdW12>
6.462

> <Bond>
0.177

> <Angle>
0.787

> <Pdih>
1.619

> <Idih>
0.000

> <Tether>
0.000

$$$$
VeraChem MOL file


 23 22  0  0  0  0  0  0  0  0999 V2000     
   21.0669   22.1673   23.7017 N   0  3  0  0  0  0  0  0  0  0  0  0
   20.5555   22.9372   23.2583 H   0  0  0  0  0  0  0  0  0  0  0  0
   22.0535   22.4457   23.7356 H   0  0  0  0  0  0  0  0  0  0  0  0
   20.7406   22.1078   24.6716 H   0  0  0  0  0  0  0  0  0  0  0  0
   20.8758   20.8602   22.9596 C   0  0  0  0  0  0  0  0  0  0  0  0
   21.4707   20.0969   23.4675 H   0  0  0  0  0  0  0  0  0  0  0  0
   21.2691   20.9862   21.9472 H   0  0  0  0  0  0  0  0  0  0  0  0
   19.4026   20.4150   22.8913 C   0  0  0  0  0  0  0  0  0  0  0  0
   19.0074   20.2871   23.9078 H   0  0  0  0  0  0  0  0  0  0  0  0
   18.8101   21.2116   22.4218 H   0  0  0  0  0  0  0  0  0  0  0  0
   19.2074   19.1067   22.0890 C   0  0  0  0  0  0  0  0  0  0  0  0
   19.5947   19.2409   21.0695 H   0  0  0  0  0  0  0  0  0  0  0  0
   18.1298   18.9219   21.9908 H   0  0  0  0  0  0  0  0  0  0  0  0
   19.8870   17.8806   22.7502 C   0  0  0  0  0  0  0  0  0  0  0  0
   20.9606   18.0761   22.8706 H   0  0  0  0  0  0  0  0  0  0  0  0
   19.4841   17.7345   23.7620 H   0  0  0  0  0  0  0  0  0  0  0  0
   19.7247   16.5734   21.9369 C   0  0  0  0  0  0  0  0  0  0  0  0
   20.3295   15.7873   22.4102 H   0  0  0  0  0  0  0  0  0  0  0  0
   20.1357   16.7104   20.9269 H   0  0  0  0  0  0  0  0  0  0  0  0
   18.2617   16.0837   21.8414 C   0  0  0  0  0  0  0  0  0  0  0  0
   17.6398   16.7788   21.2639 H   0  0  0  0  0  0  0  0  0  0  0  0
   17.8170   15.9706   22.8386 H   0  0  0  0  0  0  0  0  0  0  0  0
   18.2155   15.1078   21.3411 H   0  0  0  0  0  0  0  0  0  0  0  0
  1  2  1  0  0  0  0
  1  3  1  0  0  0  0
  1  4  1  0  0  0  0
  1  5  1  0  0  0  0
  5  6  1  0  0  0  0
  5  7  1  0  0  0  0
  5  8  1  0  0  0  0
  8  9  1  0  0  0  0
  8 10  1  0  0  0  0
  8 11  1  0  0  0  0
 11 12  1  0  0  0  0
 11 13  1  0  0  0  0
 11 14  1  0  0  0  0
 14 15  1  0  0  0  0
 14 16  1  0  0  0  0
 14 17  1  0  0  0  0
 17 18  1  0  0  0  0
 17 19  1  0  0  0  0
 17 20  1  0  0  0  0
 20 21  1  0  0  0  0
 20 22  1  0  0  0  0
 20 23  1  0  0  0  0
M  END
> <VConfSearch Rank>
899

> <Conf_Id>
92

> <Delta U+W>
0.973

> <U+W>
-7.409

> <U>
48.047

> <W>
-55.456

> <W(PB)>
-57.595

> <W(SA)>
2.138

> <Valence>
2.583

> <Coulomb>
44.791

> <VdW>
0.674

> <VdW6>
-5.789

> <VdW12>
6.462

> <Bond>
0.177

> <Angle>
0.787

> <Pdih>
1.619

> <Idih>
0.000

> <Tether>
0.000

$$$$
VeraChem MOL file


 23 22  0  0  0  0  0  0  0  0999 V2000     
   22.8316   19.7053   24.1587 N   0  3  0  0  0  0  0  0  0  0  0  0
   23.3989   18.9672   24.5893 H   0  0  0  0  0  0  0  0  0  0  0  0
   22.8366   20.5002   24.8060 H   0  0  0  0  0  0  0  0  0  0  0  0
   23.3248   20.0038   23.3110 H   0  0  0  0  0  0  0  0  0  0  0  0
   21.4247   19.2306   23.8570 C   0  0  0  0  0  0  0  0  0  0  0  0
   20.9706   18.9024   24.7958 H   0  0  0  0  0  0  0  0  0  0  0  0
   21.4980   18.3679   23.1899 H   0  0  0  0  0  0  0  0  0  0  0  0
   20.5468   20.3180   23.2091 C   0  0  0  0  0  0  0  0  0  0  0  0
   20.5179   21.1956   23.8687 H   0  0  0  0  0  0  0  0  0  0  0  0
   21.0035   20.6482   22.2666 H   0  0  0  0  0  0  0  0  0  0  0  0
   19.0993   19.8400   22.9461 C   0  0  0  0  0  0  0  0  0  0  0  0
   18.5104   20.6893   22.5728 H   0  0  0  0  0  0  0  0  0  0  0  0
   18.6364   19.5344   23.8948 H   0  0  0  0  0  0  0  0  0  0  0  0
   19.0184   18.6778   21.9272 C   0  0  0  0  0  0  0  0  0  0  0  0
   19.5113   18.9750   20.9912 H   0  0  0  0  0  0  0  0  0  0  0  0
   19.5625   17.8041   22.3100 H   0  0  0  0  0  0  0  0  0  0  0  0
   17.5566   18.2743   21.6322 C   0  0  0  0  0  0  0  0  0  0  0  0
   17.0041   19.1397   21.2402 H   0  0  0  0  0  0  0  0  0  0  0  0
   17.0584   17.9766   22.5655 H   0  0  0  0  0  0  0  0  0  0  0  0
   17.4771   17.1143   20.6170 C   0  0  0  0  0  0  0  0  0  0  0  0
   17.9381   17.3943   19.6608 H   0  0  0  0  0  0  0  0  0  0  0  0
   16.4319   16.8424   20.4201 H   0  0  0  0  0  0  0  0  0  0  0  0
   17.9915   16.2217   20.9962 H   0  0  0  0  0  0  0  0  0  0  0  0
  1  2  1  0  0  0  0
  1  3  1  0  0  0  0
  1  4  1  0  0  0  0
  1  5  1  0  0  0  0
  5  6  1  0  0  0  0
  5  7  1  0  0  0  0
  5  8  1  0  0  0  0
  8  9  1  0  0  0  0
  8 10  1  0  0  0  0
  8 11  1  0  0  0  0
 11 12  1  0  0  0  0
 11 13  1  0  0  0  0
 11 14  1  0  0  0  0
 14 15  1  0  0  0  0
 14 16  1  0  0  0  0
 14 17  1  0  0  0  0
 17 18  1  0  0  0  0
 17 19  1  0  0  0  0
 17 20  1  0  0  0  0
 20 21  1  0  0  0  0
 20 22  1  0  0  0  0
 20 23  1  0  0  0  0
M  END
> <VConfSearch Rank>
900

> <Conf_Id>
42

> <Delta U+W>
0.365

> <U+W>
-8.017

> <U>
47.375

> <W>
-55.392

> <W(PB)>
-57.543

> <W(SA)>
2.152

> <Valence>
2.032

> <Coulomb>
44.843

> <VdW>
0.499

> <VdW6>
-5.218

> <VdW12>
5.717

> <Bond>
0.135

> <Angle>
0.514

> <Pdih>
1.383

> <Idih>
0.000

> <Tether>
0.000

$$$$
VeraChem MOL file


 23 22  0  0  0  0  0  0  0  0999 V2000     
   19.3278   16.0179   23.6638 N   0  3  0  0  0  0  0  0  0  0  0  0
   19.1674   16.3181   24.6306 H   0  0  0  0  0  0  0  0  0  0  0  0
   19.5285   15.0125   23.6924 H   0  0  0  0  0  0  0  0  0  0  0  0
   18.4429   16.1319   23.1605 H   0  0  0  0  0  0  0  0  0  0  0  0
   20.4525   16.7977   23.0106 C   0  0  0  0  0  0  0  0  0  0  0  0
   20.5874   16.4146   21.9955 H   0  0  0  0  0  0  0  0  0  0  0  0
   21.3664   16.5942   23.5753 H   0  0  0  0  0  0  0  0  0  0  0  0
   20.2112   18.3191   22.9634 C   0  0  0  0  0  0  0  0  0  0  0  0
   20.0486   18.6971   23.9814 H   0  0  0  0  0  0  0  0  0  0  0  0
   21.1271   18.7921   22.5885 H   0  0  0  0  0  0  0  0  0  0  0  0
   19.0212   18.7085   22.0528 C   0  0  0  0  0  0  0  0  0  0  0  0
   18.1262   18.1541   22.3643 H   0  0  0  0  0  0  0  0  0  0  0  0
   19.2332   18.3921   21.0221 H   0  0  0  0  0  0  0  0  0  0  0  0
   18.6738   20.2199   22.0660 C   0  0  0  0  0  0  0  0  0  0  0  0
   17.7942   20.3618   21.4229 H   0  0  0  0  0  0  0  0  0  0  0  0
   18.3557   20.5254   23.0723 H   0  0  0  0  0  0  0  0  0  0  0  0
   19.8009   21.1533   21.5531 C   0  0  0  0  0  0  0  0  0  0  0  0
   19.3417   21.9878   21.0047 H   0  0  0  0  0  0  0  0  0  0  0  0
   20.4328   20.6257   20.8252 H   0  0  0  0  0  0  0  0  0  0  0  0
   20.6679   21.7489   22.6870 C   0  0  0  0  0  0  0  0  0  0  0  0
   20.0549   22.3417   23.3783 H   0  0  0  0  0  0  0  0  0  0  0  0
   21.4381   22.4125   22.2731 H   0  0  0  0  0  0  0  0  0  0  0  0
   21.1766   20.9728   23.2693 H   0  0  0  0  0  0  0  0  0  0  0  0
  1  2  1  0  0  0  0
  1  3  1  0  0  0  0
  1  4  1  0  0  0  0
  1  5  1  0  0  0  0
  5  6  1  0  0  0  0
  5  7  1  0  0  0  0
  5  8  1  0  0  0  0
  8  9  1  0  0  0  0
  8 10  1  0  0  0  0
  8 11  1  0  0  0  0
 11 12  1  0  0  0  0
 11 13  1  0  0  0  0
 11 14  1  0  0  0  0
 14 15  1  0  0  0  0
 14 16  1  0  0  0  0
 14 17  1  0  0  0  0
 17 18  1  0  0  0  0
 17 19  1  0  0  0  0
 17 20  1  0  0  0  0
 20 21  1  0  0  0  0
 20 22  1  0  0  0  0
 20 23  1  0  0  0  0
M  END
> <VConfSearch Rank>
901

> <Conf_Id>
3

> <Delta U+W>
3.283

> <U+W>
-5.099

> <U>
50.701

> <W>
-55.800

> <W(PB)>
-57.867

> <W(SA)>
2.067

> <Valence>
4.880

> <Coulomb>
45.095

> <VdW>
0.726

> <VdW6>
-6.620

> <VdW12>
7.346

> <Bond>
0.222

> <Angle>
1.260

> <Pdih>
3.398

> <Idih>
0.000

> <Tether>
0.000

$$$$
VeraChem MOL file


 23 22  0  0  0  0  0  0  0  0999 V2000     
   22.5743   19.5476   21.8682 N   0  3  0  0  0  0  0  0  0  0  0  0
   23.1617   19.8122   22.6653 H   0  0  0  0  0  0  0  0  0  0  0  0
   23.1880   19.4964   21.0481 H   0  0  0  0  0  0  0  0  0  0  0  0
   22.2305   18.5991   22.0463 H   0  0  0  0  0  0  0  0  0  0  0  0
   21.4350   20.5256   21.6591 C   0  0  0  0  0  0  0  0  0  0  0  0
   20.8693   20.2047   20.7807 H   0  0  0  0  0  0  0  0  0  0  0  0
   21.8721   21.5038   21.4409 H   0  0  0  0  0  0  0  0  0  0  0  0
   20.4914   20.6471   22.8733 C   0  0  0  0  0  0  0  0  0  0  0  0
   21.0624   21.0194   23.7342 H   0  0  0  0  0  0  0  0  0  0  0  0
   19.7339   21.4118   22.6556 H   0  0  0  0  0  0  0  0  0  0  0  0
   19.7840   19.3244   23.2628 C   0  0  0  0  0  0  0  0  0  0  0  0
   19.1751   19.5151   24.1560 H   0  0  0  0  0  0  0  0  0  0  0  0
   20.5298   18.5737   23.5560 H   0  0  0  0  0  0  0  0  0  0  0  0
   18.8851   18.7581   22.1342 C   0  0  0  0  0  0  0  0  0  0  0  0
   18.1220   19.5000   21.8613 H   0  0  0  0  0  0  0  0  0  0  0  0
   19.4886   18.5899   21.2327 H   0  0  0  0  0  0  0  0  0  0  0  0
   18.1963   17.4228   22.5069 C   0  0  0  0  0  0  0  0  0  0  0  0
   18.9555   16.6732   22.7705 H   0  0  0  0  0  0  0  0  0  0  0  0
   17.6776   17.0349   21.6190 H   0  0  0  0  0  0  0  0  0  0  0  0
   17.1747   17.5561   23.6593 C   0  0  0  0  0  0  0  0  0  0  0  0
   16.4233   18.3240   23.4343 H   0  0  0  0  0  0  0  0  0  0  0  0
   17.6643   17.8199   24.6048 H   0  0  0  0  0  0  0  0  0  0  0  0
   16.6470   16.6064   23.8161 H   0  0  0  0  0  0  0  0  0  0  0  0
  1  2  1  0  0  0  0
  1  3  1  0  0  0  0
  1  4  1  0  0  0  0
  1  5  1  0  0  0  0
  5  6  1  0  0  0  0
  5  7  1  0  0  0  0
  5  8  1  0  0  0  0
  8  9  1  0  0  0  0
  8 10  1  0  0  0  0
  8 11  1  0  0  0  0
 11 12  1  0  0  0  0
 11 13  1  0  0  0  0
 11 14  1  0  0  0  0
 14 15  1  0  0  0  0
 14 16  1  0  0  0  0
 14 17  1  0  0  0  0
 17 18  1  0  0  0  0
 17 19  1  0  0  0  0
 17 20  1  0  0  0  0
 20 21  1  0  0  0  0
 20 22  1  0  0  0  0
 20 23  1  0  0  0  0
M  END
> <VConfSearch Rank>
902

> <Conf_Id>
83

> <Delta U+W>
1.229

> <U+W>
-7.154

> <U>
48.727

> <W>
-55.880

> <W(PB)>
-57.960

> <W(SA)>
2.080

> <Valence>
2.671

> <Coulomb>
45.371

> <VdW>
0.684

> <VdW6>
-6.511

> <VdW12>
7.195

> <Bond>
0.203

> <Angle>
0.915

> <Pdih>
1.554

> <Idih>
0.000

> <Tether>
0.000

$$$$
VeraChem MOL file


 23 22  0  0  0  0  0  0  0  0999 V2000     
   19.7492   20.9183   24.7884 N   0  3  0  0  0  0  0  0  0  0  0  0
   19.0616   21.6724   24.6929 H   0  0  0  0  0  0  0  0  0  0  0  0
   20.4055   21.0054   24.0065 H   0  0  0  0  0  0  0  0  0  0  0  0
   20.2781   21.1024   25.6475 H   0  0  0  0  0  0  0  0  0  0  0  0
   19.0886   19.5540   24.8148 C   0  0  0  0  0  0  0  0  0  0  0  0
   18.4323   19.5192   25.6886 H   0  0  0  0  0  0  0  0  0  0  0  0
   19.8698   18.8015   24.9488 H   0  0  0  0  0  0  0  0  0  0  0  0
   18.2688   19.2373   23.5472 C   0  0  0  0  0  0  0  0  0  0  0  0
   17.7847   18.2601   23.6758 H   0  0  0  0  0  0  0  0  0  0  0  0
   17.4567   19.9704   23.4539 H   0  0  0  0  0  0  0  0  0  0  0  0
   19.1002   19.2267   22.2394 C   0  0  0  0  0  0  0  0  0  0  0  0
   19.5281   20.2219   22.0602 H   0  0  0  0  0  0  0  0  0  0  0  0
   18.4158   19.0334   21.4033 H   0  0  0  0  0  0  0  0  0  0  0  0
   20.2280   18.1634   22.2420 C   0  0  0  0  0  0  0  0  0  0  0  0
   20.8994   18.3413   23.0923 H   0  0  0  0  0  0  0  0  0  0  0  0
   19.7952   17.1650   22.3938 H   0  0  0  0  0  0  0  0  0  0  0  0
   21.0796   18.1655   20.9493 C   0  0  0  0  0  0  0  0  0  0  0  0
   21.9204   17.4701   21.0810 H   0  0  0  0  0  0  0  0  0  0  0  0
   21.5240   19.1591   20.7980 H   0  0  0  0  0  0  0  0  0  0  0  0
   20.2873   17.7523   19.6879 C   0  0  0  0  0  0  0  0  0  0  0  0
   19.8053   16.7759   19.8264 H   0  0  0  0  0  0  0  0  0  0  0  0
   20.9575   17.6755   18.8219 H   0  0  0  0  0  0  0  0  0  0  0  0
   19.5118   18.4871   19.4391 H   0  0  0  0  0  0  0  0  0  0  0  0
  1  2  1  0  0  0  0
  1  3  1  0  0  0  0
  1  4  1  0  0  0  0
  1  5  1  0  0  0  0
  5  6  1  0  0  0  0
  5  7  1  0  0  0  0
  5  8  1  0  0  0  0
  8  9  1  0  0  0  0
  8 10  1  0  0  0  0
  8 11  1  0  0  0  0
 11 12  1  0  0  0  0
 11 13  1  0  0  0  0
 11 14  1  0  0  0  0
 14 15  1  0  0  0  0
 14 16  1  0  0  0  0
 14 17  1  0  0  0  0
 17 18  1  0  0  0  0
 17 19  1  0  0  0  0
 17 20  1  0  0  0  0
 20 21  1  0  0  0  0
 20 22  1  0  0  0  0
 20 23  1  0  0  0  0
M  END
> <VConfSearch Rank>
903

> <Conf_Id>
50

> <Delta U+W>
1.252

> <U+W>
-7.130

> <U>
48.727

> <W>
-55.857

> <W(PB)>
-57.937

> <W(SA)>
2.080

> <Valence>
2.671

> <Coulomb>
45.371

> <VdW>
0.684

> <VdW6>
-6.511

> <VdW12>
7.196

> <Bond>
0.203

> <Angle>
0.915

> <Pdih>
1.554

> <Idih>
0.000

> <Tether>
0.000

$$$$
VeraChem MOL file


 23 22  0  0  0  0  0  0  0  0999 V2000     
   19.6000   16.2012   21.2309 N   0  3  0  0  0  0  0  0  0  0  0  0
   18.6662   16.5912   21.0712 H   0  0  0  0  0  0  0  0  0  0  0  0
   19.4848   15.1898   21.3564 H   0  0  0  0  0  0  0  0  0  0  0  0
   20.1365   16.3359   20.3679 H   0  0  0  0  0  0  0  0  0  0  0  0
   20.2813   16.8424   22.4242 C   0  0  0  0  0  0  0  0  0  0  0  0
   21.2487   16.3505   22.5571 H   0  0  0  0  0  0  0  0  0  0  0  0
   19.6729   16.6420   23.3104 H   0  0  0  0  0  0  0  0  0  0  0  0
   20.4968   18.3610   22.2761 C   0  0  0  0  0  0  0  0  0  0  0  0
   21.0883   18.7081   23.1308 H   0  0  0  0  0  0  0  0  0  0  0  0
   21.1037   18.5573   21.3823 H   0  0  0  0  0  0  0  0  0  0  0  0
   19.1641   19.1479   22.1908 C   0  0  0  0  0  0  0  0  0  0  0  0
   18.5099   18.8847   23.0335 H   0  0  0  0  0  0  0  0  0  0  0  0
   18.6318   18.8348   21.2827 H   0  0  0  0  0  0  0  0  0  0  0  0
   19.3601   20.6854   22.1303 C   0  0  0  0  0  0  0  0  0  0  0  0
   20.3187   20.9295   21.6521 H   0  0  0  0  0  0  0  0  0  0  0  0
   18.5864   21.1034   21.4714 H   0  0  0  0  0  0  0  0  0  0  0  0
   19.2469   21.4076   23.4973 C   0  0  0  0  0  0  0  0  0  0  0  0
   18.2465   21.2405   23.9204 H   0  0  0  0  0  0  0  0  0  0  0  0
   19.3277   22.4903   23.3272 H   0  0  0  0  0  0  0  0  0  0  0  0
   20.3160   20.9880   24.5298 C   0  0  0  0  0  0  0  0  0  0  0  0
   21.3276   21.0880   24.1158 H   0  0  0  0  0  0  0  0  0  0  0  0
   20.1712   19.9502   24.8543 H   0  0  0  0  0  0  0  0  0  0  0  0
   20.2551   21.6220   25.4238 H   0  0  0  0  0  0  0  0  0  0  0  0
  1  2  1  0  0  0  0
  1  3  1  0  0  0  0
  1  4  1  0  0  0  0
  1  5  1  0  0  0  0
  5  6  1  0  0  0  0
  5  7  1  0  0  0  0
  5  8  1  0  0  0  0
  8  9  1  0  0  0  0
  8 10  1  0  0  0  0
  8 11  1  0  0  0  0
 11 12  1  0  0  0  0
 11 13  1  0  0  0  0
 11 14  1  0  0  0  0
 14 15  1  0  0  0  0
 14 16  1  0  0  0  0
 14 17  1  0  0  0  0
 17 18  1  0  0  0  0
 17 19  1  0  0  0  0
 17 20  1  0  0  0  0
 20 21  1  0  0  0  0
 20 22  1  0  0  0  0
 20 23  1  0  0  0  0
M  END
> <VConfSearch Rank>
904

> <Conf_Id>
55

> <Delta U+W>
3.232

> <U+W>
-5.150

> <U>
50.625

> <W>
-55.776

> <W(PB)>
-57.839

> <W(SA)>
2.064

> <Valence>
4.837

> <Coulomb>
45.097

> <VdW>
0.692

> <VdW6>
-6.655

> <VdW12>
7.347

> <Bond>
0.223

> <Angle>
1.167

> <Pdih>
3.447

> <Idih>
0.000

> <Tether>
0.000

$$$$
VeraChem MOL file


 23 22  0  0  0  0  0  0  0  0999 V2000     
   22.5492   20.5166   22.0577 N   0  3  0  0  0  0  0  0  0  0  0  0
   22.8912   20.6976   21.1085 H   0  0  0  0  0  0  0  0  0  0  0  0
   23.3730   20.3370   22.6417 H   0  0  0  0  0  0  0  0  0  0  0  0
   22.1272   21.3869   22.3970 H   0  0  0  0  0  0  0  0  0  0  0  0
   21.5699   19.3610   22.0946 C   0  0  0  0  0  0  0  0  0  0  0  0
   21.2787   19.2040   23.1348 H   0  0  0  0  0  0  0  0  0  0  0  0
   22.0935   18.4657   21.7486 H   0  0  0  0  0  0  0  0  0  0  0  0
   20.3235   19.5995   21.2198 C   0  0  0  0  0  0  0  0  0  0  0  0
   19.8123   20.5220   21.5260 H   0  0  0  0  0  0  0  0  0  0  0  0
   20.6587   19.7594   20.1863 H   0  0  0  0  0  0  0  0  0  0  0  0
   19.3312   18.4094   21.2374 C   0  0  0  0  0  0  0  0  0  0  0  0
   19.8831   17.4594   21.2615 H   0  0  0  0  0  0  0  0  0  0  0  0
   18.7814   18.4091   20.2859 H   0  0  0  0  0  0  0  0  0  0  0  0
   18.2844   18.4470   22.3812 C   0  0  0  0  0  0  0  0  0  0  0  0
   17.6689   19.3520   22.2845 H   0  0  0  0  0  0  0  0  0  0  0  0
   17.6001   17.5979   22.2459 H   0  0  0  0  0  0  0  0  0  0  0  0
   18.8837   18.3845   23.8051 C   0  0  0  0  0  0  0  0  0  0  0  0
   19.4454   19.3040   24.0150 H   0  0  0  0  0  0  0  0  0  0  0  0
   19.5909   17.5464   23.8768 H   0  0  0  0  0  0  0  0  0  0  0  0
   17.7861   18.2214   24.8781 C   0  0  0  0  0  0  0  0  0  0  0  0
   17.2226   17.2910   24.7292 H   0  0  0  0  0  0  0  0  0  0  0  0
   17.0772   19.0591   24.8477 H   0  0  0  0  0  0  0  0  0  0  0  0
   18.2276   18.1899   25.8826 H   0  0  0  0  0  0  0  0  0  0  0  0
  1  2  1  0  0  0  0
  1  3  1  0  0  0  0
  1  4  1  0  0  0  0
  1  5  1  0  0  0  0
  5  6  1  0  0  0  0
  5  7  1  0  0  0  0
  5  8  1  0  0  0  0
  8  9  1  0  0  0  0
  8 10  1  0  0  0  0
  8 11  1  0  0  0  0
 11 12  1  0  0  0  0
 11 13  1  0  0  0  0
 11 14  1  0  0  0  0
 14 15  1  0  0  0  0
 14 16  1  0  0  0  0
 14 17  1  0  0  0  0
 17 18  1  0  0  0  0
 17 19  1  0  0  0  0
 17 20  1  0  0  0  0
 20 21  1  0  0  0  0
 20 22  1  0  0  0  0
 20 23  1  0  0  0  0
M  END
> <VConfSearch Rank>
905

> <Conf_Id>
93

> <Delta U+W>
2.589

> <U+W>
-5.793

> <U>
50.122

> <W>
-55.915

> <W(PB)>
-58.031

> <W(SA)>
2.115

> <Valence>
4.132

> <Coulomb>
45.536

> <VdW>
0.454

> <VdW6>
-6.262

> <VdW12>
6.715

> <Bond>
0.182

> <Angle>
1.157

> <Pdih>
2.794

> <Idih>
0.000

> <Tether>
0.000

$$$$
VeraChem MOL file


 23 22  0  0  0  0  0  0  0  0999 V2000     
   21.3149   21.2648   23.9983 N   0  3  0  0  0  0  0  0  0  0  0  0
   20.4337   21.6603   24.3414 H   0  0  0  0  0  0  0  0  0  0  0  0
   21.7741   21.9957   23.4441 H   0  0  0  0  0  0  0  0  0  0  0  0
   21.9081   21.0954   24.8169 H   0  0  0  0  0  0  0  0  0  0  0  0
   21.0921   20.0022   23.1909 C   0  0  0  0  0  0  0  0  0  0  0  0
   22.0658   19.6547   22.8353 H   0  0  0  0  0  0  0  0  0  0  0  0
   20.4866   20.2649   22.3216 H   0  0  0  0  0  0  0  0  0  0  0  0
   20.4094   18.8822   24.0004 C   0  0  0  0  0  0  0  0  0  0  0  0
   21.0444   18.6528   24.8665 H   0  0  0  0  0  0  0  0  0  0  0  0
   19.4500   19.2325   24.4037 H   0  0  0  0  0  0  0  0  0  0  0  0
   20.2014   17.5817   23.1838 C   0  0  0  0  0  0  0  0  0  0  0  0
   20.1981   16.7353   23.8846 H   0  0  0  0  0  0  0  0  0  0  0  0
   21.0601   17.4132   22.5191 H   0  0  0  0  0  0  0  0  0  0  0  0
   18.8802   17.5221   22.3735 C   0  0  0  0  0  0  0  0  0  0  0  0
   18.8148   16.5329   21.8994 H   0  0  0  0  0  0  0  0  0  0  0  0
   18.0258   17.5866   23.0614 H   0  0  0  0  0  0  0  0  0  0  0  0
   18.7437   18.6096   21.2831 C   0  0  0  0  0  0  0  0  0  0  0  0
   19.6478   18.6287   20.6587 H   0  0  0  0  0  0  0  0  0  0  0  0
   18.6493   19.5982   21.7507 H   0  0  0  0  0  0  0  0  0  0  0  0
   17.5091   18.3672   20.3888 C   0  0  0  0  0  0  0  0  0  0  0  0
   17.4212   19.1536   19.6280 H   0  0  0  0  0  0  0  0  0  0  0  0
   16.5856   18.3680   20.9826 H   0  0  0  0  0  0  0  0  0  0  0  0
   17.5805   17.4029   19.8690 H   0  0  0  0  0  0  0  0  0  0  0  0
  1  2  1  0  0  0  0
  1  3  1  0  0  0  0
  1  4  1  0  0  0  0
  1  5  1  0  0  0  0
  5  6  1  0  0  0  0
  5  7  1  0  0  0  0
  5  8  1  0  0  0  0
  8  9  1  0  0  0  0
  8 10  1  0  0  0  0
  8 11  1  0  0  0  0
 11 12  1  0  0  0  0
 11 13  1  0  0  0  0
 11 14  1  0  0  0  0
 14 15  1  0  0  0  0
 14 16  1  0  0  0  0
 14 17  1  0  0  0  0
 17 18  1  0  0  0  0
 17 19  1  0  0  0  0
 17 20  1  0  0  0  0
 20 21  1  0  0  0  0
 20 22  1  0  0  0  0
 20 23  1  0  0  0  0
M  END
> <VConfSearch Rank>
906

> <Conf_Id>
70

> <Delta U+W>
2.599

> <U+W>
-5.783

> <U>
50.122

> <W>
-55.906

> <W(PB)>
-58.010

> <W(SA)>
2.105

> <Valence>
4.132

> <Coulomb>
45.536

> <VdW>
0.454

> <VdW6>
-6.262

> <VdW12>
6.715

> <Bond>
0.182

> <Angle>
1.157

> <Pdih>
2.794

> <Idih>
0.000

> <Tether>
0.000

$$$$
VeraChem MOL file


 23 22  0  0  0  0  0  0  0  0999 V2000     
   18.7697   16.5795   23.6850 N   0  3  0  0  0  0  0  0  0  0  0  0
   19.0001   15.6392   23.3486 H   0  0  0  0  0  0  0  0  0  0  0  0
   17.9683   16.4830   24.3177 H   0  0  0  0  0  0  0  0  0  0  0  0
   19.5618   16.9020   24.2490 H   0  0  0  0  0  0  0  0  0  0  0  0
   18.4739   17.5296   22.5413 C   0  0  0  0  0  0  0  0  0  0  0  0
   18.2041   18.4998   22.9667 H   0  0  0  0  0  0  0  0  0  0  0  0
   17.6052   17.1418   22.0023 H   0  0  0  0  0  0  0  0  0  0  0  0
   19.6511   17.7010   21.5602 C   0  0  0  0  0  0  0  0  0  0  0  0
   19.8906   16.7270   21.1133 H   0  0  0  0  0  0  0  0  0  0  0  0
   19.3286   18.3400   20.7282 H   0  0  0  0  0  0  0  0  0  0  0  0
   20.9305   18.2930   22.2080 C   0  0  0  0  0  0  0  0  0  0  0  0
   21.6967   18.4158   21.4301 H   0  0  0  0  0  0  0  0  0  0  0  0
   21.3450   17.5667   22.9200 H   0  0  0  0  0  0  0  0  0  0  0  0
   20.7272   19.6471   22.9359 C   0  0  0  0  0  0  0  0  0  0  0  0
   20.0340   19.5220   23.7783 H   0  0  0  0  0  0  0  0  0  0  0  0
   21.6869   19.9506   23.3767 H   0  0  0  0  0  0  0  0  0  0  0  0
   20.2211   20.7772   22.0088 C   0  0  0  0  0  0  0  0  0  0  0  0
   19.2285   20.5257   21.6120 H   0  0  0  0  0  0  0  0  0  0  0  0
   20.8935   20.8777   21.1453 H   0  0  0  0  0  0  0  0  0  0  0  0
   20.1361   22.1276   22.7515 C   0  0  0  0  0  0  0  0  0  0  0  0
   19.7732   22.9168   22.0804 H   0  0  0  0  0  0  0  0  0  0  0  0
   21.1203   22.4334   23.1294 H   0  0  0  0  0  0  0  0  0  0  0  0
   19.4465   22.0664   23.6035 H   0  0  0  0  0  0  0  0  0  0  0  0
  1  2  1  0  0  0  0
  1  3  1  0  0  0  0
  1  4  1  0  0  0  0
  1  5  1  0  0  0  0
  5  6  1  0  0  0  0
  5  7  1  0  0  0  0
  5  8  1  0  0  0  0
  8  9  1  0  0  0  0
  8 10  1  0  0  0  0
  8 11  1  0  0  0  0
 11 12  1  0  0  0  0
 11 13  1  0  0  0  0
 11 14  1  0  0  0  0
 14 15  1  0  0  0  0
 14 16  1  0  0  0  0
 14 17  1  0  0  0  0
 17 18  1  0  0  0  0
 17 19  1  0  0  0  0
 17 20  1  0  0  0  0
 20 21  1  0  0  0  0
 20 22  1  0  0  0  0
 20 23  1  0  0  0  0
M  END
> <VConfSearch Rank>
907

> <Conf_Id>
72

> <Delta U+W>
1.051

> <U+W>
-7.331

> <U>
48.590

> <W>
-55.922

> <W(PB)>
-58.012

> <W(SA)>
2.090

> <Valence>
2.601

> <Coulomb>
45.520

> <VdW>
0.469

> <VdW6>
-6.867

> <VdW12>
7.336

> <Bond>
0.205

> <Angle>
0.962

> <Pdih>
1.434

> <Idih>
0.000

> <Tether>
0.000

$$$$
VeraChem MOL file


 23 22  0  0  0  0  0  0  0  0999 V2000     
   16.6613   19.3151   23.0019 N   0  3  0  0  0  0  0  0  0  0  0  0
   15.9958   19.9071   22.4933 H   0  0  0  0  0  0  0  0  0  0  0  0
   16.3382   19.2714   23.9738 H   0  0  0  0  0  0  0  0  0  0  0  0
   16.5772   18.3703   22.6134 H   0  0  0  0  0  0  0  0  0  0  0  0
   18.0772   19.8446   22.9005 C   0  0  0  0  0  0  0  0  0  0  0  0
   18.0879   20.8606   23.3043 H   0  0  0  0  0  0  0  0  0  0  0  0
   18.3430   19.8923   21.8413 H   0  0  0  0  0  0  0  0  0  0  0  0
   19.1021   18.9769   23.6545 C   0  0  0  0  0  0  0  0  0  0  0  0
   18.8052   18.9050   24.7092 H   0  0  0  0  0  0  0  0  0  0  0  0
   19.0830   17.9534   23.2588 H   0  0  0  0  0  0  0  0  0  0  0  0
   20.5399   19.5478   23.5778 C   0  0  0  0  0  0  0  0  0  0  0  0
   21.2150   18.8985   24.1510 H   0  0  0  0  0  0  0  0  0  0  0  0
   20.5627   20.5211   24.0871 H   0  0  0  0  0  0  0  0  0  0  0  0
   21.0929   19.7296   22.1384 C   0  0  0  0  0  0  0  0  0  0  0  0
   20.5130   20.5050   21.6200 H   0  0  0  0  0  0  0  0  0  0  0  0
   22.1171   20.1218   22.2034 H   0  0  0  0  0  0  0  0  0  0  0  0
   21.1035   18.4464   21.2691 C   0  0  0  0  0  0  0  0  0  0  0  0
   21.5005   18.6995   20.2762 H   0  0  0  0  0  0  0  0  0  0  0  0
   20.0774   18.0929   21.1011 H   0  0  0  0  0  0  0  0  0  0  0  0
   21.9565   17.3062   21.8699 C   0  0  0  0  0  0  0  0  0  0  0  0
   22.9849   17.6405   22.0585 H   0  0  0  0  0  0  0  0  0  0  0  0
   22.0015   16.4545   21.1789 H   0  0  0  0  0  0  0  0  0  0  0  0
   21.5343   16.9430   22.8151 H   0  0  0  0  0  0  0  0  0  0  0  0
  1  2  1  0  0  0  0
  1  3  1  0  0  0  0
  1  4  1  0  0  0  0
  1  5  1  0  0  0  0
  5  6  1  0  0  0  0
  5  7  1  0  0  0  0
  5  8  1  0  0  0  0
  8  9  1  0  0  0  0
  8 10  1  0  0  0  0
  8 11  1  0  0  0  0
 11 12  1  0  0  0  0
 11 13  1  0  0  0  0
 11 14  1  0  0  0  0
 14 15  1  0  0  0  0
 14 16  1  0  0  0  0
 14 17  1  0  0  0  0
 17 18  1  0  0  0  0
 17 19  1  0  0  0  0
 17 20  1  0  0  0  0
 20 21  1  0  0  0  0
 20 22  1  0  0  0  0
 20 23  1  0  0  0  0
M  END
> <VConfSearch Rank>
908

> <Conf_Id>
26

> <Delta U+W>
1.076

> <U+W>
-7.306

> <U>
48.641

> <W>
-55.947

> <W(PB)>
-58.031

> <W(SA)>
2.084

> <Valence>
2.922

> <Coulomb>
45.269

> <VdW>
0.449

> <VdW6>
-7.045

> <VdW12>
7.494

> <Bond>
0.220

> <Angle>
1.205

> <Pdih>
1.497

> <Idih>
0.000

> <Tether>
0.000

$$$$
VeraChem MOL file


 23 22  0  0  0  0  0  0  0  0999 V2000     
   19.4561   16.7627   20.4433 N   0  3  0  0  0  0  0  0  0  0  0  0
   18.5422   16.2983   20.4444 H   0  0  0  0  0  0  0  0  0  0  0  0
   20.1333   16.0862   20.0751 H   0  0  0  0  0  0  0  0  0  0  0  0
   19.4034   17.5305   19.7663 H   0  0  0  0  0  0  0  0  0  0  0  0
   19.8429   17.2516   21.8242 C   0  0  0  0  0  0  0  0  0  0  0  0
   20.8347   17.7059   21.7541 H   0  0  0  0  0  0  0  0  0  0  0  0
   19.9081   16.3826   22.4845 H   0  0  0  0  0  0  0  0  0  0  0  0
   18.8451   18.2703   22.4060 C   0  0  0  0  0  0  0  0  0  0  0  0
   18.7690   19.1372   21.7374 H   0  0  0  0  0  0  0  0  0  0  0  0
   17.8456   17.8166   22.4371 H   0  0  0  0  0  0  0  0  0  0  0  0
   19.2283   18.7341   23.8332 C   0  0  0  0  0  0  0  0  0  0  0  0
   19.1805   17.8709   24.5114 H   0  0  0  0  0  0  0  0  0  0  0  0
   18.4689   19.4386   24.1978 H   0  0  0  0  0  0  0  0  0  0  0  0
   20.6352   19.3799   23.9527 C   0  0  0  0  0  0  0  0  0  0  0  0
   20.7938   19.6837   24.9966 H   0  0  0  0  0  0  0  0  0  0  0  0
   21.4031   18.6222   23.7465 H   0  0  0  0  0  0  0  0  0  0  0  0
   20.8791   20.6038   23.0336 C   0  0  0  0  0  0  0  0  0  0  0  0
   20.8300   20.3025   21.9787 H   0  0  0  0  0  0  0  0  0  0  0  0
   21.9044   20.9645   23.1957 H   0  0  0  0  0  0  0  0  0  0  0  0
   19.8960   21.7684   23.2901 C   0  0  0  0  0  0  0  0  0  0  0  0
   18.8660   21.4888   23.0360 H   0  0  0  0  0  0  0  0  0  0  0  0
   20.1629   22.6392   22.6774 H   0  0  0  0  0  0  0  0  0  0  0  0
   19.9184   22.0788   24.3427 H   0  0  0  0  0  0  0  0  0  0  0  0
  1  2  1  0  0  0  0
  1  3  1  0  0  0  0
  1  4  1  0  0  0  0
  1  5  1  0  0  0  0
  5  6  1  0  0  0  0
  5  7  1  0  0  0  0
  5  8  1  0  0  0  0
  8  9  1  0  0  0  0
  8 10  1  0  0  0  0
  8 11  1  0  0  0  0
 11 12  1  0  0  0  0
 11 13  1  0  0  0  0
 11 14  1  0  0  0  0
 14 15  1  0  0  0  0
 14 16  1  0  0  0  0
 14 17  1  0  0  0  0
 17 18  1  0  0  0  0
 17 19  1  0  0  0  0
 17 20  1  0  0  0  0
 20 21  1  0  0  0  0
 20 22  1  0  0  0  0
 20 23  1  0  0  0  0
M  END
> <VConfSearch Rank>
909

> <Conf_Id>
90

> <Delta U+W>
1.131

> <U+W>
-7.251

> <U>
48.641

> <W>
-55.892

> <W(PB)>
-57.962

> <W(SA)>
2.070

> <Valence>
2.922

> <Coulomb>
45.269

> <VdW>
0.450

> <VdW6>
-7.045

> <VdW12>
7.495

> <Bond>
0.220

> <Angle>
1.205

> <Pdih>
1.497

> <Idih>
0.000

> <Tether>
0.000

$$$$
VeraChem MOL file


 23 22  0  0  0  0  0  0  0  0999 V2000     
   21.5050   20.9458   22.2701 N   0  3  0  0  0  0  0  0  0  0  0  0
   21.9899   21.6132   22.8793 H   0  0  0  0  0  0  0  0  0  0  0  0
   20.5044   21.0204   22.4774 H   0  0  0  0  0  0  0  0  0  0  0  0
   21.6403   21.2675   21.3064 H   0  0  0  0  0  0  0  0  0  0  0  0
   22.0127   19.5310   22.4676 C   0  0  0  0  0  0  0  0  0  0  0  0
   21.8677   19.2624   23.5172 H   0  0  0  0  0  0  0  0  0  0  0  0
   23.0868   19.5310   22.2631 H   0  0  0  0  0  0  0  0  0  0  0  0
   21.3195   18.4918   21.5628 C   0  0  0  0  0  0  0  0  0  0  0  0
   21.5115   18.7451   20.5117 H   0  0  0  0  0  0  0  0  0  0  0  0
   21.7856   17.5119   21.7311 H   0  0  0  0  0  0  0  0  0  0  0  0
   19.7914   18.3771   21.7917 C   0  0  0  0  0  0  0  0  0  0  0  0
   19.3886   17.6285   21.0956 H   0  0  0  0  0  0  0  0  0  0  0  0
   19.3098   19.3279   21.5306 H   0  0  0  0  0  0  0  0  0  0  0  0
   19.4239   17.9721   23.2416 C   0  0  0  0  0  0  0  0  0  0  0  0
   19.9819   17.0653   23.5127 H   0  0  0  0  0  0  0  0  0  0  0  0
   19.7414   18.7530   23.9454 H   0  0  0  0  0  0  0  0  0  0  0  0
   17.9135   17.6967   23.4375 C   0  0  0  0  0  0  0  0  0  0  0  0
   17.7537   17.3149   24.4556 H   0  0  0  0  0  0  0  0  0  0  0  0
   17.5893   16.8981   22.7556 H   0  0  0  0  0  0  0  0  0  0  0  0
   17.0300   18.9480   23.2304 C   0  0  0  0  0  0  0  0  0  0  0  0
   17.3509   19.7706   23.8826 H   0  0  0  0  0  0  0  0  0  0  0  0
   15.9824   18.7216   23.4675 H   0  0  0  0  0  0  0  0  0  0  0  0
   17.0640   19.2984   22.1915 H   0  0  0  0  0  0  0  0  0  0  0  0
  1  2  1  0  0  0  0
  1  3  1  0  0  0  0
  1  4  1  0  0  0  0
  1  5  1  0  0  0  0
  5  6  1  0  0  0  0
  5  7  1  0  0  0  0
  5  8  1  0  0  0  0
  8  9  1  0  0  0  0
  8 10  1  0  0  0  0
  8 11  1  0  0  0  0
 11 12  1  0  0  0  0
 11 13  1  0  0  0  0
 11 14  1  0  0  0  0
 14 15  1  0  0  0  0
 14 16  1  0  0  0  0
 14 17  1  0  0  0  0
 17 18  1  0  0  0  0
 17 19  1  0  0  0  0
 17 20  1  0  0  0  0
 20 21  1  0  0  0  0
 20 22  1  0  0  0  0
 20 23  1  0  0  0  0
M  END
> <VConfSearch Rank>
910

> <Conf_Id>
85

> <Delta U+W>
1.193

> <U+W>
-7.189

> <U>
48.775

> <W>
-55.965

> <W(PB)>
-58.038

> <W(SA)>
2.073

> <Valence>
2.602

> <Coulomb>
45.581

> <VdW>
0.592

> <VdW6>
-6.616

> <VdW12>
7.208

> <Bond>
0.196

> <Angle>
0.832

> <Pdih>
1.574

> <Idih>
0.000

> <Tether>
0.000

$$$$
VeraChem MOL file


 23 22  0  0  0  0  0  0  0  0999 V2000     
   20.4199   17.2075   21.6351 N   0  3  0  0  0  0  0  0  0  0  0  0
   20.4386   18.2101   21.4229 H   0  0  0  0  0  0  0  0  0  0  0  0
   20.1342   16.7176   20.7803 H   0  0  0  0  0  0  0  0  0  0  0  0
   21.3828   16.9193   21.8368 H   0  0  0  0  0  0  0  0  0  0  0  0
   19.4898   16.9061   22.7943 C   0  0  0  0  0  0  0  0  0  0  0  0
   19.5252   15.8258   22.9595 H   0  0  0  0  0  0  0  0  0  0  0  0
   18.4699   17.1713   22.5033 H   0  0  0  0  0  0  0  0  0  0  0  0
   19.8658   17.6281   24.1042 C   0  0  0  0  0  0  0  0  0  0  0  0
   19.4188   17.0662   24.9351 H   0  0  0  0  0  0  0  0  0  0  0  0
   20.9517   17.5754   24.2585 H   0  0  0  0  0  0  0  0  0  0  0  0
   19.3812   19.0991   24.2124 C   0  0  0  0  0  0  0  0  0  0  0  0
   19.6666   19.4664   25.2079 H   0  0  0  0  0  0  0  0  0  0  0  0
   18.2831   19.1347   24.1904 H   0  0  0  0  0  0  0  0  0  0  0  0
   19.9684   20.0701   23.1562 C   0  0  0  0  0  0  0  0  0  0  0  0
   20.1281   21.0478   23.6318 H   0  0  0  0  0  0  0  0  0  0  0  0
   20.9633   19.7297   22.8398 H   0  0  0  0  0  0  0  0  0  0  0  0
   19.0367   20.2813   21.9378 C   0  0  0  0  0  0  0  0  0  0  0  0
   18.1143   20.7787   22.2693 H   0  0  0  0  0  0  0  0  0  0  0  0
   18.7245   19.3222   21.5078 H   0  0  0  0  0  0  0  0  0  0  0  0
   19.7106   21.1390   20.8460 C   0  0  0  0  0  0  0  0  0  0  0  0
   19.9860   22.1276   21.2361 H   0  0  0  0  0  0  0  0  0  0  0  0
   19.0306   21.2905   19.9976 H   0  0  0  0  0  0  0  0  0  0  0  0
   20.6207   20.6573   20.4659 H   0  0  0  0  0  0  0  0  0  0  0  0
  1  2  1  0  0  0  0
  1  3  1  0  0  0  0
  1  4  1  0  0  0  0
  1  5  1  0  0  0  0
  5  6  1  0  0  0  0
  5  7  1  0  0  0  0
  5  8  1  0  0  0  0
  8  9  1  0  0  0  0
  8 10  1  0  0  0  0
  8 11  1  0  0  0  0
 11 12  1  0  0  0  0
 11 13  1  0  0  0  0
 11 14  1  0  0  0  0
 14 15  1  0  0  0  0
 14 16  1  0  0  0  0
 14 17  1  0  0  0  0
 17 18  1  0  0  0  0
 17 19  1  0  0  0  0
 17 20  1  0  0  0  0
 20 21  1  0  0  0  0
 20 22  1  0  0  0  0
 20 23  1  0  0  0  0
M  END
> <VConfSearch Rank>
911

> <Conf_Id>
82

> <Delta U+W>
5.994

> <U+W>
-2.388

> <U>
52.836

> <W>
-55.224

> <W(PB)>
-57.261

> <W(SA)>
2.037

> <Valence>
5.785

> <Coulomb>
46.744

> <VdW>
0.307

> <VdW6>
-7.672

> <VdW12>
7.979

> <Bond>
0.217

> <Angle>
1.470

> <Pdih>
4.098

> <Idih>
0.000

> <Tether>
0.000

$$$$
VeraChem MOL file


 23 22  0  0  0  0  0  0  0  0999 V2000     
   18.0010   19.6604   21.9531 N   0  3  0  0  0  0  0  0  0  0  0  0
   17.3080   19.8549   22.6831 H   0  0  0  0  0  0  0  0  0  0  0  0
   17.6831   20.1401   21.1039 H   0  0  0  0  0  0  0  0  0  0  0  0
   18.8813   20.0986   22.2423 H   0  0  0  0  0  0  0  0  0  0  0  0
   18.1742   18.1709   21.7269 C   0  0  0  0  0  0  0  0  0  0  0  0
   18.8715   18.0212   20.8983 H   0  0  0  0  0  0  0  0  0  0  0  0
   17.1994   17.7783   21.4249 H   0  0  0  0  0  0  0  0  0  0  0  0
   18.6640   17.4005   22.9699 C   0  0  0  0  0  0  0  0  0  0  0  0
   18.1236   17.7498   23.8598 H   0  0  0  0  0  0  0  0  0  0  0  0
   18.3803   16.3473   22.8430 H   0  0  0  0  0  0  0  0  0  0  0  0
   20.1953   17.4517   23.2201 C   0  0  0  0  0  0  0  0  0  0  0  0
   20.7281   16.9795   22.3830 H   0  0  0  0  0  0  0  0  0  0  0  0
   20.4063   16.8212   24.0950 H   0  0  0  0  0  0  0  0  0  0  0  0
   20.7756   18.8628   23.4946 C   0  0  0  0  0  0  0  0  0  0  0  0
   20.0140   19.5019   23.9605 H   0  0  0  0  0  0  0  0  0  0  0  0
   21.5794   18.7708   24.2384 H   0  0  0  0  0  0  0  0  0  0  0  0
   21.3712   19.5330   22.2323 C   0  0  0  0  0  0  0  0  0  0  0  0
   20.6543   19.5209   21.4027 H   0  0  0  0  0  0  0  0  0  0  0  0
   22.2397   18.9528   21.8900 H   0  0  0  0  0  0  0  0  0  0  0  0
   21.8104   20.9860   22.5111 C   0  0  0  0  0  0  0  0  0  0  0  0
   20.9607   21.6060   22.8247 H   0  0  0  0  0  0  0  0  0  0  0  0
   22.2434   21.4395   21.6100 H   0  0  0  0  0  0  0  0  0  0  0  0
   22.5695   21.0226   23.3033 H   0  0  0  0  0  0  0  0  0  0  0  0
  1  2  1  0  0  0  0
  1  3  1  0  0  0  0
  1  4  1  0  0  0  0
  1  5  1  0  0  0  0
  5  6  1  0  0  0  0
  5  7  1  0  0  0  0
  5  8  1  0  0  0  0
  8  9  1  0  0  0  0
  8 10  1  0  0  0  0
  8 11  1  0  0  0  0
 11 12  1  0  0  0  0
 11 13  1  0  0  0  0
 11 14  1  0  0  0  0
 14 15  1  0  0  0  0
 14 16  1  0  0  0  0
 14 17  1  0  0  0  0
 17 18  1  0  0  0  0
 17 19  1  0  0  0  0
 17 20  1  0  0  0  0
 20 21  1  0  0  0  0
 20 22  1  0  0  0  0
 20 23  1  0  0  0  0
M  END
> <VConfSearch Rank>
912

> <Conf_Id>
5

> <Delta U+W>
6.087

> <U+W>
-2.295

> <U>
52.836

> <W>
-55.131

> <W(PB)>
-57.202

> <W(SA)>
2.071

> <Valence>
5.785

> <Coulomb>
46.744

> <VdW>
0.307

> <VdW6>
-7.672

> <VdW12>
7.980

> <Bond>
0.217

> <Angle>
1.470

> <Pdih>
4.098

> <Idih>
0.000

> <Tether>
0.000

$$$$
VeraChem MOL file


 23 22  0  0  0  0  0  0  0  0999 V2000     
   17.5081   19.6483   19.5636 N   0  3  0  0  0  0  0  0  0  0  0  0
   16.9821   18.7707   19.6258 H   0  0  0  0  0  0  0  0  0  0  0  0
   17.5800   19.8826   18.5676 H   0  0  0  0  0  0  0  0  0  0  0  0
   16.9331   20.3762   19.9999 H   0  0  0  0  0  0  0  0  0  0  0  0
   18.8715   19.5381   20.2156 C   0  0  0  0  0  0  0  0  0  0  0  0
   19.3856   20.4943   20.0865 H   0  0  0  0  0  0  0  0  0  0  0  0
   19.4383   18.7686   19.6844 H   0  0  0  0  0  0  0  0  0  0  0  0
   18.7984   19.1871   21.7123 C   0  0  0  0  0  0  0  0  0  0  0  0
   18.2145   19.9538   22.2389 H   0  0  0  0  0  0  0  0  0  0  0  0
   18.2669   18.2343   21.8382 H   0  0  0  0  0  0  0  0  0  0  0  0
   20.2067   19.0841   22.3384 C   0  0  0  0  0  0  0  0  0  0  0  0
   20.7371   20.0375   22.2057 H   0  0  0  0  0  0  0  0  0  0  0  0
   20.7894   18.3197   21.8054 H   0  0  0  0  0  0  0  0  0  0  0  0
   20.1452   18.7319   23.8421 C   0  0  0  0  0  0  0  0  0  0  0  0
   19.5627   19.4962   24.3752 H   0  0  0  0  0  0  0  0  0  0  0  0
   19.6150   17.7786   23.9750 H   0  0  0  0  0  0  0  0  0  0  0  0
   21.5539   18.6289   24.4680 C   0  0  0  0  0  0  0  0  0  0  0  0
   22.0876   19.5811   24.3397 H   0  0  0  0  0  0  0  0  0  0  0  0
   22.1398   17.8637   23.9396 H   0  0  0  0  0  0  0  0  0  0  0  0
   21.4884   18.2770   25.9695 C   0  0  0  0  0  0  0  0  0  0  0  0
   22.4975   18.2084   26.3959 H   0  0  0  0  0  0  0  0  0  0  0  0
   20.9896   17.3119   26.1274 H   0  0  0  0  0  0  0  0  0  0  0  0
   20.9370   19.0427   26.5307 H   0  0  0  0  0  0  0  0  0  0  0  0
  1  2  1  0  0  0  0
  1  3  1  0  0  0  0
  1  4  1  0  0  0  0
  1  5  1  0  0  0  0
  5  6  1  0  0  0  0
  5  7  1  0  0  0  0
  5  8  1  0  0  0  0
  8  9  1  0  0  0  0
  8 10  1  0  0  0  0
  8 11  1  0  0  0  0
 11 12  1  0  0  0  0
 11 13  1  0  0  0  0
 11 14  1  0  0  0  0
 14 15  1  0  0  0  0
 14 16  1  0  0  0  0
 14 17  1  0  0  0  0
 17 18  1  0  0  0  0
 17 19  1  0  0  0  0
 17 20  1  0  0  0  0
 20 21  1  0  0  0  0
 20 22  1  0  0  0  0
 20 23  1  0  0  0  0
M  END
> <VConfSearch Rank>
913

> <Conf_Id>
40

> <Delta U+W>
0.000

> <U+W>
-8.382

> <U>
46.604

> <W>
-54.986

> <W(PB)>
-57.162

> <W(SA)>
2.176

> <Valence>
1.727

> <Coulomb>
44.434

> <VdW>
0.443

> <VdW6>
-4.623

> <VdW12>
5.066

> <Bond>
0.112

> <Angle>
0.386

> <Pdih>
1.228

> <Idih>
0.000

> <Tether>
0.000

$$$$
VeraChem MOL file


 23 22  0  0  0  0  0  0  0  0999 V2000     
   23.1658   17.9874   22.2343 N   0  3  0  0  0  0  0  0  0  0  0  0
   23.5418   17.6651   23.1319 H   0  0  0  0  0  0  0  0  0  0  0  0
   23.5600   18.9172   22.0587 H   0  0  0  0  0  0  0  0  0  0  0  0
   23.5418   17.3631   21.5126 H   0  0  0  0  0  0  0  0  0  0  0  0
   21.6508   18.0054   22.2297 C   0  0  0  0  0  0  0  0  0  0  0  0
   21.3006   16.9826   22.3932 H   0  0  0  0  0  0  0  0  0  0  0  0
   21.3229   18.3271   21.2380 H   0  0  0  0  0  0  0  0  0  0  0  0
   21.0552   18.9349   23.3042 C   0  0  0  0  0  0  0  0  0  0  0  0
   21.4311   18.6288   24.2896 H   0  0  0  0  0  0  0  0  0  0  0  0
   21.4056   19.9625   23.1397 H   0  0  0  0  0  0  0  0  0  0  0  0
   19.5084   18.9105   23.3288 C   0  0  0  0  0  0  0  0  0  0  0  0
   19.1695   19.5037   24.1879 H   0  0  0  0  0  0  0  0  0  0  0  0
   19.1610   17.8827   23.5031 H   0  0  0  0  0  0  0  0  0  0  0  0
   18.8707   19.4655   22.0296 C   0  0  0  0  0  0  0  0  0  0  0  0
   19.2022   20.5004   21.8670 H   0  0  0  0  0  0  0  0  0  0  0  0
   19.2295   18.8872   21.1681 H   0  0  0  0  0  0  0  0  0  0  0  0
   17.3235   19.4140   22.0323 C   0  0  0  0  0  0  0  0  0  0  0  0
   16.9861   18.3792   22.1843 H   0  0  0  0  0  0  0  0  0  0  0  0
   16.9599   19.7126   21.0391 H   0  0  0  0  0  0  0  0  0  0  0  0
   16.6774   20.3332   23.0940 C   0  0  0  0  0  0  0  0  0  0  0  0
   16.9088   19.9987   24.1127 H   0  0  0  0  0  0  0  0  0  0  0  0
   15.5848   20.3330   22.9880 H   0  0  0  0  0  0  0  0  0  0  0  0
   17.0247   21.3687   22.9840 H   0  0  0  0  0  0  0  0  0  0  0  0
  1  2  1  0  0  0  0
  1  3  1  0  0  0  0
  1  4  1  0  0  0  0
  1  5  1  0  0  0  0
  5  6  1  0  0  0  0
  5  7  1  0  0  0  0
  5  8  1  0  0  0  0
  8  9  1  0  0  0  0
  8 10  1  0  0  0  0
  8 11  1  0  0  0  0
 11 12  1  0  0  0  0
 11 13  1  0  0  0  0
 11 14  1  0  0  0  0
 14 15  1  0  0  0  0
 14 16  1  0  0  0  0
 14 17  1  0  0  0  0
 17 18  1  0  0  0  0
 17 19  1  0  0  0  0
 17 20  1  0  0  0  0
 20 21  1  0  0  0  0
 20 22  1  0  0  0  0
 20 23  1  0  0  0  0
M  END
> <VConfSearch Rank>
914

> <Conf_Id>
65

> <Delta U+W>
1.004

> <U+W>
-7.378

> <U>
48.047

> <W>
-55.425

> <W(PB)>
-57.542

> <W(SA)>
2.116

> <Valence>
2.583

> <Coulomb>
44.791

> <VdW>
0.673

> <VdW6>
-5.788

> <VdW12>
6.462

> <Bond>
0.177

> <Angle>
0.787

> <Pdih>
1.619

> <Idih>
0.000

> <Tether>
0.000

$$$$
VeraChem MOL file


 23 22  0  0  0  0  0  0  0  0999 V2000     
   22.3690   18.0284   20.3702 N   0  3  0  0  0  0  0  0  0  0  0  0
   23.2112   17.7699   20.8942 H   0  0  0  0  0  0  0  0  0  0  0  0
   22.6819   18.5297   19.5318 H   0  0  0  0  0  0  0  0  0  0  0  0
   21.9333   17.1571   20.0510 H   0  0  0  0  0  0  0  0  0  0  0  0
   21.4185   18.8636   21.2037 C   0  0  0  0  0  0  0  0  0  0  0  0
   20.5643   19.1264   20.5746 H   0  0  0  0  0  0  0  0  0  0  0  0
   21.9361   19.7850   21.4841 H   0  0  0  0  0  0  0  0  0  0  0  0
   20.9303   18.1373   22.4715 C   0  0  0  0  0  0  0  0  0  0  0  0
   20.4093   17.2124   22.1904 H   0  0  0  0  0  0  0  0  0  0  0  0
   21.8013   17.8378   23.0695 H   0  0  0  0  0  0  0  0  0  0  0  0
   20.0007   19.0130   23.3447 C   0  0  0  0  0  0  0  0  0  0  0  0
   20.5280   19.9331   23.6325 H   0  0  0  0  0  0  0  0  0  0  0  0
   19.7919   18.4697   24.2754 H   0  0  0  0  0  0  0  0  0  0  0  0
   18.6666   19.3722   22.6419 C   0  0  0  0  0  0  0  0  0  0  0  0
   18.8769   19.8939   21.6990 H   0  0  0  0  0  0  0  0  0  0  0  0
   18.1300   18.4519   22.3730 H   0  0  0  0  0  0  0  0  0  0  0  0
   17.7444   20.2759   23.4959 C   0  0  0  0  0  0  0  0  0  0  0  0
   16.8825   20.5770   22.8842 H   0  0  0  0  0  0  0  0  0  0  0  0
   18.2725   21.2031   23.7592 H   0  0  0  0  0  0  0  0  0  0  0  0
   17.2257   19.5898   24.7803 C   0  0  0  0  0  0  0  0  0  0  0  0
   18.0406   19.3819   25.4846 H   0  0  0  0  0  0  0  0  0  0  0  0
   16.7221   18.6429   24.5465 H   0  0  0  0  0  0  0  0  0  0  0  0
   16.5028   20.2358   25.2952 H   0  0  0  0  0  0  0  0  0  0  0  0
  1  2  1  0  0  0  0
  1  3  1  0  0  0  0
  1  4  1  0  0  0  0
  1  5  1  0  0  0  0
  5  6  1  0  0  0  0
  5  7  1  0  0  0  0
  5  8  1  0  0  0  0
  8  9  1  0  0  0  0
  8 10  1  0  0  0  0
  8 11  1  0  0  0  0
 11 12  1  0  0  0  0
 11 13  1  0  0  0  0
 11 14  1  0  0  0  0
 14 15  1  0  0  0  0
 14 16  1  0  0  0  0
 14 17  1  0  0  0  0
 17 18  1  0  0  0  0
 17 19  1  0  0  0  0
 17 20  1  0  0  0  0
 20 21  1  0  0  0  0
 20 22  1  0  0  0  0
 20 23  1  0  0  0  0
M  END
> <VConfSearch Rank>
915

> <Conf_Id>
92

> <Delta U+W>
0.973

> <U+W>
-7.409

> <U>
48.047

> <W>
-55.456

> <W(PB)>
-57.595

> <W(SA)>
2.138

> <Valence>
2.583

> <Coulomb>
44.791

> <VdW>
0.674

> <VdW6>
-5.789

> <VdW12>
6.462

> <Bond>
0.177

> <Angle>
0.787

> <Pdih>
1.619

> <Idih>
0.000

> <Tether>
0.000

$$$$
VeraChem MOL file


 23 22  0  0  0  0  0  0  0  0999 V2000     
   22.3977   21.2176   21.9635 N   0  3  0  0  0  0  0  0  0  0  0  0
   22.5607   22.0321   22.5652 H   0  0  0  0  0  0  0  0  0  0  0  0
   22.4997   21.5378   20.9950 H   0  0  0  0  0  0  0  0  0  0  0  0
   23.1600   20.5564   22.1442 H   0  0  0  0  0  0  0  0  0  0  0  0
   21.0388   20.5958   22.2133 C   0  0  0  0  0  0  0  0  0  0  0  0
   20.2790   21.3604   22.0303 H   0  0  0  0  0  0  0  0  0  0  0  0
   20.9906   20.3077   23.2666 H   0  0  0  0  0  0  0  0  0  0  0  0
   20.7637   19.3688   21.3236 C   0  0  0  0  0  0  0  0  0  0  0  0
   20.8591   19.6616   20.2695 H   0  0  0  0  0  0  0  0  0  0  0  0
   21.5274   18.6012   21.5068 H   0  0  0  0  0  0  0  0  0  0  0  0
   19.3569   18.7676   21.5522 C   0  0  0  0  0  0  0  0  0  0  0  0
   19.1963   17.9605   20.8239 H   0  0  0  0  0  0  0  0  0  0  0  0
   18.5941   19.5305   21.3433 H   0  0  0  0  0  0  0  0  0  0  0  0
   19.1592   18.2091   22.9820 C   0  0  0  0  0  0  0  0  0  0  0  0
   19.9434   17.4707   23.1996 H   0  0  0  0  0  0  0  0  0  0  0  0
   19.2687   19.0160   23.7189 H   0  0  0  0  0  0  0  0  0  0  0  0
   17.7721   17.5512   23.1543 C   0  0  0  0  0  0  0  0  0  0  0  0
   17.6546   16.7358   22.4268 H   0  0  0  0  0  0  0  0  0  0  0  0
   16.9837   18.2855   22.9372 H   0  0  0  0  0  0  0  0  0  0  0  0
   17.5755   16.9958   24.5810 C   0  0  0  0  0  0  0  0  0  0  0  0
   18.3301   16.2336   24.8154 H   0  0  0  0  0  0  0  0  0  0  0  0
   16.5856   16.5325   24.6837 H   0  0  0  0  0  0  0  0  0  0  0  0
   17.6526   17.7948   25.3299 H   0  0  0  0  0  0  0  0  0  0  0  0
  1  2  1  0  0  0  0
  1  3  1  0  0  0  0
  1  4  1  0  0  0  0
  1  5  1  0  0  0  0
  5  6  1  0  0  0  0
  5  7  1  0  0  0  0
  5  8  1  0  0  0  0
  8  9  1  0  0  0  0
  8 10  1  0  0  0  0
  8 11  1  0  0  0  0
 11 12  1  0  0  0  0
 11 13  1  0  0  0  0
 11 14  1  0  0  0  0
 14 15  1  0  0  0  0
 14 16  1  0  0  0  0
 14 17  1  0  0  0  0
 17 18  1  0  0  0  0
 17 19  1  0  0  0  0
 17 20  1  0  0  0  0
 20 21  1  0  0  0  0
 20 22  1  0  0  0  0
 20 23  1  0  0  0  0
M  END
> <VConfSearch Rank>
916

> <Conf_Id>
42

> <Delta U+W>
0.365

> <U+W>
-8.017

> <U>
47.375

> <W>
-55.392

> <W(PB)>
-57.543

> <W(SA)>
2.152

> <Valence>
2.032

> <Coulomb>
44.843

> <VdW>
0.499

> <VdW6>
-5.218

> <VdW12>
5.717

> <Bond>
0.135

> <Angle>
0.514

> <Pdih>
1.383

> <Idih>
0.000

> <Tether>
0.000

$$$$
VeraChem MOL file


 23 22  0  0  0  0  0  0  0  0999 V2000     
   20.7912   21.9019   21.8995 N   0  3  0  0  0  0  0  0  0  0  0  0
   20.4979   21.8282   20.9201 H   0  0  0  0  0  0  0  0  0  0  0  0
   21.4482   22.6874   21.9564 H   0  0  0  0  0  0  0  0  0  0  0  0
   19.9642   22.1639   22.4444 H   0  0  0  0  0  0  0  0  0  0  0  0
   21.4115   20.6121   22.4008 C   0  0  0  0  0  0  0  0  0  0  0  0
   21.7225   20.7647   23.4378 H   0  0  0  0  0  0  0  0  0  0  0  0
   22.3062   20.4217   21.8017 H   0  0  0  0  0  0  0  0  0  0  0  0
   20.4720   19.3934   22.3146 C   0  0  0  0  0  0  0  0  0  0  0  0
   20.1391   19.2588   21.2769 H   0  0  0  0  0  0  0  0  0  0  0  0
   21.0533   18.5027   22.5826 H   0  0  0  0  0  0  0  0  0  0  0  0
   19.2492   19.5125   23.2565 C   0  0  0  0  0  0  0  0  0  0  0  0
   18.7258   20.4569   23.0581 H   0  0  0  0  0  0  0  0  0  0  0  0
   19.5961   19.5684   24.2976 H   0  0  0  0  0  0  0  0  0  0  0  0
   18.2209   18.3599   23.1181 C   0  0  0  0  0  0  0  0  0  0  0  0
   17.3864   18.5788   23.7987 H   0  0  0  0  0  0  0  0  0  0  0  0
   17.7862   18.3609   22.1090 H   0  0  0  0  0  0  0  0  0  0  0  0
   18.7685   16.9512   23.4648 C   0  0  0  0  0  0  0  0  0  0  0  0
   17.9710   16.3772   23.9572 H   0  0  0  0  0  0  0  0  0  0  0  0
   19.5824   17.0274   24.1992 H   0  0  0  0  0  0  0  0  0  0  0  0
   19.2344   16.1517   22.2255 C   0  0  0  0  0  0  0  0  0  0  0  0
   18.4062   16.0054   21.5200 H   0  0  0  0  0  0  0  0  0  0  0  0
   19.5969   15.1592   22.5230 H   0  0  0  0  0  0  0  0  0  0  0  0
   20.0471   16.6552   21.6906 H   0  0  0  0  0  0  0  0  0  0  0  0
  1  2  1  0  0  0  0
  1  3  1  0  0  0  0
  1  4  1  0  0  0  0
  1  5  1  0  0  0  0
  5  6  1  0  0  0  0
  5  7  1  0  0  0  0
  5  8  1  0  0  0  0
  8  9  1  0  0  0  0
  8 10  1  0  0  0  0
  8 11  1  0  0  0  0
 11 12  1  0  0  0  0
 11 13  1  0  0  0  0
 11 14  1  0  0  0  0
 14 15  1  0  0  0  0
 14 16  1  0  0  0  0
 14 17  1  0  0  0  0
 17 18  1  0  0  0  0
 17 19  1  0  0  0  0
 17 20  1  0  0  0  0
 20 21  1  0  0  0  0
 20 22  1  0  0  0  0
 20 23  1  0  0  0  0
M  END
> <VConfSearch Rank>
917

> <Conf_Id>
3

> <Delta U+W>
3.283

> <U+W>
-5.099

> <U>
50.701

> <W>
-55.800

> <W(PB)>
-57.867

> <W(SA)>
2.067

> <Valence>
4.880

> <Coulomb>
45.095

> <VdW>
0.726

> <VdW6>
-6.620

> <VdW12>
7.346

> <Bond>
0.222

> <Angle>
1.260

> <Pdih>
3.398

> <Idih>
0.000

> <Tether>
0.000

$$$$
VeraChem MOL file


 23 22  0  0  0  0  0  0  0  0999 V2000     
   22.4872   18.4908   21.6380 N   0  3  0  0  0  0  0  0  0  0  0  0
   22.5679   17.5914   21.1530 H   0  0  0  0  0  0  0  0  0  0  0  0
   23.4099   18.9368   21.5970 H   0  0  0  0  0  0  0  0  0  0  0  0
   21.8466   19.0739   21.0910 H   0  0  0  0  0  0  0  0  0  0  0  0
   22.0071   18.3196   23.0657 C   0  0  0  0  0  0  0  0  0  0  0  0
   21.9728   19.3070   23.5328 H   0  0  0  0  0  0  0  0  0  0  0  0
   22.7510   17.7199   23.5971 H   0  0  0  0  0  0  0  0  0  0  0  0
   20.6273   17.6393   23.1785 C   0  0  0  0  0  0  0  0  0  0  0  0
   20.6904   16.6294   22.7519 H   0  0  0  0  0  0  0  0  0  0  0  0
   20.3855   17.5071   24.2415 H   0  0  0  0  0  0  0  0  0  0  0  0
   19.4781   18.4153   22.4864 C   0  0  0  0  0  0  0  0  0  0  0  0
   18.5583   17.8257   22.5921 H   0  0  0  0  0  0  0  0  0  0  0  0
   19.6722   18.4881   21.4081 H   0  0  0  0  0  0  0  0  0  0  0  0
   19.2564   19.8314   23.0764 C   0  0  0  0  0  0  0  0  0  0  0  0
   19.0350   19.7547   24.1498 H   0  0  0  0  0  0  0  0  0  0  0  0
   20.1833   20.4139   22.9931 H   0  0  0  0  0  0  0  0  0  0  0  0
   18.1275   20.6223   22.3719 C   0  0  0  0  0  0  0  0  0  0  0  0
   18.3490   20.7116   21.2992 H   0  0  0  0  0  0  0  0  0  0  0  0
   18.1155   21.6470   22.7690 H   0  0  0  0  0  0  0  0  0  0  0  0
   16.7257   19.9998   22.5636 C   0  0  0  0  0  0  0  0  0  0  0  0
   16.4937   19.8691   23.6285 H   0  0  0  0  0  0  0  0  0  0  0  0
   16.6467   19.0226   22.0715 H   0  0  0  0  0  0  0  0  0  0  0  0
   15.9546   20.6497   22.1298 H   0  0  0  0  0  0  0  0  0  0  0  0
  1  2  1  0  0  0  0
  1  3  1  0  0  0  0
  1  4  1  0  0  0  0
  1  5  1  0  0  0  0
  5  6  1  0  0  0  0
  5  7  1  0  0  0  0
  5  8  1  0  0  0  0
  8  9  1  0  0  0  0
  8 10  1  0  0  0  0
  8 11  1  0  0  0  0
 11 12  1  0  0  0  0
 11 13  1  0  0  0  0
 11 14  1  0  0  0  0
 14 15  1  0  0  0  0
 14 16  1  0  0  0  0
 14 17  1  0  0  0  0
 17 18  1  0  0  0  0
 17 19  1  0  0  0  0
 17 20  1  0  0  0  0
 20 21  1  0  0  0  0
 20 22  1  0  0  0  0
 20 23  1  0  0  0  0
M  END
> <VConfSearch Rank>
918

> <Conf_Id>
83

> <Delta U+W>
1.229

> <U+W>
-7.154

> <U>
48.727

> <W>
-55.880

> <W(PB)>
-57.960

> <W(SA)>
2.080

> <Valence>
2.671

> <Coulomb>
45.371

> <VdW>
0.684

> <VdW6>
-6.511

> <VdW12>
7.195

> <Bond>
0.203

> <Angle>
0.915

> <Pdih>
1.554

> <Idih>
0.000

> <Tether>
0.000

$$$$
VeraChem MOL file


 23 22  0  0  0  0  0  0  0  0999 V2000     
   19.9195   16.8350   24.4745 N   0  3  0  0  0  0  0  0  0  0  0  0
   20.8852   16.5956   24.7209 H   0  0  0  0  0  0  0  0  0  0  0  0
   19.8102   16.6599   23.4710 H   0  0  0  0  0  0  0  0  0  0  0  0
   19.3119   16.1696   24.9643 H   0  0  0  0  0  0  0  0  0  0  0  0
   19.5866   18.2703   24.8315 C   0  0  0  0  0  0  0  0  0  0  0  0
   19.6902   18.3762   25.9148 H   0  0  0  0  0  0  0  0  0  0  0  0
   18.5400   18.4501   24.5730 H   0  0  0  0  0  0  0  0  0  0  0  0
   20.4850   19.3085   24.1285 C   0  0  0  0  0  0  0  0  0  0  0  0
   20.2113   20.3104   24.4852 H   0  0  0  0  0  0  0  0  0  0  0  0
   21.5264   19.1483   24.4378 H   0  0  0  0  0  0  0  0  0  0  0  0
   20.4010   19.2771   22.5813 C   0  0  0  0  0  0  0  0  0  0  0  0
   20.7452   18.3036   22.2077 H   0  0  0  0  0  0  0  0  0  0  0  0
   21.1051   20.0216   22.1877 H   0  0  0  0  0  0  0  0  0  0  0  0
   18.9786   19.5731   22.0415 C   0  0  0  0  0  0  0  0  0  0  0  0
   18.2693   18.8436   22.4539 H   0  0  0  0  0  0  0  0  0  0  0  0
   18.6469   20.5597   22.3935 H   0  0  0  0  0  0  0  0  0  0  0  0
   18.8817   19.5169   20.4975 C   0  0  0  0  0  0  0  0  0  0  0  0
   17.8267   19.6207   20.2074 H   0  0  0  0  0  0  0  0  0  0  0  0
   19.2021   18.5283   20.1402 H   0  0  0  0  0  0  0  0  0  0  0  0
   19.7019   20.6179   19.7873 C   0  0  0  0  0  0  0  0  0  0  0  0
   19.4232   21.6152   20.1516 H   0  0  0  0  0  0  0  0  0  0  0  0
   19.5206   20.5936   18.7049 H   0  0  0  0  0  0  0  0  0  0  0  0
   20.7793   20.4830   19.9430 H   0  0  0  0  0  0  0  0  0  0  0  0
  1  2  1  0  0  0  0
  1  3  1  0  0  0  0
  1  4  1  0  0  0  0
  1  5  1  0  0  0  0
  5  6  1  0  0  0  0
  5  7  1  0  0  0  0
  5  8  1  0  0  0  0
  8  9  1  0  0  0  0
  8 10  1  0  0  0  0
  8 11  1  0  0  0  0
 11 12  1  0  0  0  0
 11 13  1  0  0  0  0
 11 14  1  0  0  0  0
 14 15  1  0  0  0  0
 14 16  1  0  0  0  0
 14 17  1  0  0  0  0
 17 18  1  0  0  0  0
 17 19  1  0  0  0  0
 17 20  1  0  0  0  0
 20 21  1  0  0  0  0
 20 22  1  0  0  0  0
 20 23  1  0  0  0  0
M  END
> <VConfSearch Rank>
919

> <Conf_Id>
50

> <Delta U+W>
1.252

> <U+W>
-7.130

> <U>
48.727

> <W>
-55.857

> <W(PB)>
-57.937

> <W(SA)>
2.080

> <Valence>
2.671

> <Coulomb>
45.371

> <VdW>
0.684

> <VdW6>
-6.511

> <VdW12>
7.196

> <Bond>
0.203

> <Angle>
0.915

> <Pdih>
1.554

> <Idih>
0.000

> <Tether>
0.000

$$$$
VeraChem MOL file


 23 22  0  0  0  0  0  0  0  0999 V2000     
   19.7056   22.2285   22.5498 N   0  3  0  0  0  0  0  0  0  0  0  0
   19.2105   22.0149   23.4209 H   0  0  0  0  0  0  0  0  0  0  0  0
   19.2643   23.0642   22.1515 H   0  0  0  0  0  0  0  0  0  0  0  0
   20.6645   22.4885   22.8020 H   0  0  0  0  0  0  0  0  0  0  0  0
   19.6738   21.0604   21.5834 C   0  0  0  0  0  0  0  0  0  0  0  0
   20.1822   21.3743   20.6676 H   0  0  0  0  0  0  0  0  0  0  0  0
   18.6291   20.8512   21.3382 H   0  0  0  0  0  0  0  0  0  0  0  0
   20.3441   19.7839   22.1275 C   0  0  0  0  0  0  0  0  0  0  0  0
   20.3678   19.0400   21.3233 H   0  0  0  0  0  0  0  0  0  0  0  0
   21.3913   20.0004   22.3770 H   0  0  0  0  0  0  0  0  0  0  0  0
   19.6150   19.2093   23.3688 C   0  0  0  0  0  0  0  0  0  0  0  0
   18.5447   19.0785   23.1573 H   0  0  0  0  0  0  0  0  0  0  0  0
   19.6772   19.9453   24.1815 H   0  0  0  0  0  0  0  0  0  0  0  0
   20.2231   17.8758   23.8769 C   0  0  0  0  0  0  0  0  0  0  0  0
   21.2964   17.8332   23.6459 H   0  0  0  0  0  0  0  0  0  0  0  0
   20.1564   17.8651   24.9737 H   0  0  0  0  0  0  0  0  0  0  0  0
   19.5142   16.5997   23.3552 C   0  0  0  0  0  0  0  0  0  0  0  0
   18.4640   16.6032   23.6792 H   0  0  0  0  0  0  0  0  0  0  0  0
   19.9763   15.7244   23.8327 H   0  0  0  0  0  0  0  0  0  0  0  0
   19.5765   16.4178   21.8228 C   0  0  0  0  0  0  0  0  0  0  0  0
   20.6111   16.4683   21.4595 H   0  0  0  0  0  0  0  0  0  0  0  0
   18.9858   17.1841   21.3060 H   0  0  0  0  0  0  0  0  0  0  0  0
   19.1675   15.4405   21.5359 H   0  0  0  0  0  0  0  0  0  0  0  0
  1  2  1  0  0  0  0
  1  3  1  0  0  0  0
  1  4  1  0  0  0  0
  1  5  1  0  0  0  0
  5  6  1  0  0  0  0
  5  7  1  0  0  0  0
  5  8  1  0  0  0  0
  8  9  1  0  0  0  0
  8 10  1  0  0  0  0
  8 11  1  0  0  0  0
 11 12  1  0  0  0  0
 11 13  1  0  0  0  0
 11 14  1  0  0  0  0
 14 15  1  0  0  0  0
 14 16  1  0  0  0  0
 14 17  1  0  0  0  0
 17 18  1  0  0  0  0
 17 19  1  0  0  0  0
 17 20  1  0  0  0  0
 20 21  1  0  0  0  0
 20 22  1  0  0  0  0
 20 23  1  0  0  0  0
M  END
> <VConfSearch Rank>
920

> <Conf_Id>
55

> <Delta U+W>
3.232

> <U+W>
-5.150

> <U>
50.625

> <W>
-55.776

> <W(PB)>
-57.839

> <W(SA)>
2.064

> <Valence>
4.837

> <Coulomb>
45.097

> <VdW>
0.692

> <VdW6>
-6.655

> <VdW12>
7.347

> <Bond>
0.223

> <Angle>
1.167

> <Pdih>
3.447

> <Idih>
0.000

> <Tether>
0.000

$$$$
VeraChem MOL file


 23 22  0  0  0  0  0  0  0  0999 V2000     
   18.0619   21.5594   23.0671 N   0  3  0  0  0  0  0  0  0  0  0  0
   18.4486   22.5086   23.0537 H   0  0  0  0  0  0  0  0  0  0  0  0
   17.3153   21.5521   23.7704 H   0  0  0  0  0  0  0  0  0  0  0  0
   17.6161   21.4028   22.1574 H   0  0  0  0  0  0  0  0  0  0  0  0
   19.1244   20.5205   23.3629 C   0  0  0  0  0  0  0  0  0  0  0  0
   18.6362   19.5449   23.3973 H   0  0  0  0  0  0  0  0  0  0  0  0
   19.5338   20.7316   24.3545 H   0  0  0  0  0  0  0  0  0  0  0  0
   20.2644   20.5125   22.3256 C   0  0  0  0  0  0  0  0  0  0  0  0
   19.8624   20.3477   21.3171 H   0  0  0  0  0  0  0  0  0  0  0  0
   20.7235   21.5101   22.3170 H   0  0  0  0  0  0  0  0  0  0  0  0
   21.3643   19.4667   22.6386 C   0  0  0  0  0  0  0  0  0  0  0  0
   21.5301   19.4080   23.7233 H   0  0  0  0  0  0  0  0  0  0  0  0
   22.3105   19.8285   22.2128 H   0  0  0  0  0  0  0  0  0  0  0  0
   21.1040   18.0507   22.0617 C   0  0  0  0  0  0  0  0  0  0  0  0
   21.0440   18.1073   20.9660 H   0  0  0  0  0  0  0  0  0  0  0  0
   21.9784   17.4244   22.2864 H   0  0  0  0  0  0  0  0  0  0  0  0
   19.8363   17.3551   22.6092 C   0  0  0  0  0  0  0  0  0  0  0  0
   18.9397   17.8834   22.2602 H   0  0  0  0  0  0  0  0  0  0  0  0
   19.8324   17.3955   23.7074 H   0  0  0  0  0  0  0  0  0  0  0  0
   19.7516   15.8836   22.1507 C   0  0  0  0  0  0  0  0  0  0  0  0
   20.6124   15.3064   22.5126 H   0  0  0  0  0  0  0  0  0  0  0  0
   19.7281   15.8124   21.0555 H   0  0  0  0  0  0  0  0  0  0  0  0
   18.8412   15.4086   22.5388 H   0  0  0  0  0  0  0  0  0  0  0  0
  1  2  1  0  0  0  0
  1  3  1  0  0  0  0
  1  4  1  0  0  0  0
  1  5  1  0  0  0  0
  5  6  1  0  0  0  0
  5  7  1  0  0  0  0
  5  8  1  0  0  0  0
  8  9  1  0  0  0  0
  8 10  1  0  0  0  0
  8 11  1  0  0  0  0
 11 12  1  0  0  0  0
 11 13  1  0  0  0  0
 11 14  1  0  0  0  0
 14 15  1  0  0  0  0
 14 16  1  0  0  0  0
 14 17  1  0  0  0  0
 17 18  1  0  0  0  0
 17 19  1  0  0  0  0
 17 20  1  0  0  0  0
 20 21  1  0  0  0  0
 20 22  1  0  0  0  0
 20 23  1  0  0  0  0
M  END
> <VConfSearch Rank>
921

> <Conf_Id>
93

> <Delta U+W>
2.589

> <U+W>
-5.793

> <U>
50.122

> <W>
-55.915

> <W(PB)>
-58.031

> <W(SA)>
2.115

> <Valence>
4.132

> <Coulomb>
45.536

> <VdW>
0.454

> <VdW6>
-6.262

> <VdW12>
6.715

> <Bond>
0.182

> <Angle>
1.157

> <Pdih>
2.794

> <Idih>
0.000

> <Tether>
0.000

$$$$
VeraChem MOL file


 23 22  0  0  0  0  0  0  0  0999 V2000     
   20.3132   18.6558   19.5342 N   0  3  0  0  0  0  0  0  0  0  0  0
   19.4889   18.0538   19.4405 H   0  0  0  0  0  0  0  0  0  0  0  0
   21.1196   18.1096   19.2127 H   0  0  0  0  0  0  0  0  0  0  0  0
   20.1967   19.4311   18.8737 H   0  0  0  0  0  0  0  0  0  0  0  0
   20.4963   19.1472   20.9557 C   0  0  0  0  0  0  0  0  0  0  0  0
   21.4043   19.7554   20.9865 H   0  0  0  0  0  0  0  0  0  0  0  0
   20.6498   18.2745   21.5929 H   0  0  0  0  0  0  0  0  0  0  0  0
   19.3019   19.9782   21.4643 C   0  0  0  0  0  0  0  0  0  0  0  0
   19.1771   20.8398   20.7948 H   0  0  0  0  0  0  0  0  0  0  0  0
   18.3738   19.3954   21.3955 H   0  0  0  0  0  0  0  0  0  0  0  0
   19.4967   20.5017   22.9098 C   0  0  0  0  0  0  0  0  0  0  0  0
   18.9176   21.4293   23.0180 H   0  0  0  0  0  0  0  0  0  0  0  0
   20.5460   20.7867   23.0687 H   0  0  0  0  0  0  0  0  0  0  0  0
   19.0335   19.5294   24.0258 C   0  0  0  0  0  0  0  0  0  0  0  0
   19.1548   20.0369   24.9929 H   0  0  0  0  0  0  0  0  0  0  0  0
   17.9576   19.3341   23.9178 H   0  0  0  0  0  0  0  0  0  0  0  0
   19.7967   18.1854   24.0669 C   0  0  0  0  0  0  0  0  0  0  0  0
   20.8800   18.3701   24.0595 H   0  0  0  0  0  0  0  0  0  0  0  0
   19.5606   17.5938   23.1729 H   0  0  0  0  0  0  0  0  0  0  0  0
   19.4270   17.3588   25.3170 C   0  0  0  0  0  0  0  0  0  0  0  0
   19.9689   16.4042   25.3246 H   0  0  0  0  0  0  0  0  0  0  0  0
   18.3521   17.1363   25.3391 H   0  0  0  0  0  0  0  0  0  0  0  0
   19.6835   17.8984   26.2380 H   0  0  0  0  0  0  0  0  0  0  0  0
  1  2  1  0  0  0  0
  1  3  1  0  0  0  0
  1  4  1  0  0  0  0
  1  5  1  0  0  0  0
  5  6  1  0  0  0  0
  5  7  1  0  0  0  0
  5  8  1  0  0  0  0
  8  9  1  0  0  0  0
  8 10  1  0  0  0  0
  8 11  1  0  0  0  0
 11 12  1  0  0  0  0
 11 13  1  0  0  0  0
 11 14  1  0  0  0  0
 14 15  1  0  0  0  0
 14 16  1  0  0  0  0
 14 17  1  0  0  0  0
 17 18  1  0  0  0  0
 17 19  1  0  0  0  0
 17 20  1  0  0  0  0
 20 21  1  0  0  0  0
 20 22  1  0  0  0  0
 20 23  1  0  0  0  0
M  END
> <VConfSearch Rank>
922

> <Conf_Id>
70

> <Delta U+W>
2.599

> <U+W>
-5.783

> <U>
50.122

> <W>
-55.906

> <W(PB)>
-58.010

> <W(SA)>
2.105

> <Valence>
4.132

> <Coulomb>
45.536

> <VdW>
0.454

> <VdW6>
-6.262

> <VdW12>
6.715

> <Bond>
0.182

> <Angle>
1.157

> <Pdih>
2.794

> <Idih>
0.000

> <Tether>
0.000

$$$$
VeraChem MOL file


 23 22  0  0  0  0  0  0  0  0999 V2000     
   21.1860   20.6825   20.7656 N   0  3  0  0  0  0  0  0  0  0  0  0
   21.3090   20.4854   19.7673 H   0  0  0  0  0  0  0  0  0  0  0  0
   21.8099   21.4633   20.9956 H   0  0  0  0  0  0  0  0  0  0  0  0
   20.2259   21.0165   20.8923 H   0  0  0  0  0  0  0  0  0  0  0  0
   21.4711   19.4626   21.6193 C   0  0  0  0  0  0  0  0  0  0  0  0
   21.3555   19.7475   22.6683 H   0  0  0  0  0  0  0  0  0  0  0  0
   22.5147   19.1792   21.4573 H   0  0  0  0  0  0  0  0  0  0  0  0
   20.5588   18.2603   21.3032 C   0  0  0  0  0  0  0  0  0  0  0  0
   20.7086   17.9611   20.2574 H   0  0  0  0  0  0  0  0  0  0  0  0
   20.8804   17.4029   21.9081 H   0  0  0  0  0  0  0  0  0  0  0  0
   19.0506   18.5330   21.5442 C   0  0  0  0  0  0  0  0  0  0  0  0
   18.4866   17.6141   21.3328 H   0  0  0  0  0  0  0  0  0  0  0  0
   18.6954   19.2730   20.8145 H   0  0  0  0  0  0  0  0  0  0  0  0
   18.6961   19.0270   22.9708 C   0  0  0  0  0  0  0  0  0  0  0  0
   19.1774   19.9947   23.1651 H   0  0  0  0  0  0  0  0  0  0  0  0
   17.6141   19.2136   23.0135 H   0  0  0  0  0  0  0  0  0  0  0  0
   19.0766   18.0234   24.0846 C   0  0  0  0  0  0  0  0  0  0  0  0
   20.1646   17.8760   24.1064 H   0  0  0  0  0  0  0  0  0  0  0  0
   18.6264   17.0439   23.8710 H   0  0  0  0  0  0  0  0  0  0  0  0
   18.6094   18.5098   25.4730 C   0  0  0  0  0  0  0  0  0  0  0  0
   18.8895   17.7879   26.2511 H   0  0  0  0  0  0  0  0  0  0  0  0
   17.5187   18.6307   25.5030 H   0  0  0  0  0  0  0  0  0  0  0  0
   19.0675   19.4744   25.7278 H   0  0  0  0  0  0  0  0  0  0  0  0
  1  2  1  0  0  0  0
  1  3  1  0  0  0  0
  1  4  1  0  0  0  0
  1  5  1  0  0  0  0
  5  6  1  0  0  0  0
  5  7  1  0  0  0  0
  5  8  1  0  0  0  0
  8  9  1  0  0  0  0
  8 10  1  0  0  0  0
  8 11  1  0  0  0  0
 11 12  1  0  0  0  0
 11 13  1  0  0  0  0
 11 14  1  0  0  0  0
 14 15  1  0  0  0  0
 14 16  1  0  0  0  0
 14 17  1  0  0  0  0
 17 18  1  0  0  0  0
 17 19  1  0  0  0  0
 17 20  1  0  0  0  0
 20 21  1  0  0  0  0
 20 22  1  0  0  0  0
 20 23  1  0  0  0  0
M  END
> <VConfSearch Rank>
923

> <Conf_Id>
72

> <Delta U+W>
1.051

> <U+W>
-7.331

> <U>
48.590

> <W>
-55.922

> <W(PB)>
-58.012

> <W(SA)>
2.090

> <Valence>
2.601

> <Coulomb>
45.520

> <VdW>
0.469

> <VdW6>
-6.867

> <VdW12>
7.336

> <Bond>
0.205

> <Angle>
0.962

> <Pdih>
1.434

> <Idih>
0.000

> <Tether>
0.000

$$$$
VeraChem MOL file


 23 22  0  0  0  0  0  0  0  0999 V2000     
   21.4709   16.7906   24.0729 N   0  3  0  0  0  0  0  0  0  0  0  0
   21.5445   15.7825   23.8990 H   0  0  0  0  0  0  0  0  0  0  0  0
   21.5764   16.9267   25.0834 H   0  0  0  0  0  0  0  0  0  0  0  0
   22.2800   17.2307   23.6231 H   0  0  0  0  0  0  0  0  0  0  0  0
   20.1619   17.3560   23.5604 C   0  0  0  0  0  0  0  0  0  0  0  0
   19.3462   16.8247   24.0582 H   0  0  0  0  0  0  0  0  0  0  0  0
   20.1036   17.1496   22.4885 H   0  0  0  0  0  0  0  0  0  0  0  0
   20.0201   18.8696   23.8063 C   0  0  0  0  0  0  0  0  0  0  0  0
   20.1175   19.0696   24.8816 H   0  0  0  0  0  0  0  0  0  0  0  0
   20.8457   19.4030   23.3180 H   0  0  0  0  0  0  0  0  0  0  0  0
   18.6627   19.4305   23.3146 C   0  0  0  0  0  0  0  0  0  0  0  0
   18.6157   20.5046   23.5383 H   0  0  0  0  0  0  0  0  0  0  0  0
   17.8555   18.9707   23.9014 H   0  0  0  0  0  0  0  0  0  0  0  0
   18.3707   19.2012   21.8069 C   0  0  0  0  0  0  0  0  0  0  0  0
   18.2539   18.1257   21.6173 H   0  0  0  0  0  0  0  0  0  0  0  0
   17.3972   19.6502   21.5663 H   0  0  0  0  0  0  0  0  0  0  0  0
   19.4365   19.7687   20.8352 C   0  0  0  0  0  0  0  0  0  0  0  0
   19.1305   19.5364   19.8056 H   0  0  0  0  0  0  0  0  0  0  0  0
   20.3974   19.2585   20.9852 H   0  0  0  0  0  0  0  0  0  0  0  0
   19.6312   21.2965   20.9634 C   0  0  0  0  0  0  0  0  0  0  0  0
   18.6801   21.8278   20.8294 H   0  0  0  0  0  0  0  0  0  0  0  0
   20.3299   21.6607   20.1992 H   0  0  0  0  0  0  0  0  0  0  0  0
   20.0420   21.5689   21.9435 H   0  0  0  0  0  0  0  0  0  0  0  0
  1  2  1  0  0  0  0
  1  3  1  0  0  0  0
  1  4  1  0  0  0  0
  1  5  1  0  0  0  0
  5  6  1  0  0  0  0
  5  7  1  0  0  0  0
  5  8  1  0  0  0  0
  8  9  1  0  0  0  0
  8 10  1  0  0  0  0
  8 11  1  0  0  0  0
 11 12  1  0  0  0  0
 11 13  1  0  0  0  0
 11 14  1  0  0  0  0
 14 15  1  0  0  0  0
 14 16  1  0  0  0  0
 14 17  1  0  0  0  0
 17 18  1  0  0  0  0
 17 19  1  0  0  0  0
 17 20  1  0  0  0  0
 20 21  1  0  0  0  0
 20 22  1  0  0  0  0
 20 23  1  0  0  0  0
M  END
> <VConfSearch Rank>
924

> <Conf_Id>
26

> <Delta U+W>
1.076

> <U+W>
-7.306

> <U>
48.641

> <W>
-55.947

> <W(PB)>
-58.031

> <W(SA)>
2.084

> <Valence>
2.922

> <Coulomb>
45.269

> <VdW>
0.449

> <VdW6>
-7.045

> <VdW12>
7.494

> <Bond>
0.220

> <Angle>
1.205

> <Pdih>
1.497

> <Idih>
0.000

> <Tether>
0.000

$$$$
VeraChem MOL file


 23 22  0  0  0  0  0  0  0  0999 V2000     
   20.9284   19.1328   19.6902 N   0  3  0  0  0  0  0  0  0  0  0  0
   21.1421   20.0766   19.3517 H   0  0  0  0  0  0  0  0  0  0  0  0
   20.6925   18.5678   18.8674 H   0  0  0  0  0  0  0  0  0  0  0  0
   21.7958   18.7478   20.0776 H   0  0  0  0  0  0  0  0  0  0  0  0
   19.8072   19.1386   20.7093 C   0  0  0  0  0  0  0  0  0  0  0  0
   19.6137   18.1032   21.0016 H   0  0  0  0  0  0  0  0  0  0  0  0
   18.9106   19.5325   20.2232 H   0  0  0  0  0  0  0  0  0  0  0  0
   20.1306   19.9791   21.9585 C   0  0  0  0  0  0  0  0  0  0  0  0
   21.0380   19.5927   22.4400 H   0  0  0  0  0  0  0  0  0  0  0  0
   20.3598   21.0077   21.6500 H   0  0  0  0  0  0  0  0  0  0  0  0
   18.9634   20.0107   22.9762 C   0  0  0  0  0  0  0  0  0  0  0  0
   18.1021   20.5112   22.5125 H   0  0  0  0  0  0  0  0  0  0  0  0
   19.2477   20.6414   23.8291 H   0  0  0  0  0  0  0  0  0  0  0  0
   18.5087   18.6177   23.4896 C   0  0  0  0  0  0  0  0  0  0  0  0
   17.6934   18.7596   24.2123 H   0  0  0  0  0  0  0  0  0  0  0  0
   18.0704   18.0481   22.6592 H   0  0  0  0  0  0  0  0  0  0  0  0
   19.6201   17.7640   24.1515 C   0  0  0  0  0  0  0  0  0  0  0  0
   20.3990   17.5189   23.4171 H   0  0  0  0  0  0  0  0  0  0  0  0
   19.1859   16.8031   24.4611 H   0  0  0  0  0  0  0  0  0  0  0  0
   20.2601   18.4407   25.3848 C   0  0  0  0  0  0  0  0  0  0  0  0
   20.8025   19.3529   25.1070 H   0  0  0  0  0  0  0  0  0  0  0  0
   20.9772   17.7634   25.8664 H   0  0  0  0  0  0  0  0  0  0  0  0
   19.4979   18.7068   26.1285 H   0  0  0  0  0  0  0  0  0  0  0  0
  1  2  1  0  0  0  0
  1  3  1  0  0  0  0
  1  4  1  0  0  0  0
  1  5  1  0  0  0  0
  5  6  1  0  0  0  0
  5  7  1  0  0  0  0
  5  8  1  0  0  0  0
  8  9  1  0  0  0  0
  8 10  1  0  0  0  0
  8 11  1  0  0  0  0
 11 12  1  0  0  0  0
 11 13  1  0  0  0  0
 11 14  1  0  0  0  0
 14 15  1  0  0  0  0
 14 16  1  0  0  0  0
 14 17  1  0  0  0  0
 17 18  1  0  0  0  0
 17 19  1  0  0  0  0
 17 20  1  0  0  0  0
 20 21  1  0  0  0  0
 20 22  1  0  0  0  0
 20 23  1  0  0  0  0
M  END
> <VConfSearch Rank>
925

> <Conf_Id>
90

> <Delta U+W>
1.131

> <U+W>
-7.251

> <U>
48.641

> <W>
-55.892

> <W(PB)>
-57.962

> <W(SA)>
2.070

> <Valence>
2.922

> <Coulomb>
45.269

> <VdW>
0.450

> <VdW6>
-7.045

> <VdW12>
7.495

> <Bond>
0.220

> <Angle>
1.205

> <Pdih>
1.497

> <Idih>
0.000

> <Tether>
0.000

$$$$
VeraChem MOL file


 23 22  0  0  0  0  0  0  0  0999 V2000     
   17.8184   20.6779   22.3977 N   0  3  0  0  0  0  0  0  0  0  0  0
   16.9198   20.8333   22.8670 H   0  0  0  0  0  0  0  0  0  0  0  0
   17.8191   19.7102   22.0612 H   0  0  0  0  0  0  0  0  0  0  0  0
   17.8343   21.2863   21.5730 H   0  0  0  0  0  0  0  0  0  0  0  0
   18.9902   20.9496   23.3204 C   0  0  0  0  0  0  0  0  0  0  0  0
   18.8966   20.2933   24.1894 H   0  0  0  0  0  0  0  0  0  0  0  0
   18.9088   21.9836   23.6664 H   0  0  0  0  0  0  0  0  0  0  0  0
   20.3653   20.7398   22.6541 C   0  0  0  0  0  0  0  0  0  0  0  0
   20.4670   21.4369   21.8118 H   0  0  0  0  0  0  0  0  0  0  0  0
   21.1499   21.0120   23.3726 H   0  0  0  0  0  0  0  0  0  0  0  0
   20.6090   19.2935   22.1547 C   0  0  0  0  0  0  0  0  0  0  0  0
   21.6012   19.2479   21.6851 H   0  0  0  0  0  0  0  0  0  0  0  0
   19.8858   19.0520   21.3656 H   0  0  0  0  0  0  0  0  0  0  0  0
   20.5348   18.2396   23.2884 C   0  0  0  0  0  0  0  0  0  0  0  0
   21.2029   18.5448   24.1056 H   0  0  0  0  0  0  0  0  0  0  0  0
   19.5220   18.2089   23.7118 H   0  0  0  0  0  0  0  0  0  0  0  0
   20.9364   16.8167   22.8306 C   0  0  0  0  0  0  0  0  0  0  0  0
   20.9608   16.1572   23.7094 H   0  0  0  0  0  0  0  0  0  0  0  0
   21.9589   16.8299   22.4282 H   0  0  0  0  0  0  0  0  0  0  0  0
   19.9727   16.2148   21.7827 C   0  0  0  0  0  0  0  0  0  0  0  0
   18.9386   16.2145   22.1510 H   0  0  0  0  0  0  0  0  0  0  0  0
   20.2490   15.1762   21.5591 H   0  0  0  0  0  0  0  0  0  0  0  0
   20.0025   16.7737   20.8392 H   0  0  0  0  0  0  0  0  0  0  0  0
  1  2  1  0  0  0  0
  1  3  1  0  0  0  0
  1  4  1  0  0  0  0
  1  5  1  0  0  0  0
  5  6  1  0  0  0  0
  5  7  1  0  0  0  0
  5  8  1  0  0  0  0
  8  9  1  0  0  0  0
  8 10  1  0  0  0  0
  8 11  1  0  0  0  0
 11 12  1  0  0  0  0
 11 13  1  0  0  0  0
 11 14  1  0  0  0  0
 14 15  1  0  0  0  0
 14 16  1  0  0  0  0
 14 17  1  0  0  0  0
 17 18  1  0  0  0  0
 17 19  1  0  0  0  0
 17 20  1  0  0  0  0
 20 21  1  0  0  0  0
 20 22  1  0  0  0  0
 20 23  1  0  0  0  0
M  END
> <VConfSearch Rank>
926

> <Conf_Id>
85

> <Delta U+W>
1.193

> <U+W>
-7.189

> <U>
48.775

> <W>
-55.965

> <W(PB)>
-58.038

> <W(SA)>
2.073

> <Valence>
2.602

> <Coulomb>
45.581

> <VdW>
0.592

> <VdW6>
-6.616

> <VdW12>
7.208

> <Bond>
0.196

> <Angle>
0.832

> <Pdih>
1.574

> <Idih>
0.000

> <Tether>
0.000

$$$$
VeraChem MOL file


 23 22  0  0  0  0  0  0  0  0999 V2000     
   21.6470   19.4134   21.9486 N   0  3  0  0  0  0  0  0  0  0  0  0
   20.6999   19.7015   21.6826 H   0  0  0  0  0  0  0  0  0  0  0  0
   22.1662   19.2277   21.0836 H   0  0  0  0  0  0  0  0  0  0  0  0
   22.0960   20.2170   22.3997 H   0  0  0  0  0  0  0  0  0  0  0  0
   21.6197   18.2016   22.8599 C   0  0  0  0  0  0  0  0  0  0  0  0
   22.6585   17.9583   23.0988 H   0  0  0  0  0  0  0  0  0  0  0  0
   21.1920   17.3592   22.3099 H   0  0  0  0  0  0  0  0  0  0  0  0
   20.8396   18.4211   24.1721 C   0  0  0  0  0  0  0  0  0  0  0  0
   21.2003   17.6843   24.9020 H   0  0  0  0  0  0  0  0  0  0  0  0
   21.0896   19.4044   24.5924 H   0  0  0  0  0  0  0  0  0  0  0  0
   19.2992   18.2631   24.0613 C   0  0  0  0  0  0  0  0  0  0  0  0
   18.8828   18.3894   25.0704 H   0  0  0  0  0  0  0  0  0  0  0  0
   19.0479   17.2346   23.7671 H   0  0  0  0  0  0  0  0  0  0  0  0
   18.5946   19.2747   23.1215 C   0  0  0  0  0  0  0  0  0  0  0  0
   17.6198   19.5351   23.5570 H   0  0  0  0  0  0  0  0  0  0  0  0
   19.1611   20.2146   23.0830 H   0  0  0  0  0  0  0  0  0  0  0  0
   18.3451   18.7143   21.6999 C   0  0  0  0  0  0  0  0  0  0  0  0
   17.6385   17.8745   21.7607 H   0  0  0  0  0  0  0  0  0  0  0  0
   19.2661   18.3031   21.2697 H   0  0  0  0  0  0  0  0  0  0  0  0
   17.7723   19.7911   20.7544 C   0  0  0  0  0  0  0  0  0  0  0  0
   16.8199   20.1829   21.1351 H   0  0  0  0  0  0  0  0  0  0  0  0
   17.5879   19.3722   19.7565 H   0  0  0  0  0  0  0  0  0  0  0  0
   18.4668   20.6337   20.6426 H   0  0  0  0  0  0  0  0  0  0  0  0
  1  2  1  0  0  0  0
  1  3  1  0  0  0  0
  1  4  1  0  0  0  0
  1  5  1  0  0  0  0
  5  6  1  0  0  0  0
  5  7  1  0  0  0  0
  5  8  1  0  0  0  0
  8  9  1  0  0  0  0
  8 10  1  0  0  0  0
  8 11  1  0  0  0  0
 11 12  1  0  0  0  0
 11 13  1  0  0  0  0
 11 14  1  0  0  0  0
 14 15  1  0  0  0  0
 14 16  1  0  0  0  0
 14 17  1  0  0  0  0
 17 18  1  0  0  0  0
 17 19  1  0  0  0  0
 17 20  1  0  0  0  0
 20 21  1  0  0  0  0
 20 22  1  0  0  0  0
 20 23  1  0  0  0  0
M  END
> <VConfSearch Rank>
927

> <Conf_Id>
82

> <Delta U+W>
5.994

> <U+W>
-2.388

> <U>
52.836

> <W>
-55.224

> <W(PB)>
-57.261

> <W(SA)>
2.037

> <Valence>
5.785

> <Coulomb>
46.744

> <VdW>
0.307

> <VdW6>
-7.672

> <VdW12>
7.979

> <Bond>
0.217

> <Angle>
1.470

> <Pdih>
4.098

> <Idih>
0.000

> <Tether>
0.000

$$$$
VeraChem MOL file


 23 22  0  0  0  0  0  0  0  0999 V2000     
   18.2519   20.2162   22.9837 N   0  3  0  0  0  0  0  0  0  0  0  0
   18.4032   20.9794   23.6513 H   0  0  0  0  0  0  0  0  0  0  0  0
   17.3979   20.4410   22.4616 H   0  0  0  0  0  0  0  0  0  0  0  0
   19.0317   20.2322   22.3187 H   0  0  0  0  0  0  0  0  0  0  0  0
   18.1485   18.8735   23.6808 C   0  0  0  0  0  0  0  0  0  0  0  0
   17.9232   18.1074   22.9341 H   0  0  0  0  0  0  0  0  0  0  0  0
   17.3013   18.9355   24.3693 H   0  0  0  0  0  0  0  0  0  0  0  0
   19.4121   18.4786   24.4720 C   0  0  0  0  0  0  0  0  0  0  0  0
   19.7866   19.3468   25.0304 H   0  0  0  0  0  0  0  0  0  0  0  0
   19.1145   17.7421   25.2302 H   0  0  0  0  0  0  0  0  0  0  0  0
   20.5543   17.8532   23.6269 C   0  0  0  0  0  0  0  0  0  0  0  0
   20.2139   16.9113   23.1749 H   0  0  0  0  0  0  0  0  0  0  0  0
   21.3593   17.5719   24.3199 H   0  0  0  0  0  0  0  0  0  0  0  0
   21.1586   18.7792   22.5403 C   0  0  0  0  0  0  0  0  0  0  0  0
   21.0695   19.8303   22.8454 H   0  0  0  0  0  0  0  0  0  0  0  0
   22.2376   18.5814   22.4740 H   0  0  0  0  0  0  0  0  0  0  0  0
   20.5470   18.5513   21.1363 C   0  0  0  0  0  0  0  0  0  0  0  0
   19.4518   18.5928   21.1706 H   0  0  0  0  0  0  0  0  0  0  0  0
   20.8007   17.5391   20.7909 H   0  0  0  0  0  0  0  0  0  0  0  0
   21.0686   19.5817   20.1125 C   0  0  0  0  0  0  0  0  0  0  0  0
   20.8048   20.6054   20.4077 H   0  0  0  0  0  0  0  0  0  0  0  0
   20.6363   19.3954   19.1208 H   0  0  0  0  0  0  0  0  0  0  0  0
   22.1610   19.5250   20.0186 H   0  0  0  0  0  0  0  0  0  0  0  0
  1  2  1  0  0  0  0
  1  3  1  0  0  0  0
  1  4  1  0  0  0  0
  1  5  1  0  0  0  0
  5  6  1  0  0  0  0
  5  7  1  0  0  0  0
  5  8  1  0  0  0  0
  8  9  1  0  0  0  0
  8 10  1  0  0  0  0
  8 11  1  0  0  0  0
 11 12  1  0  0  0  0
 11 13  1  0  0  0  0
 11 14  1  0  0  0  0
 14 15  1  0  0  0  0
 14 16  1  0  0  0  0
 14 17  1  0  0  0  0
 17 18  1  0  0  0  0
 17 19  1  0  0  0  0
 17 20  1  0  0  0  0
 20 21  1  0  0  0  0
 20 22  1  0  0  0  0
 20 23  1  0  0  0  0
M  END
> <VConfSearch Rank>
928

> <Conf_Id>
5

> <Delta U+W>
6.087

> <U+W>
-2.295

> <U>
52.836

> <W>
-55.131

> <W(PB)>
-57.202

> <W(SA)>
2.071

> <Valence>
5.785

> <Coulomb>
46.744

> <VdW>
0.307

> <VdW6>
-7.672

> <VdW12>
7.980

> <Bond>
0.217

> <Angle>
1.470

> <Pdih>
4.098

> <Idih>
0.000

> <Tether>
0.000

$$$$
VeraChem MOL file


 23 22  0  0  0  0  0  0  0  0999 V2000     
   23.1547   17.6290   23.7865 N   0  3  0  0  0  0  0  0  0  0  0  0
   23.7329   18.3578   23.3559 H   0  0  0  0  0  0  0  0  0  0  0  0
   23.7006   16.7610   23.7595 H   0  0  0  0  0  0  0  0  0  0  0  0
   23.0410   17.8786   24.7743 H   0  0  0  0  0  0  0  0  0  0  0  0
   21.8206   17.4769   23.0843 C   0  0  0  0  0  0  0  0  0  0  0  0
   21.2719   16.6678   23.5739 H   0  0  0  0  0  0  0  0  0  0  0  0
   22.0156   17.1828   22.0494 H   0  0  0  0  0  0  0  0  0  0  0  0
   20.9763   18.7634   23.1070 C   0  0  0  0  0  0  0  0  0  0  0  0
   20.7968   19.0638   24.1480 H   0  0  0  0  0  0  0  0  0  0  0  0
   21.5379   19.5771   22.6290 H   0  0  0  0  0  0  0  0  0  0  0  0
   19.6265   18.5668   22.3820 C   0  0  0  0  0  0  0  0  0  0  0  0
   19.0700   17.7484   22.8599 H   0  0  0  0  0  0  0  0  0  0  0  0
   19.8103   18.2612   21.3425 H   0  0  0  0  0  0  0  0  0  0  0  0
   18.7699   19.8532   22.3988 C   0  0  0  0  0  0  0  0  0  0  0  0
   18.5859   20.1588   23.4382 H   0  0  0  0  0  0  0  0  0  0  0  0
   19.3262   20.6716   21.9210 H   0  0  0  0  0  0  0  0  0  0  0  0
   17.4201   19.6563   21.6736 C   0  0  0  0  0  0  0  0  0  0  0  0
   16.8586   18.8401   22.1495 H   0  0  0  0  0  0  0  0  0  0  0  0
   17.5989   19.3528   20.6325 H   0  0  0  0  0  0  0  0  0  0  0  0
   16.5676   20.9429   21.6924 C   0  0  0  0  0  0  0  0  0  0  0  0
   15.6137   20.7835   21.1731 H   0  0  0  0  0  0  0  0  0  0  0  0
   17.0892   21.7695   21.1925 H   0  0  0  0  0  0  0  0  0  0  0  0
   16.3432   21.2527   22.7214 H   0  0  0  0  0  0  0  0  0  0  0  0
  1  2  1  0  0  0  0
  1  3  1  0  0  0  0
  1  4  1  0  0  0  0
  1  5  1  0  0  0  0
  5  6  1  0  0  0  0
  5  7  1  0  0  0  0
  5  8  1  0  0  0  0
  8  9  1  0  0  0  0
  8 10  1  0  0  0  0
  8 11  1  0  0  0  0
 11 12  1  0  0  0  0
 11 13  1  0  0  0  0
 11 14  1  0  0  0  0
 14 15  1  0  0  0  0
 14 16  1  0  0  0  0
 14 17  1  0  0  0  0
 17 18  1  0  0  0  0
 17 19  1  0  0  0  0
 17 20  1  0  0  0  0
 20 21  1  0  0  0  0
 20 22  1  0  0  0  0
 20 23  1  0  0  0  0
M  END
> <VConfSearch Rank>
929

> <Conf_Id>
40

> <Delta U+W>
0.000

> <U+W>
-8.382

> <U>
46.604

> <W>
-54.986

> <W(PB)>
-57.162

> <W(SA)>
2.176

> <Valence>
1.727

> <Coulomb>
44.434

> <VdW>
0.443

> <VdW6>
-4.623

> <VdW12>
5.066

> <Bond>
0.112

> <Angle>
0.386

> <Pdih>
1.228

> <Idih>
0.000

> <Tether>
0.000

$$$$
VeraChem MOL file


 23 22  0  0  0  0  0  0  0  0999 V2000     
   23.0337   20.2764   21.8953 N   0  3  0  0  0  0  0  0  0  0  0  0
   23.4218   20.7489   22.7181 H   0  0  0  0  0  0  0  0  0  0  0  0
   22.7454   21.0066   21.2362 H   0  0  0  0  0  0  0  0  0  0  0  0
   23.8053   19.7645   21.4543 H   0  0  0  0  0  0  0  0  0  0  0  0
   21.8848   19.3583   22.2601 C   0  0  0  0  0  0  0  0  0  0  0  0
   22.2679   18.5915   22.9388 H   0  0  0  0  0  0  0  0  0  0  0  0
   21.5440   18.8685   21.3444 H   0  0  0  0  0  0  0  0  0  0  0  0
   20.7090   20.0984   22.9256 C   0  0  0  0  0  0  0  0  0  0  0  0
   21.0764   20.6242   23.8170 H   0  0  0  0  0  0  0  0  0  0  0  0
   20.3230   20.8680   22.2439 H   0  0  0  0  0  0  0  0  0  0  0  0
   19.5605   19.1492   23.3421 C   0  0  0  0  0  0  0  0  0  0  0  0
   18.8209   19.7321   23.9062 H   0  0  0  0  0  0  0  0  0  0  0  0
   19.9477   18.3863   24.0317 H   0  0  0  0  0  0  0  0  0  0  0  0
   18.8709   18.4628   22.1355 C   0  0  0  0  0  0  0  0  0  0  0  0
   18.4658   19.2261   21.4569 H   0  0  0  0  0  0  0  0  0  0  0  0
   19.6160   17.9001   21.5578 H   0  0  0  0  0  0  0  0  0  0  0  0
   17.7423   17.4857   22.5452 C   0  0  0  0  0  0  0  0  0  0  0  0
   18.1442   16.7135   23.2160 H   0  0  0  0  0  0  0  0  0  0  0  0
   17.3899   16.9589   21.6473 H   0  0  0  0  0  0  0  0  0  0  0  0
   16.5367   18.1822   23.2167 C   0  0  0  0  0  0  0  0  0  0  0  0
   16.8102   18.6184   24.1854 H   0  0  0  0  0  0  0  0  0  0  0  0
   15.7287   17.4615   23.3970 H   0  0  0  0  0  0  0  0  0  0  0  0
   16.1370   18.9815   22.5793 H   0  0  0  0  0  0  0  0  0  0  0  0
  1  2  1  0  0  0  0
  1  3  1  0  0  0  0
  1  4  1  0  0  0  0
  1  5  1  0  0  0  0
  5  6  1  0  0  0  0
  5  7  1  0  0  0  0
  5  8  1  0  0  0  0
  8  9  1  0  0  0  0
  8 10  1  0  0  0  0
  8 11  1  0  0  0  0
 11 12  1  0  0  0  0
 11 13  1  0  0  0  0
 11 14  1  0  0  0  0
 14 15  1  0  0  0  0
 14 16  1  0  0  0  0
 14 17  1  0  0  0  0
 17 18  1  0  0  0  0
 17 19  1  0  0  0  0
 17 20  1  0  0  0  0
 20 21  1  0  0  0  0
 20 22  1  0  0  0  0
 20 23  1  0  0  0  0
M  END
> <VConfSearch Rank>
930

> <Conf_Id>
65

> <Delta U+W>
1.004

> <U+W>
-7.378

> <U>
48.047

> <W>
-55.425

> <W(PB)>
-57.542

> <W(SA)>
2.116

> <Valence>
2.583

> <Coulomb>
44.791

> <VdW>
0.673

> <VdW6>
-5.788

> <VdW12>
6.462

> <Bond>
0.177

> <Angle>
0.787

> <Pdih>
1.619

> <Idih>
0.000

> <Tether>
0.000

$$$$
VeraChem MOL file


 23 22  0  0  0  0  0  0  0  0999 V2000     
   22.1983   21.5251   23.3832 N   0  3  0  0  0  0  0  0  0  0  0  0
   22.3611   22.1268   22.5694 H   0  0  0  0  0  0  0  0  0  0  0  0
   23.1087   21.3792   23.8326 H   0  0  0  0  0  0  0  0  0  0  0  0
   21.6228   22.0590   24.0425 H   0  0  0  0  0  0  0  0  0  0  0  0
   21.5452   20.2141   22.9955 C   0  0  0  0  0  0  0  0  0  0  0  0
   21.4317   19.6155   23.9029 H   0  0  0  0  0  0  0  0  0  0  0  0
   22.2224   19.6871   22.3178 H   0  0  0  0  0  0  0  0  0  0  0  0
   20.1747   20.4001   22.3172 C   0  0  0  0  0  0  0  0  0  0  0  0
   19.4938   20.9283   22.9979 H   0  0  0  0  0  0  0  0  0  0  0  0
   20.2970   21.0422   21.4347 H   0  0  0  0  0  0  0  0  0  0  0  0
   19.5357   19.0615   21.8776 C   0  0  0  0  0  0  0  0  0  0  0  0
   20.2148   18.5400   21.1890 H   0  0  0  0  0  0  0  0  0  0  0  0
   18.6257   19.2868   21.3064 H   0  0  0  0  0  0  0  0  0  0  0  0
   19.1851   18.1346   23.0695 C   0  0  0  0  0  0  0  0  0  0  0  0
   20.0913   17.9297   23.6545 H   0  0  0  0  0  0  0  0  0  0  0  0
   18.4896   18.6490   23.7469 H   0  0  0  0  0  0  0  0  0  0  0  0
   18.5756   16.7789   22.6368 C   0  0  0  0  0  0  0  0  0  0  0  0
   18.4674   16.1421   23.5260 H   0  0  0  0  0  0  0  0  0  0  0  0
   19.2719   16.2549   21.9671 H   0  0  0  0  0  0  0  0  0  0  0  0
   17.1964   16.9130   21.9520 C   0  0  0  0  0  0  0  0  0  0  0  0
   17.2718   17.4352   20.9903 H   0  0  0  0  0  0  0  0  0  0  0  0
   16.4910   17.4629   22.5884 H   0  0  0  0  0  0  0  0  0  0  0  0
   16.7677   15.9218   21.7552 H   0  0  0  0  0  0  0  0  0  0  0  0
  1  2  1  0  0  0  0
  1  3  1  0  0  0  0
  1  4  1  0  0  0  0
  1  5  1  0  0  0  0
  5  6  1  0  0  0  0
  5  7  1  0  0  0  0
  5  8  1  0  0  0  0
  8  9  1  0  0  0  0
  8 10  1  0  0  0  0
  8 11  1  0  0  0  0
 11 12  1  0  0  0  0
 11 13  1  0  0  0  0
 11 14  1  0  0  0  0
 14 15  1  0  0  0  0
 14 16  1  0  0  0  0
 14 17  1  0  0  0  0
 17 18  1  0  0  0  0
 17 19  1  0  0  0  0
 17 20  1  0  0  0  0
 20 21  1  0  0  0  0
 20 22  1  0  0  0  0
 20 23  1  0  0  0  0
M  END
> <VConfSearch Rank>
931

> <Conf_Id>
92

> <Delta U+W>
0.973

> <U+W>
-7.409

> <U>
48.047

> <W>
-55.456

> <W(PB)>
-57.595

> <W(SA)>
2.138

> <Valence>
2.583

> <Coulomb>
44.791

> <VdW>
0.674

> <VdW6>
-5.789

> <VdW12>
6.462

> <Bond>
0.177

> <Angle>
0.787

> <Pdih>
1.619

> <Idih>
0.000

> <Tether>
0.000

$$$$
VeraChem MOL file


 23 22  0  0  0  0  0  0  0  0999 V2000     
   20.1622   21.1327   25.3653 N   0  3  0  0  0  0  0  0  0  0  0  0
   19.3638   21.4168   25.9432 H   0  0  0  0  0  0  0  0  0  0  0  0
   20.7271   21.9729   25.2045 H   0  0  0  0  0  0  0  0  0  0  0  0
   20.7279   20.4932   25.9326 H   0  0  0  0  0  0  0  0  0  0  0  0
   19.7175   20.4932   24.0657 C   0  0  0  0  0  0  0  0  0  0  0  0
   19.0986   21.2165   23.5280 H   0  0  0  0  0  0  0  0  0  0  0  0
   19.0984   19.6270   24.3131 H   0  0  0  0  0  0  0  0  0  0  0  0
   20.8953   20.0553   23.1746 C   0  0  0  0  0  0  0  0  0  0  0  0
   21.5333   20.9255   22.9704 H   0  0  0  0  0  0  0  0  0  0  0  0
   21.5173   19.3295   23.7151 H   0  0  0  0  0  0  0  0  0  0  0  0
   20.4335   19.4451   21.8302 C   0  0  0  0  0  0  0  0  0  0  0  0
   21.3194   19.2436   21.2122 H   0  0  0  0  0  0  0  0  0  0  0  0
   19.8327   20.1828   21.2802 H   0  0  0  0  0  0  0  0  0  0  0  0
   19.6249   18.1366   22.0022 C   0  0  0  0  0  0  0  0  0  0  0  0
   20.2157   17.4132   22.5809 H   0  0  0  0  0  0  0  0  0  0  0  0
   18.7102   18.3331   22.5772 H   0  0  0  0  0  0  0  0  0  0  0  0
   19.2428   17.5153   20.6403 C   0  0  0  0  0  0  0  0  0  0  0  0
   20.1519   17.3064   20.0590 H   0  0  0  0  0  0  0  0  0  0  0  0
   18.6520   18.2353   20.0567 H   0  0  0  0  0  0  0  0  0  0  0  0
   18.4353   16.2112   20.8129 C   0  0  0  0  0  0  0  0  0  0  0  0
   19.0138   15.4587   21.3646 H   0  0  0  0  0  0  0  0  0  0  0  0
   18.1738   15.7849   19.8357 H   0  0  0  0  0  0  0  0  0  0  0  0
   17.5019   16.3943   21.3611 H   0  0  0  0  0  0  0  0  0  0  0  0
  1  2  1  0  0  0  0
  1  3  1  0  0  0  0
  1  4  1  0  0  0  0
  1  5  1  0  0  0  0
  5  6  1  0  0  0  0
  5  7  1  0  0  0  0
  5  8  1  0  0  0  0
  8  9  1  0  0  0  0
  8 10  1  0  0  0  0
  8 11  1  0  0  0  0
 11 12  1  0  0  0  0
 11 13  1  0  0  0  0
 11 14  1  0  0  0  0
 14 15  1  0  0  0  0
 14 16  1  0  0  0  0
 14 17  1  0  0  0  0
 17 18  1  0  0  0  0
 17 19  1  0  0  0  0
 17 20  1  0  0  0  0
 20 21  1  0  0  0  0
 20 22  1  0  0  0  0
 20 23  1  0  0  0  0
M  END
> <VConfSearch Rank>
932

> <Conf_Id>
42

> <Delta U+W>
0.365

> <U+W>
-8.017

> <U>
47.375

> <W>
-55.392

> <W(PB)>
-57.543

> <W(SA)>
2.152

> <Valence>
2.032

> <Coulomb>
44.843

> <VdW>
0.499

> <VdW6>
-5.218

> <VdW12>
5.717

> <Bond>
0.135

> <Angle>
0.514

> <Pdih>
1.383

> <Idih>
0.000

> <Tether>
0.000

$$$$
VeraChem MOL file


 23 22  0  0  0  0  0  0  0  0999 V2000     
   18.0212   21.4704   21.6644 N   0  3  0  0  0  0  0  0  0  0  0  0
   17.6175   20.9593   20.8730 H   0  0  0  0  0  0  0  0  0  0  0  0
   17.8555   22.4677   21.4919 H   0  0  0  0  0  0  0  0  0  0  0  0
   17.4798   21.2170   22.4964 H   0  0  0  0  0  0  0  0  0  0  0  0
   19.4968   21.1671   21.8378 C   0  0  0  0  0  0  0  0  0  0  0  0
   19.8693   21.7587   22.6784 H   0  0  0  0  0  0  0  0  0  0  0  0
   20.0109   21.5012   20.9324 H   0  0  0  0  0  0  0  0  0  0  0  0
   19.8032   19.6756   22.0764 C   0  0  0  0  0  0  0  0  0  0  0  0
   19.4038   19.0808   21.2443 H   0  0  0  0  0  0  0  0  0  0  0  0
   20.8929   19.5515   22.0649 H   0  0  0  0  0  0  0  0  0  0  0  0
   19.2403   19.1568   23.4221 C   0  0  0  0  0  0  0  0  0  0  0  0
   18.1659   19.3755   23.4773 H   0  0  0  0  0  0  0  0  0  0  0  0
   19.7074   19.7095   24.2490 H   0  0  0  0  0  0  0  0  0  0  0  0
   19.4287   17.6344   23.6495 C   0  0  0  0  0  0  0  0  0  0  0  0
   18.9536   17.3827   24.6078 H   0  0  0  0  0  0  0  0  0  0  0  0
   18.8752   17.0675   22.8882 H   0  0  0  0  0  0  0  0  0  0  0  0
   20.9040   17.1601   23.7042 C   0  0  0  0  0  0  0  0  0  0  0  0
   20.9848   16.3523   24.4451 H   0  0  0  0  0  0  0  0  0  0  0  0
   21.5526   17.9690   24.0684 H   0  0  0  0  0  0  0  0  0  0  0  0
   21.4254   16.6194   22.3521 C   0  0  0  0  0  0  0  0  0  0  0  0
   20.8284   15.7612   22.0174 H   0  0  0  0  0  0  0  0  0  0  0  0
   22.4658   16.2831   22.4486 H   0  0  0  0  0  0  0  0  0  0  0  0
   21.3940   17.3792   21.5635 H   0  0  0  0  0  0  0  0  0  0  0  0
  1  2  1  0  0  0  0
  1  3  1  0  0  0  0
  1  4  1  0  0  0  0
  1  5  1  0  0  0  0
  5  6  1  0  0  0  0
  5  7  1  0  0  0  0
  5  8  1  0  0  0  0
  8  9  1  0  0  0  0
  8 10  1  0  0  0  0
  8 11  1  0  0  0  0
 11 12  1  0  0  0  0
 11 13  1  0  0  0  0
 11 14  1  0  0  0  0
 14 15  1  0  0  0  0
 14 16  1  0  0  0  0
 14 17  1  0  0  0  0
 17 18  1  0  0  0  0
 17 19  1  0  0  0  0
 17 20  1  0  0  0  0
 20 21  1  0  0  0  0
 20 22  1  0  0  0  0
 20 23  1  0  0  0  0
M  END
> <VConfSearch Rank>
933

> <Conf_Id>
3

> <Delta U+W>
3.283

> <U+W>
-5.099

> <U>
50.701

> <W>
-55.800

> <W(PB)>
-57.867

> <W(SA)>
2.067

> <Valence>
4.880

> <Coulomb>
45.095

> <VdW>
0.726

> <VdW6>
-6.620

> <VdW12>
7.346

> <Bond>
0.222

> <Angle>
1.260

> <Pdih>
3.398

> <Idih>
0.000

> <Tether>
0.000

$$$$
VeraChem MOL file


 23 22  0  0  0  0  0  0  0  0999 V2000     
   20.9198   16.4086   22.9625 N   0  3  0  0  0  0  0  0  0  0  0  0
   20.4392   15.6801   22.4251 H   0  0  0  0  0  0  0  0  0  0  0  0
   21.6999   15.9552   23.4501 H   0  0  0  0  0  0  0  0  0  0  0  0
   21.3266   17.0643   22.2886 H   0  0  0  0  0  0  0  0  0  0  0  0
   19.9823   17.1077   23.9273 C   0  0  0  0  0  0  0  0  0  0  0  0
   20.5611   17.8465   24.4873 H   0  0  0  0  0  0  0  0  0  0  0  0
   19.6145   16.3595   24.6347 H   0  0  0  0  0  0  0  0  0  0  0  0
   18.7839   17.7937   23.2400 C   0  0  0  0  0  0  0  0  0  0  0  0
   18.1833   17.0324   22.7246 H   0  0  0  0  0  0  0  0  0  0  0  0
   18.1333   18.2238   24.0131 H   0  0  0  0  0  0  0  0  0  0  0  0
   19.1792   18.9017   22.2312 C   0  0  0  0  0  0  0  0  0  0  0  0
   18.2593   19.2897   21.7750 H   0  0  0  0  0  0  0  0  0  0  0  0
   19.7676   18.4686   21.4115 H   0  0  0  0  0  0  0  0  0  0  0  0
   19.9658   20.0675   22.8828 C   0  0  0  0  0  0  0  0  0  0  0  0
   19.3641   20.5176   23.6845 H   0  0  0  0  0  0  0  0  0  0  0  0
   20.8739   19.6770   23.3604 H   0  0  0  0  0  0  0  0  0  0  0  0
   20.3870   21.1651   21.8757 C   0  0  0  0  0  0  0  0  0  0  0  0
   20.9985   20.7226   21.0770 H   0  0  0  0  0  0  0  0  0  0  0  0
   21.0342   21.8873   22.3931 H   0  0  0  0  0  0  0  0  0  0  0  0
   19.1923   21.9251   21.2558 C   0  0  0  0  0  0  0  0  0  0  0  0
   18.5465   22.3493   22.0356 H   0  0  0  0  0  0  0  0  0  0  0  0
   18.5820   21.2704   20.6217 H   0  0  0  0  0  0  0  0  0  0  0  0
   19.5478   22.7526   20.6282 H   0  0  0  0  0  0  0  0  0  0  0  0
  1  2  1  0  0  0  0
  1  3  1  0  0  0  0
  1  4  1  0  0  0  0
  1  5  1  0  0  0  0
  5  6  1  0  0  0  0
  5  7  1  0  0  0  0
  5  8  1  0  0  0  0
  8  9  1  0  0  0  0
  8 10  1  0  0  0  0
  8 11  1  0  0  0  0
 11 12  1  0  0  0  0
 11 13  1  0  0  0  0
 11 14  1  0  0  0  0
 14 15  1  0  0  0  0
 14 16  1  0  0  0  0
 14 17  1  0  0  0  0
 17 18  1  0  0  0  0
 17 19  1  0  0  0  0
 17 20  1  0  0  0  0
 20 21  1  0  0  0  0
 20 22  1  0  0  0  0
 20 23  1  0  0  0  0
M  END
> <VConfSearch Rank>
934

> <Conf_Id>
83

> <Delta U+W>
1.229

> <U+W>
-7.154

> <U>
48.727

> <W>
-55.880

> <W(PB)>
-57.960

> <W(SA)>
2.080

> <Valence>
2.671

> <Coulomb>
45.371

> <VdW>
0.684

> <VdW6>
-6.511

> <VdW12>
7.195

> <Bond>
0.203

> <Angle>
0.915

> <Pdih>
1.554

> <Idih>
0.000

> <Tether>
0.000

$$$$
VeraChem MOL file


 23 22  0  0  0  0  0  0  0  0999 V2000     
   17.6291   20.9115   21.8298 N   0  3  0  0  0  0  0  0  0  0  0  0
   17.9044   21.8926   21.9399 H   0  0  0  0  0  0  0  0  0  0  0  0
   17.6487   20.4846   22.7609 H   0  0  0  0  0  0  0  0  0  0  0  0
   16.6523   20.9079   21.5172 H   0  0  0  0  0  0  0  0  0  0  0  0
   18.5340   20.1784   20.8592 C   0  0  0  0  0  0  0  0  0  0  0  0
   18.4377   20.6631   19.8838 H   0  0  0  0  0  0  0  0  0  0  0  0
   18.1693   19.1525   20.7642 H   0  0  0  0  0  0  0  0  0  0  0  0
   20.0178   20.1692   21.2808 C   0  0  0  0  0  0  0  0  0  0  0  0
   20.6032   19.6685   20.4983 H   0  0  0  0  0  0  0  0  0  0  0  0
   20.3844   21.2034   21.3218 H   0  0  0  0  0  0  0  0  0  0  0  0
   20.2871   19.4774   22.6411 C   0  0  0  0  0  0  0  0  0  0  0  0
   19.7665   20.0158   23.4441 H   0  0  0  0  0  0  0  0  0  0  0  0
   21.3592   19.5645   22.8601 H   0  0  0  0  0  0  0  0  0  0  0  0
   19.8747   17.9834   22.6580 C   0  0  0  0  0  0  0  0  0  0  0  0
   18.8078   17.8935   22.4151 H   0  0  0  0  0  0  0  0  0  0  0  0
   20.4174   17.4406   21.8719 H   0  0  0  0  0  0  0  0  0  0  0  0
   20.1163   17.2931   24.0224 C   0  0  0  0  0  0  0  0  0  0  0  0
   19.6923   16.2798   23.9837 H   0  0  0  0  0  0  0  0  0  0  0  0
   19.5670   17.8255   24.8113 H   0  0  0  0  0  0  0  0  0  0  0  0
   21.6101   17.1913   24.4065 C   0  0  0  0  0  0  0  0  0  0  0  0
   22.1876   16.6916   23.6179 H   0  0  0  0  0  0  0  0  0  0  0  0
   21.7302   16.6096   25.3296 H   0  0  0  0  0  0  0  0  0  0  0  0
   22.0506   18.1804   24.5817 H   0  0  0  0  0  0  0  0  0  0  0  0
  1  2  1  0  0  0  0
  1  3  1  0  0  0  0
  1  4  1  0  0  0  0
  1  5  1  0  0  0  0
  5  6  1  0  0  0  0
  5  7  1  0  0  0  0
  5  8  1  0  0  0  0
  8  9  1  0  0  0  0
  8 10  1  0  0  0  0
  8 11  1  0  0  0  0
 11 12  1  0  0  0  0
 11 13  1  0  0  0  0
 11 14  1  0  0  0  0
 14 15  1  0  0  0  0
 14 16  1  0  0  0  0
 14 17  1  0  0  0  0
 17 18  1  0  0  0  0
 17 19  1  0  0  0  0
 17 20  1  0  0  0  0
 20 21  1  0  0  0  0
 20 22  1  0  0  0  0
 20 23  1  0  0  0  0
M  END
> <VConfSearch Rank>
935

> <Conf_Id>
50

> <Delta U+W>
1.252

> <U+W>
-7.130

> <U>
48.727

> <W>
-55.857

> <W(PB)>
-57.937

> <W(SA)>
2.080

> <Valence>
2.671

> <Coulomb>
45.371

> <VdW>
0.684

> <VdW6>
-6.511

> <VdW12>
7.196

> <Bond>
0.203

> <Angle>
0.915

> <Pdih>
1.554

> <Idih>
0.000

> <Tether>
0.000

$$$$
VeraChem MOL file


 23 22  0  0  0  0  0  0  0  0999 V2000     
   22.2833   18.7489   24.5877 N   0  3  0  0  0  0  0  0  0  0  0  0
   22.1426   19.7633   24.5616 H   0  0  0  0  0  0  0  0  0  0  0  0
   23.2928   18.5886   24.6724 H   0  0  0  0  0  0  0  0  0  0  0  0
   21.8528   18.4052   25.4521 H   0  0  0  0  0  0  0  0  0  0  0  0
   21.7064   18.0688   23.3614 C   0  0  0  0  0  0  0  0  0  0  0  0
   21.9292   17.0012   23.4390 H   0  0  0  0  0  0  0  0  0  0  0  0
   22.2228   18.4612   22.4812 H   0  0  0  0  0  0  0  0  0  0  0  0
   20.1862   18.2625   23.1995 C   0  0  0  0  0  0  0  0  0  0  0  0
   19.8504   17.6487   22.3562 H   0  0  0  0  0  0  0  0  0  0  0  0
   19.6725   17.8718   24.0879 H   0  0  0  0  0  0  0  0  0  0  0  0
   19.7938   19.7451   22.9739 C   0  0  0  0  0  0  0  0  0  0  0  0
   20.3743   20.1725   22.1447 H   0  0  0  0  0  0  0  0  0  0  0  0
   20.0715   20.3191   23.8680 H   0  0  0  0  0  0  0  0  0  0  0  0
   18.2770   19.9484   22.7209 C   0  0  0  0  0  0  0  0  0  0  0  0
   17.6967   19.1678   23.2320 H   0  0  0  0  0  0  0  0  0  0  0  0
   17.9756   20.8953   23.1900 H   0  0  0  0  0  0  0  0  0  0  0  0
   17.8731   20.0205   21.2260 C   0  0  0  0  0  0  0  0  0  0  0  0
   18.3822   20.8688   20.7475 H   0  0  0  0  0  0  0  0  0  0  0  0
   16.7976   20.2385   21.1657 H   0  0  0  0  0  0  0  0  0  0  0  0
   18.1624   18.7320   20.4252 C   0  0  0  0  0  0  0  0  0  0  0  0
   17.7152   17.8549   20.9106 H   0  0  0  0  0  0  0  0  0  0  0  0
   19.2409   18.5621   20.3193 H   0  0  0  0  0  0  0  0  0  0  0  0
   17.7420   18.8066   19.4140 H   0  0  0  0  0  0  0  0  0  0  0  0
  1  2  1  0  0  0  0
  1  3  1  0  0  0  0
  1  4  1  0  0  0  0
  1  5  1  0  0  0  0
  5  6  1  0  0  0  0
  5  7  1  0  0  0  0
  5  8  1  0  0  0  0
  8  9  1  0  0  0  0
  8 10  1  0  0  0  0
  8 11  1  0  0  0  0
 11 12  1  0  0  0  0
 11 13  1  0  0  0  0
 11 14  1  0  0  0  0
 14 15  1  0  0  0  0
 14 16  1  0  0  0  0
 14 17  1  0  0  0  0
 17 18  1  0  0  0  0
 17 19  1  0  0  0  0
 17 20  1  0  0  0  0
 20 21  1  0  0  0  0
 20 22  1  0  0  0  0
 20 23  1  0  0  0  0
M  END
> <VConfSearch Rank>
936

> <Conf_Id>
55

> <Delta U+W>
3.232

> <U+W>
-5.150

> <U>
50.625

> <W>
-55.776

> <W(PB)>
-57.839

> <W(SA)>
2.064

> <Valence>
4.837

> <Coulomb>
45.097

> <VdW>
0.692

> <VdW6>
-6.655

> <VdW12>
7.347

> <Bond>
0.223

> <Angle>
1.167

> <Pdih>
3.447

> <Idih>
0.000

> <Tether>
0.000

$$$$
VeraChem MOL file


 23 22  0  0  0  0  0  0  0  0999 V2000     
   18.7918   16.1488   23.2831 N   0  3  0  0  0  0  0  0  0  0  0  0
   19.0515   15.3265   22.7288 H   0  0  0  0  0  0  0  0  0  0  0  0
   17.8242   16.0060   23.5919 H   0  0  0  0  0  0  0  0  0  0  0  0
   19.3773   16.1421   24.1245 H   0  0  0  0  0  0  0  0  0  0  0  0
   18.9479   17.4335   22.4953 C   0  0  0  0  0  0  0  0  0  0  0  0
   18.6207   18.2571   23.1325 H   0  0  0  0  0  0  0  0  0  0  0  0
   18.2772   17.3826   21.6333 H   0  0  0  0  0  0  0  0  0  0  0  0
   20.3918   17.6718   22.0115 C   0  0  0  0  0  0  0  0  0  0  0  0
   21.0842   17.6790   22.8637 H   0  0  0  0  0  0  0  0  0  0  0  0
   20.6844   16.8211   21.3816 H   0  0  0  0  0  0  0  0  0  0  0  0
   20.5495   18.9736   21.1856 C   0  0  0  0  0  0  0  0  0  0  0  0
   19.6642   19.1277   20.5532 H   0  0  0  0  0  0  0  0  0  0  0  0
   21.3902   18.8376   20.4912 H   0  0  0  0  0  0  0  0  0  0  0  0
   20.8360   20.2482   22.0215 C   0  0  0  0  0  0  0  0  0  0  0  0
   21.7799   20.1219   22.5696 H   0  0  0  0  0  0  0  0  0  0  0  0
   20.9975   21.0835   21.3260 H   0  0  0  0  0  0  0  0  0  0  0  0
   19.7146   20.6332   23.0139 C   0  0  0  0  0  0  0  0  0  0  0  0
   19.6455   19.8808   23.8102 H   0  0  0  0  0  0  0  0  0  0  0  0
   18.7459   20.6499   22.4954 H   0  0  0  0  0  0  0  0  0  0  0  0
   19.9738   22.0114   23.6589 C   0  0  0  0  0  0  0  0  0  0  0  0
   20.0115   22.8029   22.8991 H   0  0  0  0  0  0  0  0  0  0  0  0
   20.9251   22.0179   24.2069 H   0  0  0  0  0  0  0  0  0  0  0  0
   19.1748   22.2639   24.3680 H   0  0  0  0  0  0  0  0  0  0  0  0
  1  2  1  0  0  0  0
  1  3  1  0  0  0  0
  1  4  1  0  0  0  0
  1  5  1  0  0  0  0
  5  6  1  0  0  0  0
  5  7  1  0  0  0  0
  5  8  1  0  0  0  0
  8  9  1  0  0  0  0
  8 10  1  0  0  0  0
  8 11  1  0  0  0  0
 11 12  1  0  0  0  0
 11 13  1  0  0  0  0
 11 14  1  0  0  0  0
 14 15  1  0  0  0  0
 14 16  1  0  0  0  0
 14 17  1  0  0  0  0
 17 18  1  0  0  0  0
 17 19  1  0  0  0  0
 17 20  1  0  0  0  0
 20 21  1  0  0  0  0
 20 22  1  0  0  0  0
 20 23  1  0  0  0  0
M  END
> <VConfSearch Rank>
937

> <Conf_Id>
93

> <Delta U+W>
2.589

> <U+W>
-5.793

> <U>
50.122

> <W>
-55.915

> <W(PB)>
-58.031

> <W(SA)>
2.115

> <Valence>
4.132

> <Coulomb>
45.536

> <VdW>
0.454

> <VdW6>
-6.262

> <VdW12>
6.715

> <Bond>
0.182

> <Angle>
1.157

> <Pdih>
2.794

> <Idih>
0.000

> <Tether>
0.000

$$$$
VeraChem MOL file


 23 22  0  0  0  0  0  0  0  0999 V2000     
   18.9661   16.8735   20.3805 N   0  3  0  0  0  0  0  0  0  0  0  0
   18.1539   16.5858   20.9358 H   0  0  0  0  0  0  0  0  0  0  0  0
   19.5413   16.0364   20.2375 H   0  0  0  0  0  0  0  0  0  0  0  0
   18.6165   17.1552   19.4590 H   0  0  0  0  0  0  0  0  0  0  0  0
   19.7462   17.9848   21.0529 C   0  0  0  0  0  0  0  0  0  0  0  0
   20.6084   18.2189   20.4227 H   0  0  0  0  0  0  0  0  0  0  0  0
   20.1156   17.6031   22.0064 H   0  0  0  0  0  0  0  0  0  0  0  0
   18.9087   19.2597   21.2748 C   0  0  0  0  0  0  0  0  0  0  0  0
   18.5515   19.6067   20.2960 H   0  0  0  0  0  0  0  0  0  0  0  0
   18.0135   19.0305   21.8680 H   0  0  0  0  0  0  0  0  0  0  0  0
   19.7108   20.4060   21.9412 C   0  0  0  0  0  0  0  0  0  0  0  0
   19.2686   21.3609   21.6248 H   0  0  0  0  0  0  0  0  0  0  0  0
   20.7414   20.4154   21.5600 H   0  0  0  0  0  0  0  0  0  0  0  0
   19.7163   20.3851   23.4920 C   0  0  0  0  0  0  0  0  0  0  0  0
   20.2512   21.2783   23.8436 H   0  0  0  0  0  0  0  0  0  0  0  0
   18.6865   20.4817   23.8629 H   0  0  0  0  0  0  0  0  0  0  0  0
   20.3707   19.1316   24.1171 C   0  0  0  0  0  0  0  0  0  0  0  0
   21.3586   18.9614   23.6666 H   0  0  0  0  0  0  0  0  0  0  0  0
   19.7587   18.2453   23.9054 H   0  0  0  0  0  0  0  0  0  0  0  0
   20.5231   19.2718   25.6468 C   0  0  0  0  0  0  0  0  0  0  0  0
   20.9787   18.3697   26.0752 H   0  0  0  0  0  0  0  0  0  0  0  0
   19.5475   19.4178   26.1286 H   0  0  0  0  0  0  0  0  0  0  0  0
   21.1628   20.1261   25.9039 H   0  0  0  0  0  0  0  0  0  0  0  0
  1  2  1  0  0  0  0
  1  3  1  0  0  0  0
  1  4  1  0  0  0  0
  1  5  1  0  0  0  0
  5  6  1  0  0  0  0
  5  7  1  0  0  0  0
  5  8  1  0  0  0  0
  8  9  1  0  0  0  0
  8 10  1  0  0  0  0
  8 11  1  0  0  0  0
 11 12  1  0  0  0  0
 11 13  1  0  0  0  0
 11 14  1  0  0  0  0
 14 15  1  0  0  0  0
 14 16  1  0  0  0  0
 14 17  1  0  0  0  0
 17 18  1  0  0  0  0
 17 19  1  0  0  0  0
 17 20  1  0  0  0  0
 20 21  1  0  0  0  0
 20 22  1  0  0  0  0
 20 23  1  0  0  0  0
M  END
> <VConfSearch Rank>
938

> <Conf_Id>
70

> <Delta U+W>
2.599

> <U+W>
-5.783

> <U>
50.122

> <W>
-55.906

> <W(PB)>
-58.010

> <W(SA)>
2.105

> <Valence>
4.132

> <Coulomb>
45.536

> <VdW>
0.454

> <VdW6>
-6.262

> <VdW12>
6.715

> <Bond>
0.182

> <Angle>
1.157

> <Pdih>
2.794

> <Idih>
0.000

> <Tether>
0.000

$$$$
VeraChem MOL file


 23 22  0  0  0  0  0  0  0  0999 V2000     
   20.1761   16.4192   23.7550 N   0  3  0  0  0  0  0  0  0  0  0  0
   20.7616   15.6774   23.3580 H   0  0  0  0  0  0  0  0  0  0  0  0
   19.6147   15.9914   24.4990 H   0  0  0  0  0  0  0  0  0  0  0  0
   20.8040   17.0942   24.2015 H   0  0  0  0  0  0  0  0  0  0  0  0
   19.3077   17.0759   22.7001 C   0  0  0  0  0  0  0  0  0  0  0  0
   18.6874   17.8298   23.1918 H   0  0  0  0  0  0  0  0  0  0  0  0
   18.6468   16.3087   22.2877 H   0  0  0  0  0  0  0  0  0  0  0  0
   20.1111   17.7283   21.5569 C   0  0  0  0  0  0  0  0  0  0  0  0
   20.7035   16.9562   21.0484 H   0  0  0  0  0  0  0  0  0  0  0  0
   19.4097   18.1105   20.8043 H   0  0  0  0  0  0  0  0  0  0  0  0
   21.0531   18.8706   22.0206 C   0  0  0  0  0  0  0  0  0  0  0  0
   21.5499   19.2992   21.1393 H   0  0  0  0  0  0  0  0  0  0  0  0
   21.8574   18.4484   22.6380 H   0  0  0  0  0  0  0  0  0  0  0  0
   20.3589   20.0084   22.8131 C   0  0  0  0  0  0  0  0  0  0  0  0
   19.9365   19.6141   23.7470 H   0  0  0  0  0  0  0  0  0  0  0  0
   21.1236   20.7386   23.1119 H   0  0  0  0  0  0  0  0  0  0  0  0
   19.2558   20.7371   22.0099 C   0  0  0  0  0  0  0  0  0  0  0  0
   18.4448   20.0397   21.7613 H   0  0  0  0  0  0  0  0  0  0  0  0
   19.6681   21.0991   21.0577 H   0  0  0  0  0  0  0  0  0  0  0  0
   18.6689   21.9267   22.7989 C   0  0  0  0  0  0  0  0  0  0  0  0
   17.8868   22.4303   22.2161 H   0  0  0  0  0  0  0  0  0  0  0  0
   19.4447   22.6677   23.0319 H   0  0  0  0  0  0  0  0  0  0  0  0
   18.2216   21.5912   23.7437 H   0  0  0  0  0  0  0  0  0  0  0  0
  1  2  1  0  0  0  0
  1  3  1  0  0  0  0
  1  4  1  0  0  0  0
  1  5  1  0  0  0  0
  5  6  1  0  0  0  0
  5  7  1  0  0  0  0
  5  8  1  0  0  0  0
  8  9  1  0  0  0  0
  8 10  1  0  0  0  0
  8 11  1  0  0  0  0
 11 12  1  0  0  0  0
 11 13  1  0  0  0  0
 11 14  1  0  0  0  0
 14 15  1  0  0  0  0
 14 16  1  0  0  0  0
 14 17  1  0  0  0  0
 17 18  1  0  0  0  0
 17 19  1  0  0  0  0
 17 20  1  0  0  0  0
 20 21  1  0  0  0  0
 20 22  1  0  0  0  0
 20 23  1  0  0  0  0
M  END
> <VConfSearch Rank>
939

> <Conf_Id>
72

> <Delta U+W>
1.051

> <U+W>
-7.331

> <U>
48.590

> <W>
-55.922

> <W(PB)>
-58.012

> <W(SA)>
2.090

> <Valence>
2.601

> <Coulomb>
45.520

> <VdW>
0.469

> <VdW6>
-6.867

> <VdW12>
7.336

> <Bond>
0.205

> <Angle>
0.962

> <Pdih>
1.434

> <Idih>
0.000

> <Tether>
0.000

$$$$
VeraChem MOL file


 23 22  0  0  0  0  0  0  0  0999 V2000     
   17.5666   18.2896   20.4701 N   0  3  0  0  0  0  0  0  0  0  0  0
   17.2882   17.3848   20.0755 H   0  0  0  0  0  0  0  0  0  0  0  0
   17.4599   18.9850   19.7246 H   0  0  0  0  0  0  0  0  0  0  0  0
   16.8827   18.5205   21.1980 H   0  0  0  0  0  0  0  0  0  0  0  0
   18.9808   18.2558   21.0129 C   0  0  0  0  0  0  0  0  0  0  0  0
   19.6502   17.9768   20.1947 H   0  0  0  0  0  0  0  0  0  0  0  0
   19.0285   17.4763   21.7778 H   0  0  0  0  0  0  0  0  0  0  0  0
   19.4297   19.6009   21.6136 C   0  0  0  0  0  0  0  0  0  0  0  0
   19.3423   20.3832   20.8480 H   0  0  0  0  0  0  0  0  0  0  0  0
   18.7507   19.8884   22.4264 H   0  0  0  0  0  0  0  0  0  0  0  0
   20.8897   19.5674   22.1297 C   0  0  0  0  0  0  0  0  0  0  0  0
   21.1542   20.5580   22.5230 H   0  0  0  0  0  0  0  0  0  0  0  0
   21.5631   19.3979   21.2782 H   0  0  0  0  0  0  0  0  0  0  0  0
   21.1747   18.4878   23.2085 C   0  0  0  0  0  0  0  0  0  0  0  0
   21.0688   17.4896   22.7627 H   0  0  0  0  0  0  0  0  0  0  0  0
   22.2280   18.5647   23.5116 H   0  0  0  0  0  0  0  0  0  0  0  0
   20.2835   18.5686   24.4740 C   0  0  0  0  0  0  0  0  0  0  0  0
   20.5665   17.7532   25.1542 H   0  0  0  0  0  0  0  0  0  0  0  0
   19.2326   18.3890   24.2106 H   0  0  0  0  0  0  0  0  0  0  0  0
   20.4104   19.9117   25.2281 C   0  0  0  0  0  0  0  0  0  0  0  0
   21.4557   20.1190   25.4912 H   0  0  0  0  0  0  0  0  0  0  0  0
   19.8285   19.8869   26.1585 H   0  0  0  0  0  0  0  0  0  0  0  0
   20.0351   20.7483   24.6258 H   0  0  0  0  0  0  0  0  0  0  0  0
  1  2  1  0  0  0  0
  1  3  1  0  0  0  0
  1  4  1  0  0  0  0
  1  5  1  0  0  0  0
  5  6  1  0  0  0  0
  5  7  1  0  0  0  0
  5  8  1  0  0  0  0
  8  9  1  0  0  0  0
  8 10  1  0  0  0  0
  8 11  1  0  0  0  0
 11 12  1  0  0  0  0
 11 13  1  0  0  0  0
 11 14  1  0  0  0  0
 14 15  1  0  0  0  0
 14 16  1  0  0  0  0
 14 17  1  0  0  0  0
 17 18  1  0  0  0  0
 17 19  1  0  0  0  0
 17 20  1  0  0  0  0
 20 21  1  0  0  0  0
 20 22  1  0  0  0  0
 20 23  1  0  0  0  0
M  END
> <VConfSearch Rank>
940

> <Conf_Id>
26

> <Delta U+W>
1.076

> <U+W>
-7.306

> <U>
48.641

> <W>
-55.947

> <W(PB)>
-58.031

> <W(SA)>
2.084

> <Valence>
2.922

> <Coulomb>
45.269

> <VdW>
0.449

> <VdW6>
-7.045

> <VdW12>
7.494

> <Bond>
0.220

> <Angle>
1.205

> <Pdih>
1.497

> <Idih>
0.000

> <Tether>
0.000

$$$$
VeraChem MOL file


 23 22  0  0  0  0  0  0  0  0999 V2000     
   22.5331   19.8116   21.2893 N   0  3  0  0  0  0  0  0  0  0  0  0
   23.3554   19.3079   21.6370 H   0  0  0  0  0  0  0  0  0  0  0  0
   22.8597   20.7296   20.9690 H   0  0  0  0  0  0  0  0  0  0  0  0
   22.1990   19.3084   20.4612 H   0  0  0  0  0  0  0  0  0  0  0  0
   21.4568   19.9354   22.3486 C   0  0  0  0  0  0  0  0  0  0  0  0
   20.6284   20.5059   21.9206 H   0  0  0  0  0  0  0  0  0  0  0  0
   21.8703   20.5041   23.1858 H   0  0  0  0  0  0  0  0  0  0  0  0
   20.9442   18.5729   22.8511 C   0  0  0  0  0  0  0  0  0  0  0  0
   20.5408   17.9958   22.0093 H   0  0  0  0  0  0  0  0  0  0  0  0
   21.7901   17.9936   23.2444 H   0  0  0  0  0  0  0  0  0  0  0  0
   19.8728   18.7098   23.9612 C   0  0  0  0  0  0  0  0  0  0  0  0
   20.3318   19.1823   24.8406 H   0  0  0  0  0  0  0  0  0  0  0  0
   19.5665   17.7079   24.2902 H   0  0  0  0  0  0  0  0  0  0  0  0
   18.6176   19.5298   23.5576 C   0  0  0  0  0  0  0  0  0  0  0  0
   17.9227   19.5484   24.4085 H   0  0  0  0  0  0  0  0  0  0  0  0
   18.9043   20.5765   23.3887 H   0  0  0  0  0  0  0  0  0  0  0  0
   17.8633   19.0086   22.3080 C   0  0  0  0  0  0  0  0  0  0  0  0
   18.5055   19.0792   21.4198 H   0  0  0  0  0  0  0  0  0  0  0  0
   17.0081   19.6709   22.1138 H   0  0  0  0  0  0  0  0  0  0  0  0
   17.3457   17.5608   22.4640 C   0  0  0  0  0  0  0  0  0  0  0  0
   18.1726   16.8451   22.5514 H   0  0  0  0  0  0  0  0  0  0  0  0
   16.7476   17.2699   21.5908 H   0  0  0  0  0  0  0  0  0  0  0  0
   16.7107   17.4628   23.3540 H   0  0  0  0  0  0  0  0  0  0  0  0
  1  2  1  0  0  0  0
  1  3  1  0  0  0  0
  1  4  1  0  0  0  0
  1  5  1  0  0  0  0
  5  6  1  0  0  0  0
  5  7  1  0  0  0  0
  5  8  1  0  0  0  0
  8  9  1  0  0  0  0
  8 10  1  0  0  0  0
  8 11  1  0  0  0  0
 11 12  1  0  0  0  0
 11 13  1  0  0  0  0
 11 14  1  0  0  0  0
 14 15  1  0  0  0  0
 14 16  1  0  0  0  0
 14 17  1  0  0  0  0
 17 18  1  0  0  0  0
 17 19  1  0  0  0  0
 17 20  1  0  0  0  0
 20 21  1  0  0  0  0
 20 22  1  0  0  0  0
 20 23  1  0  0  0  0
M  END
> <VConfSearch Rank>
941

> <Conf_Id>
90

> <Delta U+W>
1.131

> <U+W>
-7.251

> <U>
48.641

> <W>
-55.892

> <W(PB)>
-57.962

> <W(SA)>
2.070

> <Valence>
2.922

> <Coulomb>
45.269

> <VdW>
0.450

> <VdW6>
-7.045

> <VdW12>
7.495

> <Bond>
0.220

> <Angle>
1.205

> <Pdih>
1.497

> <Idih>
0.000

> <Tether>
0.000

$$$$
VeraChem MOL file


 23 22  0  0  0  0  0  0  0  0999 V2000     
   18.4734   18.8916   20.3038 N   0  3  0  0  0  0  0  0  0  0  0  0
   18.7063   18.9358   19.3059 H   0  0  0  0  0  0  0  0  0  0  0  0
   18.8931   19.7140   20.7478 H   0  0  0  0  0  0  0  0  0  0  0  0
   17.4561   18.9921   20.3782 H   0  0  0  0  0  0  0  0  0  0  0  0
   18.9599   17.6040   20.9393 C   0  0  0  0  0  0  0  0  0  0  0  0
   20.0421   17.5444   20.7985 H   0  0  0  0  0  0  0  0  0  0  0  0
   18.5015   16.7717   20.3983 H   0  0  0  0  0  0  0  0  0  0  0  0
   18.6219   17.4872   22.4396 C   0  0  0  0  0  0  0  0  0  0  0  0
   17.5310   17.5007   22.5647 H   0  0  0  0  0  0  0  0  0  0  0  0
   18.9588   16.5065   22.8010 H   0  0  0  0  0  0  0  0  0  0  0  0
   19.2521   18.5989   23.3156 C   0  0  0  0  0  0  0  0  0  0  0  0
   18.9437   18.4401   24.3581 H   0  0  0  0  0  0  0  0  0  0  0  0
   18.8428   19.5734   23.0207 H   0  0  0  0  0  0  0  0  0  0  0  0
   20.7998   18.6249   23.2421 C   0  0  0  0  0  0  0  0  0  0  0  0
   21.1856   17.6189   23.4575 H   0  0  0  0  0  0  0  0  0  0  0  0
   21.1269   18.8703   22.2230 H   0  0  0  0  0  0  0  0  0  0  0  0
   21.4445   19.6216   24.2354 C   0  0  0  0  0  0  0  0  0  0  0  0
   22.5363   19.5020   24.1964 H   0  0  0  0  0  0  0  0  0  0  0  0
   21.1446   19.3701   25.2623 H   0  0  0  0  0  0  0  0  0  0  0  0
   21.0941   21.0973   23.9377 C   0  0  0  0  0  0  0  0  0  0  0  0
   21.3602   21.3665   22.9074 H   0  0  0  0  0  0  0  0  0  0  0  0
   21.6450   21.7660   24.6117 H   0  0  0  0  0  0  0  0  0  0  0  0
   20.0244   21.2946   24.0803 H   0  0  0  0  0  0  0  0  0  0  0  0
  1  2  1  0  0  0  0
  1  3  1  0  0  0  0
  1  4  1  0  0  0  0
  1  5  1  0  0  0  0
  5  6  1  0  0  0  0
  5  7  1  0  0  0  0
  5  8  1  0  0  0  0
  8  9  1  0  0  0  0
  8 10  1  0  0  0  0
  8 11  1  0  0  0  0
 11 12  1  0  0  0  0
 11 13  1  0  0  0  0
 11 14  1  0  0  0  0
 14 15  1  0  0  0  0
 14 16  1  0  0  0  0
 14 17  1  0  0  0  0
 17 18  1  0  0  0  0
 17 19  1  0  0  0  0
 17 20  1  0  0  0  0
 20 21  1  0  0  0  0
 20 22  1  0  0  0  0
 20 23  1  0  0  0  0
M  END
> <VConfSearch Rank>
942

> <Conf_Id>
85

> <Delta U+W>
1.193

> <U+W>
-7.189

> <U>
48.775

> <W>
-55.965

> <W(PB)>
-58.038

> <W(SA)>
2.073

> <Valence>
2.602

> <Coulomb>
45.581

> <VdW>
0.592

> <VdW6>
-6.616

> <VdW12>
7.208

> <Bond>
0.196

> <Angle>
0.832

> <Pdih>
1.574

> <Idih>
0.000

> <Tether>
0.000

$$$$
VeraChem MOL file


 23 22  0  0  0  0  0  0  0  0999 V2000     
   21.5834   19.0693   23.4594 N   0  3  0  0  0  0  0  0  0  0  0  0
   21.2397   19.0246   22.4947 H   0  0  0  0  0  0  0  0  0  0  0  0
   22.3651   18.4097   23.5382 H   0  0  0  0  0  0  0  0  0  0  0  0
   21.9692   20.0081   23.6036 H   0  0  0  0  0  0  0  0  0  0  0  0
   20.4811   18.7572   24.4530 C   0  0  0  0  0  0  0  0  0  0  0  0
   20.9221   18.8261   25.4511 H   0  0  0  0  0  0  0  0  0  0  0  0
   20.1515   17.7264   24.2982 H   0  0  0  0  0  0  0  0  0  0  0  0
   19.2727   19.7120   24.3696 C   0  0  0  0  0  0  0  0  0  0  0  0
   18.7486   19.6718   25.3337 H   0  0  0  0  0  0  0  0  0  0  0  0
   19.6242   20.7470   24.2641 H   0  0  0  0  0  0  0  0  0  0  0  0
   18.2426   19.3810   23.2563 C   0  0  0  0  0  0  0  0  0  0  0  0
   17.4168   20.1000   23.3489 H   0  0  0  0  0  0  0  0  0  0  0  0
   17.7948   18.3947   23.4410 H   0  0  0  0  0  0  0  0  0  0  0  0
   18.7856   19.4580   21.8063 C   0  0  0  0  0  0  0  0  0  0  0  0
   17.9908   19.8504   21.1566 H   0  0  0  0  0  0  0  0  0  0  0  0
   19.6034   20.1882   21.7459 H   0  0  0  0  0  0  0  0  0  0  0  0
   19.2220   18.0827   21.2450 C   0  0  0  0  0  0  0  0  0  0  0  0
   18.3419   17.4294   21.1628 H   0  0  0  0  0  0  0  0  0  0  0  0
   19.9107   17.5760   21.9315 H   0  0  0  0  0  0  0  0  0  0  0  0
   19.8850   18.2168   19.8579 C   0  0  0  0  0  0  0  0  0  0  0  0
   19.1965   18.6736   19.1350 H   0  0  0  0  0  0  0  0  0  0  0  0
   20.1739   17.2314   19.4697 H   0  0  0  0  0  0  0  0  0  0  0  0
   20.7889   18.8375   19.9064 H   0  0  0  0  0  0  0  0  0  0  0  0
  1  2  1  0  0  0  0
  1  3  1  0  0  0  0
  1  4  1  0  0  0  0
  1  5  1  0  0  0  0
  5  6  1  0  0  0  0
  5  7  1  0  0  0  0
  5  8  1  0  0  0  0
  8  9  1  0  0  0  0
  8 10  1  0  0  0  0
  8 11  1  0  0  0  0
 11 12  1  0  0  0  0
 11 13  1  0  0  0  0
 11 14  1  0  0  0  0
 14 15  1  0  0  0  0
 14 16  1  0  0  0  0
 14 17  1  0  0  0  0
 17 18  1  0  0  0  0
 17 19  1  0  0  0  0
 17 20  1  0  0  0  0
 20 21  1  0  0  0  0
 20 22  1  0  0  0  0
 20 23  1  0  0  0  0
M  END
> <VConfSearch Rank>
943

> <Conf_Id>
82

> <Delta U+W>
5.994

> <U+W>
-2.388

> <U>
52.836

> <W>
-55.224

> <W(PB)>
-57.261

> <W(SA)>
2.037

> <Valence>
5.785

> <Coulomb>
46.744

> <VdW>
0.307

> <VdW6>
-7.672

> <VdW12>
7.979

> <Bond>
0.217

> <Angle>
1.470

> <Pdih>
4.098

> <Idih>
0.000

> <Tether>
0.000

$$$$
VeraChem MOL file


 23 22  0  0  0  0  0  0  0  0999 V2000     
   19.8545   19.8142   20.6619 N   0  3  0  0  0  0  0  0  0  0  0  0
   19.5490   20.7888   20.5731 H   0  0  0  0  0  0  0  0  0  0  0  0
   20.3691   19.5831   19.8051 H   0  0  0  0  0  0  0  0  0  0  0  0
   20.5195   19.7718   21.4407 H   0  0  0  0  0  0  0  0  0  0  0  0
   18.6830   18.8774   20.8849 C   0  0  0  0  0  0  0  0  0  0  0  0
   19.0555   17.8498   20.9072 H   0  0  0  0  0  0  0  0  0  0  0  0
   18.0227   18.9802   20.0195 H   0  0  0  0  0  0  0  0  0  0  0  0
   17.8800   19.1717   22.1684 C   0  0  0  0  0  0  0  0  0  0  0  0
   17.7297   20.2546   22.2719 H   0  0  0  0  0  0  0  0  0  0  0  0
   16.8775   18.7422   22.0407 H   0  0  0  0  0  0  0  0  0  0  0  0
   18.4823   18.5883   23.4749 C   0  0  0  0  0  0  0  0  0  0  0  0
   18.5082   17.4912   23.4188 H   0  0  0  0  0  0  0  0  0  0  0  0
   17.7855   18.8238   24.2914 H   0  0  0  0  0  0  0  0  0  0  0  0
   19.8794   19.1363   23.8636 C   0  0  0  0  0  0  0  0  0  0  0  0
   20.0045   20.1591   23.4843 H   0  0  0  0  0  0  0  0  0  0  0  0
   19.9296   19.2191   24.9583 H   0  0  0  0  0  0  0  0  0  0  0  0
   21.0420   18.2235   23.4027 C   0  0  0  0  0  0  0  0  0  0  0  0
   20.9591   17.9861   22.3354 H   0  0  0  0  0  0  0  0  0  0  0  0
   20.9792   17.2622   23.9321 H   0  0  0  0  0  0  0  0  0  0  0  0
   22.4171   18.8664   23.6809 C   0  0  0  0  0  0  0  0  0  0  0  0
   22.5299   19.8155   23.1412 H   0  0  0  0  0  0  0  0  0  0  0  0
   23.2284   18.1992   23.3619 H   0  0  0  0  0  0  0  0  0  0  0  0
   22.5486   19.0662   24.7524 H   0  0  0  0  0  0  0  0  0  0  0  0
  1  2  1  0  0  0  0
  1  3  1  0  0  0  0
  1  4  1  0  0  0  0
  1  5  1  0  0  0  0
  5  6  1  0  0  0  0
  5  7  1  0  0  0  0
  5  8  1  0  0  0  0
  8  9  1  0  0  0  0
  8 10  1  0  0  0  0
  8 11  1  0  0  0  0
 11 12  1  0  0  0  0
 11 13  1  0  0  0  0
 11 14  1  0  0  0  0
 14 15  1  0  0  0  0
 14 16  1  0  0  0  0
 14 17  1  0  0  0  0
 17 18  1  0  0  0  0
 17 19  1  0  0  0  0
 17 20  1  0  0  0  0
 20 21  1  0  0  0  0
 20 22  1  0  0  0  0
 20 23  1  0  0  0  0
M  END
> <VConfSearch Rank>
944

> <Conf_Id>
5

> <Delta U+W>
6.087

> <U+W>
-2.295

> <U>
52.836

> <W>
-55.131

> <W(PB)>
-57.202

> <W(SA)>
2.071

> <Valence>
5.785

> <Coulomb>
46.744

> <VdW>
0.307

> <VdW6>
-7.672

> <VdW12>
7.980

> <Bond>
0.217

> <Angle>
1.470

> <Pdih>
4.098

> <Idih>
0.000

> <Tether>
0.000

$$$$
VeraChem MOL file


 23 22  0  0  0  0  0  0  0  0999 V2000     
   18.6034   21.3673   19.8026 N   0  3  0  0  0  0  0  0  0  0  0  0
   17.6416   21.4780   20.1395 H   0  0  0  0  0  0  0  0  0  0  0  0
   18.5671   21.4115   18.7784 H   0  0  0  0  0  0  0  0  0  0  0  0
   19.1297   22.1887   20.1175 H   0  0  0  0  0  0  0  0  0  0  0  0
   19.2278   20.0750   20.2884 C   0  0  0  0  0  0  0  0  0  0  0  0
   20.2356   20.0088   19.8695 H   0  0  0  0  0  0  0  0  0  0  0  0
   18.6361   19.2448   19.8931 H   0  0  0  0  0  0  0  0  0  0  0  0
   19.2970   19.9774   21.8227 C   0  0  0  0  0  0  0  0  0  0  0  0
   19.8784   20.8220   22.2163 H   0  0  0  0  0  0  0  0  0  0  0  0
   18.2845   20.0608   22.2398 H   0  0  0  0  0  0  0  0  0  0  0  0
   19.9388   18.6476   22.2764 C   0  0  0  0  0  0  0  0  0  0  0  0
   20.9495   18.5655   21.8527 H   0  0  0  0  0  0  0  0  0  0  0  0
   19.3573   17.8052   21.8763 H   0  0  0  0  0  0  0  0  0  0  0  0
   20.0135   18.5389   23.8164 C   0  0  0  0  0  0  0  0  0  0  0  0
   20.5949   19.3811   24.2166 H   0  0  0  0  0  0  0  0  0  0  0  0
   19.0029   18.6209   24.2402 H   0  0  0  0  0  0  0  0  0  0  0  0
   20.6553   17.2087   24.2698 C   0  0  0  0  0  0  0  0  0  0  0  0
   21.6675   17.1231   23.8503 H   0  0  0  0  0  0  0  0  0  0  0  0
   20.0756   16.3630   23.8739 H   0  0  0  0  0  0  0  0  0  0  0  0
   20.7281   17.1038   25.8080 C   0  0  0  0  0  0  0  0  0  0  0  0
   21.1864   16.1533   26.1105 H   0  0  0  0  0  0  0  0  0  0  0  0
   19.7265   17.1521   26.2549 H   0  0  0  0  0  0  0  0  0  0  0  0
   21.3308   17.9181   26.2312 H   0  0  0  0  0  0  0  0  0  0  0  0
  1  2  1  0  0  0  0
  1  3  1  0  0  0  0
  1  4  1  0  0  0  0
  1  5  1  0  0  0  0
  5  6  1  0  0  0  0
  5  7  1  0  0  0  0
  5  8  1  0  0  0  0
  8  9  1  0  0  0  0
  8 10  1  0  0  0  0
  8 11  1  0  0  0  0
 11 12  1  0  0  0  0
 11 13  1  0  0  0  0
 11 14  1  0  0  0  0
 14 15  1  0  0  0  0
 14 16  1  0  0  0  0
 14 17  1  0  0  0  0
 17 18  1  0  0  0  0
 17 19  1  0  0  0  0
 17 20  1  0  0  0  0
 20 21  1  0  0  0  0
 20 22  1  0  0  0  0
 20 23  1  0  0  0  0
M  END
> <VConfSearch Rank>
945

> <Conf_Id>
40

> <Delta U+W>
0.000

> <U+W>
-8.382

> <U>
46.604

> <W>
-54.986

> <W(PB)>
-57.162

> <W(SA)>
2.176

> <Valence>
1.727

> <Coulomb>
44.434

> <VdW>
0.443

> <VdW6>
-4.623

> <VdW12>
5.066

> <Bond>
0.112

> <Angle>
0.386

> <Pdih>
1.228

> <Idih>
0.000

> <Tether>
0.000

$$$$
VeraChem MOL file


 23 22  0  0  0  0  0  0  0  0999 V2000     
   17.2724   16.5766   21.8386 N   0  3  0  0  0  0  0  0  0  0  0  0
   17.5275   15.6684   22.2398 H   0  0  0  0  0  0  0  0  0  0  0  0
   17.4569   16.5239   20.8316 H   0  0  0  0  0  0  0  0  0  0  0  0
   16.2579   16.6773   21.9509 H   0  0  0  0  0  0  0  0  0  0  0  0
   18.0272   17.7158   22.4930 C   0  0  0  0  0  0  0  0  0  0  0  0
   17.7628   17.7305   23.5538 H   0  0  0  0  0  0  0  0  0  0  0  0
   17.6836   18.6490   22.0395 H   0  0  0  0  0  0  0  0  0  0  0  0
   19.5553   17.5927   22.3417 C   0  0  0  0  0  0  0  0  0  0  0  0
   19.8792   16.6298   22.7587 H   0  0  0  0  0  0  0  0  0  0  0  0
   19.8216   17.5790   21.2763 H   0  0  0  0  0  0  0  0  0  0  0  0
   20.3229   18.7308   23.0551 C   0  0  0  0  0  0  0  0  0  0  0  0
   21.3965   18.5090   22.9981 H   0  0  0  0  0  0  0  0  0  0  0  0
   20.0619   18.7358   24.1224 H   0  0  0  0  0  0  0  0  0  0  0  0
   20.0475   20.1276   22.4421 C   0  0  0  0  0  0  0  0  0  0  0  0
   20.3282   20.1280   21.3798 H   0  0  0  0  0  0  0  0  0  0  0  0
   18.9705   20.3382   22.4770 H   0  0  0  0  0  0  0  0  0  0  0  0
   20.7858   21.2765   23.1710 C   0  0  0  0  0  0  0  0  0  0  0  0
   20.5007   21.2876   24.2323 H   0  0  0  0  0  0  0  0  0  0  0  0
   20.4464   22.2343   22.7521 H   0  0  0  0  0  0  0  0  0  0  0  0
   22.3245   21.1981   23.0463 C   0  0  0  0  0  0  0  0  0  0  0  0
   22.7274   20.3178   23.5621 H   0  0  0  0  0  0  0  0  0  0  0  0
   22.7915   22.0845   23.4948 H   0  0  0  0  0  0  0  0  0  0  0  0
   22.6338   21.1526   21.9940 H   0  0  0  0  0  0  0  0  0  0  0  0
  1  2  1  0  0  0  0
  1  3  1  0  0  0  0
  1  4  1  0  0  0  0
  1  5  1  0  0  0  0
  5  6  1  0  0  0  0
  5  7  1  0  0  0  0
  5  8  1  0  0  0  0
  8  9  1  0  0  0  0
  8 10  1  0  0  0  0
  8 11  1  0  0  0  0
 11 12  1  0  0  0  0
 11 13  1  0  0  0  0
 11 14  1  0  0  0  0
 14 15  1  0  0  0  0
 14 16  1  0  0  0  0
 14 17  1  0  0  0  0
 17 18  1  0  0  0  0
 17 19  1  0  0  0  0
 17 20  1  0  0  0  0
 20 21  1  0  0  0  0
 20 22  1  0  0  0  0
 20 23  1  0  0  0  0
M  END
> <VConfSearch Rank>
946

> <Conf_Id>
65

> <Delta U+W>
1.004

> <U+W>
-7.378

> <U>
48.047

> <W>
-55.425

> <W(PB)>
-57.542

> <W(SA)>
2.116

> <Valence>
2.583

> <Coulomb>
44.791

> <VdW>
0.673

> <VdW6>
-5.788

> <VdW12>
6.462

> <Bond>
0.177

> <Angle>
0.787

> <Pdih>
1.619

> <Idih>
0.000

> <Tether>
0.000

$$$$
VeraChem MOL file


 23 22  0  0  0  0  0  0  0  0999 V2000     
   18.3596   17.1311   19.9232 N   0  3  0  0  0  0  0  0  0  0  0  0
   17.4586   17.5300   19.6405 H   0  0  0  0  0  0  0  0  0  0  0  0
   18.2621   16.1112   19.8747 H   0  0  0  0  0  0  0  0  0  0  0  0
   19.0451   17.3990   19.2097 H   0  0  0  0  0  0  0  0  0  0  0  0
   18.7731   17.5921   21.3060 C   0  0  0  0  0  0  0  0  0  0  0  0
   19.7206   17.1057   21.5516 H   0  0  0  0  0  0  0  0  0  0  0  0
   18.0159   17.2496   22.0164 H   0  0  0  0  0  0  0  0  0  0  0  0
   18.9279   19.1212   21.4110 C   0  0  0  0  0  0  0  0  0  0  0  0
   19.6892   19.4657   20.6985 H   0  0  0  0  0  0  0  0  0  0  0  0
   17.9832   19.5971   21.1157 H   0  0  0  0  0  0  0  0  0  0  0  0
   19.3004   19.5904   22.8374 C   0  0  0  0  0  0  0  0  0  0  0  0
   18.5319   19.2528   23.5465 H   0  0  0  0  0  0  0  0  0  0  0  0
   19.2790   20.6878   22.8543 H   0  0  0  0  0  0  0  0  0  0  0  0
   20.6935   19.0905   23.2978 C   0  0  0  0  0  0  0  0  0  0  0  0
   20.7221   17.9937   23.2571 H   0  0  0  0  0  0  0  0  0  0  0  0
   21.4639   19.4459   22.5997 H   0  0  0  0  0  0  0  0  0  0  0  0
   21.0602   19.5278   24.7368 C   0  0  0  0  0  0  0  0  0  0  0  0
   22.0010   19.0379   25.0243 H   0  0  0  0  0  0  0  0  0  0  0  0
   20.2981   19.1659   25.4411 H   0  0  0  0  0  0  0  0  0  0  0  0
   21.2290   21.0564   24.8930 C   0  0  0  0  0  0  0  0  0  0  0  0
   20.2806   21.5855   24.7391 H   0  0  0  0  0  0  0  0  0  0  0  0
   21.9625   21.4481   24.1763 H   0  0  0  0  0  0  0  0  0  0  0  0
   21.5826   21.3022   25.9027 H   0  0  0  0  0  0  0  0  0  0  0  0
  1  2  1  0  0  0  0
  1  3  1  0  0  0  0
  1  4  1  0  0  0  0
  1  5  1  0  0  0  0
  5  6  1  0  0  0  0
  5  7  1  0  0  0  0
  5  8  1  0  0  0  0
  8  9  1  0  0  0  0
  8 10  1  0  0  0  0
  8 11  1  0  0  0  0
 11 12  1  0  0  0  0
 11 13  1  0  0  0  0
 11 14  1  0  0  0  0
 14 15  1  0  0  0  0
 14 16  1  0  0  0  0
 14 17  1  0  0  0  0
 17 18  1  0  0  0  0
 17 19  1  0  0  0  0
 17 20  1  0  0  0  0
 20 21  1  0  0  0  0
 20 22  1  0  0  0  0
 20 23  1  0  0  0  0
M  END
> <VConfSearch Rank>
947

> <Conf_Id>
92

> <Delta U+W>
0.973

> <U+W>
-7.409

> <U>
48.047

> <W>
-55.456

> <W(PB)>
-57.595

> <W(SA)>
2.138

> <Valence>
2.583

> <Coulomb>
44.791

> <VdW>
0.674

> <VdW6>
-5.789

> <VdW12>
6.462

> <Bond>
0.177

> <Angle>
0.787

> <Pdih>
1.619

> <Idih>
0.000

> <Tether>
0.000

$$$$
VeraChem MOL file


 23 22  0  0  0  0  0  0  0  0999 V2000     
   17.6654   16.7497   24.3983 N   0  3  0  0  0  0  0  0  0  0  0  0
   16.7545   17.0506   24.7611 H   0  0  0  0  0  0  0  0  0  0  0  0
   18.1159   16.2044   25.1403 H   0  0  0  0  0  0  0  0  0  0  0  0
   17.4793   16.1065   23.6221 H   0  0  0  0  0  0  0  0  0  0  0  0
   18.5160   17.9267   23.9658 C   0  0  0  0  0  0  0  0  0  0  0  0
   18.6500   18.5822   24.8306 H   0  0  0  0  0  0  0  0  0  0  0  0
   17.9629   18.4762   23.1998 H   0  0  0  0  0  0  0  0  0  0  0  0
   19.8922   17.5069   23.4157 C   0  0  0  0  0  0  0  0  0  0  0  0
   20.4189   16.9181   24.1785 H   0  0  0  0  0  0  0  0  0  0  0  0
   19.7575   16.8479   22.5476 H   0  0  0  0  0  0  0  0  0  0  0  0
   20.7719   18.7160   23.0191 C   0  0  0  0  0  0  0  0  0  0  0  0
   21.7648   18.3479   22.7258 H   0  0  0  0  0  0  0  0  0  0  0  0
   20.9261   19.3601   23.8959 H   0  0  0  0  0  0  0  0  0  0  0  0
   20.1747   19.5478   21.8585 C   0  0  0  0  0  0  0  0  0  0  0  0
   19.9909   18.8940   20.9946 H   0  0  0  0  0  0  0  0  0  0  0  0
   19.2025   19.9633   22.1556 H   0  0  0  0  0  0  0  0  0  0  0  0
   21.1115   20.7023   21.4388 C   0  0  0  0  0  0  0  0  0  0  0  0
   22.0857   20.2971   21.1311 H   0  0  0  0  0  0  0  0  0  0  0  0
   21.2993   21.3593   22.2997 H   0  0  0  0  0  0  0  0  0  0  0  0
   20.5144   21.5320   20.2823 C   0  0  0  0  0  0  0  0  0  0  0  0
   20.3465   20.9083   19.3946 H   0  0  0  0  0  0  0  0  0  0  0  0
   21.1937   22.3462   19.9982 H   0  0  0  0  0  0  0  0  0  0  0  0
   19.5547   21.9798   20.5719 H   0  0  0  0  0  0  0  0  0  0  0  0
  1  2  1  0  0  0  0
  1  3  1  0  0  0  0
  1  4  1  0  0  0  0
  1  5  1  0  0  0  0
  5  6  1  0  0  0  0
  5  7  1  0  0  0  0
  5  8  1  0  0  0  0
  8  9  1  0  0  0  0
  8 10  1  0  0  0  0
  8 11  1  0  0  0  0
 11 12  1  0  0  0  0
 11 13  1  0  0  0  0
 11 14  1  0  0  0  0
 14 15  1  0  0  0  0
 14 16  1  0  0  0  0
 14 17  1  0  0  0  0
 17 18  1  0  0  0  0
 17 19  1  0  0  0  0
 17 20  1  0  0  0  0
 20 21  1  0  0  0  0
 20 22  1  0  0  0  0
 20 23  1  0  0  0  0
M  END
> <VConfSearch Rank>
948

> <Conf_Id>
42

> <Delta U+W>
0.365

> <U+W>
-8.017

> <U>
47.375

> <W>
-55.392

> <W(PB)>
-57.543

> <W(SA)>
2.152

> <Valence>
2.032

> <Coulomb>
44.843

> <VdW>
0.499

> <VdW6>
-5.218

> <VdW12>
5.717

> <Bond>
0.135

> <Angle>
0.514

> <Pdih>
1.383

> <Idih>
0.000

> <Tether>
0.000

$$$$
VeraChem MOL file


 23 22  0  0  0  0  0  0  0  0999 V2000     
   21.0391   19.0711   19.7157 N   0  3  0  0  0  0  0  0  0  0  0  0
   20.6086   18.1842   19.4353 H   0  0  0  0  0  0  0  0  0  0  0  0
   21.7906   19.2638   19.0447 H   0  0  0  0  0  0  0  0  0  0  0  0
   20.3330   19.8030   19.5919 H   0  0  0  0  0  0  0  0  0  0  0  0
   21.5560   19.0214   21.1404 C   0  0  0  0  0  0  0  0  0  0  0  0
   22.0217   19.9843   21.3672 H   0  0  0  0  0  0  0  0  0  0  0  0
   22.3302   18.2505   21.1837 H   0  0  0  0  0  0  0  0  0  0  0  0
   20.4690   18.7109   22.1878 C   0  0  0  0  0  0  0  0  0  0  0  0
   19.9840   17.7569   21.9423 H   0  0  0  0  0  0  0  0  0  0  0  0
   20.9656   18.5778   23.1567 H   0  0  0  0  0  0  0  0  0  0  0  0
   19.4100   19.8343   22.3025 C   0  0  0  0  0  0  0  0  0  0  0  0
   18.9864   20.0397   21.3107 H   0  0  0  0  0  0  0  0  0  0  0  0
   19.8994   20.7641   22.6241 H   0  0  0  0  0  0  0  0  0  0  0  0
   18.2367   19.5113   23.2639 C   0  0  0  0  0  0  0  0  0  0  0  0
   17.5364   20.3573   23.2256 H   0  0  0  0  0  0  0  0  0  0  0  0
   17.6725   18.6445   22.8931 H   0  0  0  0  0  0  0  0  0  0  0  0
   18.6463   19.2919   24.7432 C   0  0  0  0  0  0  0  0  0  0  0  0
   17.8579   19.7027   25.3894 H   0  0  0  0  0  0  0  0  0  0  0  0
   19.5557   19.8629   24.9771 H   0  0  0  0  0  0  0  0  0  0  0  0
   18.8362   17.8021   25.1129 C   0  0  0  0  0  0  0  0  0  0  0  0
   17.9080   17.2379   24.9536 H   0  0  0  0  0  0  0  0  0  0  0  0
   19.1091   17.7009   26.1713 H   0  0  0  0  0  0  0  0  0  0  0  0
   19.6250   17.3265   24.5199 H   0  0  0  0  0  0  0  0  0  0  0  0
  1  2  1  0  0  0  0
  1  3  1  0  0  0  0
  1  4  1  0  0  0  0
  1  5  1  0  0  0  0
  5  6  1  0  0  0  0
  5  7  1  0  0  0  0
  5  8  1  0  0  0  0
  8  9  1  0  0  0  0
  8 10  1  0  0  0  0
  8 11  1  0  0  0  0
 11 12  1  0  0  0  0
 11 13  1  0  0  0  0
 11 14  1  0  0  0  0
 14 15  1  0  0  0  0
 14 16  1  0  0  0  0
 14 17  1  0  0  0  0
 17 18  1  0  0  0  0
 17 19  1  0  0  0  0
 17 20  1  0  0  0  0
 20 21  1  0  0  0  0
 20 22  1  0  0  0  0
 20 23  1  0  0  0  0
M  END
> <VConfSearch Rank>
949

> <Conf_Id>
3

> <Delta U+W>
3.283

> <U+W>
-5.099

> <U>
50.701

> <W>
-55.800

> <W(PB)>
-57.867

> <W(SA)>
2.067

> <Valence>
4.880

> <Coulomb>
45.095

> <VdW>
0.726

> <VdW6>
-6.620

> <VdW12>
7.346

> <Bond>
0.222

> <Angle>
1.260

> <Pdih>
3.398

> <Idih>
0.000

> <Tether>
0.000

$$$$
VeraChem MOL file


 23 22  0  0  0  0  0  0  0  0999 V2000     
   20.6072   21.8525   22.4350 N   0  3  0  0  0  0  0  0  0  0  0  0
   21.6190   21.9902   22.5242 H   0  0  0  0  0  0  0  0  0  0  0  0
   20.1923   22.7767   22.2750 H   0  0  0  0  0  0  0  0  0  0  0  0
   20.4498   21.3009   21.5862 H   0  0  0  0  0  0  0  0  0  0  0  0
   20.0211   21.1759   23.6585 C   0  0  0  0  0  0  0  0  0  0  0  0
   18.9415   21.0876   23.5128 H   0  0  0  0  0  0  0  0  0  0  0  0
   20.1939   21.8318   24.5161 H   0  0  0  0  0  0  0  0  0  0  0  0
   20.6252   19.7865   23.9480 C   0  0  0  0  0  0  0  0  0  0  0  0
   21.7002   19.8974   24.1431 H   0  0  0  0  0  0  0  0  0  0  0  0
   20.1852   19.3973   24.8757 H   0  0  0  0  0  0  0  0  0  0  0  0
   20.4162   18.7538   22.8116 C   0  0  0  0  0  0  0  0  0  0  0  0
   20.9174   17.8217   23.1031 H   0  0  0  0  0  0  0  0  0  0  0  0
   20.9177   19.0973   21.8971 H   0  0  0  0  0  0  0  0  0  0  0  0
   18.9221   18.4675   22.5147 C   0  0  0  0  0  0  0  0  0  0  0  0
   18.4283   18.0976   23.4238 H   0  0  0  0  0  0  0  0  0  0  0  0
   18.4144   19.4033   22.2465 H   0  0  0  0  0  0  0  0  0  0  0  0
   18.7057   17.4566   21.3623 C   0  0  0  0  0  0  0  0  0  0  0  0
   19.1885   17.8267   20.4471 H   0  0  0  0  0  0  0  0  0  0  0  0
   17.6307   17.4006   21.1410 H   0  0  0  0  0  0  0  0  0  0  0  0
   19.2206   16.0351   21.6838 C   0  0  0  0  0  0  0  0  0  0  0  0
   18.7776   15.6553   22.6136 H   0  0  0  0  0  0  0  0  0  0  0  0
   20.3123   16.0148   21.7891 H   0  0  0  0  0  0  0  0  0  0  0  0
   18.9551   15.3393   20.8774 H   0  0  0  0  0  0  0  0  0  0  0  0
  1  2  1  0  0  0  0
  1  3  1  0  0  0  0
  1  4  1  0  0  0  0
  1  5  1  0  0  0  0
  5  6  1  0  0  0  0
  5  7  1  0  0  0  0
  5  8  1  0  0  0  0
  8  9  1  0  0  0  0
  8 10  1  0  0  0  0
  8 11  1  0  0  0  0
 11 12  1  0  0  0  0
 11 13  1  0  0  0  0
 11 14  1  0  0  0  0
 14 15  1  0  0  0  0
 14 16  1  0  0  0  0
 14 17  1  0  0  0  0
 17 18  1  0  0  0  0
 17 19  1  0  0  0  0
 17 20  1  0  0  0  0
 20 21  1  0  0  0  0
 20 22  1  0  0  0  0
 20 23  1  0  0  0  0
M  END
> <VConfSearch Rank>
950

> <Conf_Id>
83

> <Delta U+W>
1.229

> <U+W>
-7.154

> <U>
48.727

> <W>
-55.880

> <W(PB)>
-57.960

> <W(SA)>
2.080

> <Valence>
2.671

> <Coulomb>
45.371

> <VdW>
0.684

> <VdW6>
-6.511

> <VdW12>
7.195

> <Bond>
0.203

> <Angle>
0.915

> <Pdih>
1.554

> <Idih>
0.000

> <Tether>
0.000

$$$$
VeraChem MOL file


 23 22  0  0  0  0  0  0  0  0999 V2000     
   21.0101   18.8405   19.9819 N   0  3  0  0  0  0  0  0  0  0  0  0
   21.8270   18.2214   19.9761 H   0  0  0  0  0  0  0  0  0  0  0  0
   21.2186   19.6117   20.6233 H   0  0  0  0  0  0  0  0  0  0  0  0
   20.9329   19.2431   19.0418 H   0  0  0  0  0  0  0  0  0  0  0  0
   19.7480   18.1036   20.3847 C   0  0  0  0  0  0  0  0  0  0  0  0
   19.5681   17.3215   19.6420 H   0  0  0  0  0  0  0  0  0  0  0  0
   18.9145   18.8092   20.3408 H   0  0  0  0  0  0  0  0  0  0  0  0
   19.8220   17.4680   21.7882 C   0  0  0  0  0  0  0  0  0  0  0  0
   18.8928   16.9127   21.9729 H   0  0  0  0  0  0  0  0  0  0  0  0
   20.6299   16.7245   21.8020 H   0  0  0  0  0  0  0  0  0  0  0  0
   20.0449   18.4859   22.9353 C   0  0  0  0  0  0  0  0  0  0  0  0
   21.0089   18.9944   22.8021 H   0  0  0  0  0  0  0  0  0  0  0  0
   20.1225   17.9258   23.8761 H   0  0  0  0  0  0  0  0  0  0  0  0
   18.9096   19.5350   23.0492 C   0  0  0  0  0  0  0  0  0  0  0  0
   18.8150   20.0792   22.1004 H   0  0  0  0  0  0  0  0  0  0  0  0
   17.9496   19.0255   23.2102 H   0  0  0  0  0  0  0  0  0  0  0  0
   19.1392   20.5712   24.1761 C   0  0  0  0  0  0  0  0  0  0  0  0
   18.3559   21.3395   24.1122 H   0  0  0  0  0  0  0  0  0  0  0  0
   20.0934   21.0918   24.0142 H   0  0  0  0  0  0  0  0  0  0  0  0
   19.1160   19.9561   25.5940 C   0  0  0  0  0  0  0  0  0  0  0  0
   18.1850   19.4015   25.7688 H   0  0  0  0  0  0  0  0  0  0  0  0
   19.1848   20.7440   26.3552 H   0  0  0  0  0  0  0  0  0  0  0  0
   19.9591   19.2723   25.7517 H   0  0  0  0  0  0  0  0  0  0  0  0
  1  2  1  0  0  0  0
  1  3  1  0  0  0  0
  1  4  1  0  0  0  0
  1  5  1  0  0  0  0
  5  6  1  0  0  0  0
  5  7  1  0  0  0  0
  5  8  1  0  0  0  0
  8  9  1  0  0  0  0
  8 10  1  0  0  0  0
  8 11  1  0  0  0  0
 11 12  1  0  0  0  0
 11 13  1  0  0  0  0
 11 14  1  0  0  0  0
 14 15  1  0  0  0  0
 14 16  1  0  0  0  0
 14 17  1  0  0  0  0
 17 18  1  0  0  0  0
 17 19  1  0  0  0  0
 17 20  1  0  0  0  0
 20 21  1  0  0  0  0
 20 22  1  0  0  0  0
 20 23  1  0  0  0  0
M  END
> <VConfSearch Rank>
951

> <Conf_Id>
50

> <Delta U+W>
1.252

> <U+W>
-7.130

> <U>
48.727

> <W>
-55.857

> <W(PB)>
-57.937

> <W(SA)>
2.080

> <Valence>
2.671

> <Coulomb>
45.371

> <VdW>
0.684

> <VdW6>
-6.511

> <VdW12>
7.196

> <Bond>
0.203

> <Angle>
0.915

> <Pdih>
1.554

> <Idih>
0.000

> <Tether>
0.000

$$$$
VeraChem MOL file


 23 22  0  0  0  0  0  0  0  0999 V2000     
   19.5090   20.0316   25.6441 N   0  3  0  0  0  0  0  0  0  0  0  0
   20.4784   19.7022   25.6081 H   0  0  0  0  0  0  0  0  0  0  0  0
   19.1564   19.8230   26.5844 H   0  0  0  0  0  0  0  0  0  0  0  0
   19.5320   21.0523   25.5533 H   0  0  0  0  0  0  0  0  0  0  0  0
   18.6559   19.3889   24.5678 C   0  0  0  0  0  0  0  0  0  0  0  0
   17.6330   19.7544   24.6937 H   0  0  0  0  0  0  0  0  0  0  0  0
   18.6544   18.3086   24.7360 H   0  0  0  0  0  0  0  0  0  0  0  0
   19.1325   19.6894   23.1335 C   0  0  0  0  0  0  0  0  0  0  0  0
   18.3959   19.2780   22.4344 H   0  0  0  0  0  0  0  0  0  0  0  0
   19.1372   20.7755   22.9713 H   0  0  0  0  0  0  0  0  0  0  0  0
   20.5379   19.1068   22.8369 C   0  0  0  0  0  0  0  0  0  0  0  0
   20.5693   18.0373   23.0872 H   0  0  0  0  0  0  0  0  0  0  0  0
   21.2650   19.5960   23.4987 H   0  0  0  0  0  0  0  0  0  0  0  0
   20.9968   19.3231   21.3710 C   0  0  0  0  0  0  0  0  0  0  0  0
   20.5457   20.2372   20.9608 H   0  0  0  0  0  0  0  0  0  0  0  0
   22.0805   19.5046   21.3748 H   0  0  0  0  0  0  0  0  0  0  0  0
   20.7289   18.1250   20.4244 C   0  0  0  0  0  0  0  0  0  0  0  0
   21.2684   17.2398   20.7892 H   0  0  0  0  0  0  0  0  0  0  0  0
   21.1570   18.3569   19.4391 H   0  0  0  0  0  0  0  0  0  0  0  0
   19.2352   17.7764   20.2452 C   0  0  0  0  0  0  0  0  0  0  0  0
   18.6569   18.6570   19.9369 H   0  0  0  0  0  0  0  0  0  0  0  0
   18.8039   17.3813   21.1732 H   0  0  0  0  0  0  0  0  0  0  0  0
   19.1113   17.0063   19.4728 H   0  0  0  0  0  0  0  0  0  0  0  0
  1  2  1  0  0  0  0
  1  3  1  0  0  0  0
  1  4  1  0  0  0  0
  1  5  1  0  0  0  0
  5  6  1  0  0  0  0
  5  7  1  0  0  0  0
  5  8  1  0  0  0  0
  8  9  1  0  0  0  0
  8 10  1  0  0  0  0
  8 11  1  0  0  0  0
 11 12  1  0  0  0  0
 11 13  1  0  0  0  0
 11 14  1  0  0  0  0
 14 15  1  0  0  0  0
 14 16  1  0  0  0  0
 14 17  1  0  0  0  0
 17 18  1  0  0  0  0
 17 19  1  0  0  0  0
 17 20  1  0  0  0  0
 20 21  1  0  0  0  0
 20 22  1  0  0  0  0
 20 23  1  0  0  0  0
M  END
> <VConfSearch Rank>
952

> <Conf_Id>
55

> <Delta U+W>
3.232

> <U+W>
-5.150

> <U>
50.625

> <W>
-55.776

> <W(PB)>
-57.839

> <W(SA)>
2.064

> <Valence>
4.837

> <Coulomb>
45.097

> <VdW>
0.692

> <VdW6>
-6.655

> <VdW12>
7.347

> <Bond>
0.223

> <Angle>
1.167

> <Pdih>
3.447

> <Idih>
0.000

> <Tether>
0.000

$$$$
VeraChem MOL file


 23 22  0  0  0  0  0  0  0  0999 V2000     
   17.9448   16.6945   23.4964 N   0  3  0  0  0  0  0  0  0  0  0  0
   17.7194   15.9068   22.8804 H   0  0  0  0  0  0  0  0  0  0  0  0
   17.1039   16.8893   24.0503 H   0  0  0  0  0  0  0  0  0  0  0  0
   18.6640   16.3693   24.1504 H   0  0  0  0  0  0  0  0  0  0  0  0
   18.3989   17.9107   22.7151 C   0  0  0  0  0  0  0  0  0  0  0  0
   18.5849   18.7151   23.4291 H   0  0  0  0  0  0  0  0  0  0  0  0
   17.5766   18.2174   22.0631 H   0  0  0  0  0  0  0  0  0  0  0  0
   19.6582   17.6460   21.8666 C   0  0  0  0  0  0  0  0  0  0  0  0
   20.4803   17.2921   22.5028 H   0  0  0  0  0  0  0  0  0  0  0  0
   19.4326   16.8287   21.1686 H   0  0  0  0  0  0  0  0  0  0  0  0
   20.1113   18.8817   21.0485 C   0  0  0  0  0  0  0  0  0  0  0  0
   19.2340   19.4302   20.6782 H   0  0  0  0  0  0  0  0  0  0  0  0
   20.6375   18.5238   20.1527 H   0  0  0  0  0  0  0  0  0  0  0  0
   21.0669   19.8473   21.7967 C   0  0  0  0  0  0  0  0  0  0  0  0
   21.9868   19.3125   22.0706 H   0  0  0  0  0  0  0  0  0  0  0  0
   21.3714   20.6372   21.0962 H   0  0  0  0  0  0  0  0  0  0  0  0
   20.4609   20.5040   23.0585 C   0  0  0  0  0  0  0  0  0  0  0  0
   20.2951   19.7437   23.8327 H   0  0  0  0  0  0  0  0  0  0  0  0
   19.4829   20.9439   22.8181 H   0  0  0  0  0  0  0  0  0  0  0  0
   21.3872   21.5977   23.6316 C   0  0  0  0  0  0  0  0  0  0  0  0
   21.5491   22.4014   22.9015 H   0  0  0  0  0  0  0  0  0  0  0  0
   22.3657   21.1822   23.9055 H   0  0  0  0  0  0  0  0  0  0  0  0
   20.9472   22.0453   24.5323 H   0  0  0  0  0  0  0  0  0  0  0  0
  1  2  1  0  0  0  0
  1  3  1  0  0  0  0
  1  4  1  0  0  0  0
  1  5  1  0  0  0  0
  5  6  1  0  0  0  0
  5  7  1  0  0  0  0
  5  8  1  0  0  0  0
  8  9  1  0  0  0  0
  8 10  1  0  0  0  0
  8 11  1  0  0  0  0
 11 12  1  0  0  0  0
 11 13  1  0  0  0  0
 11 14  1  0  0  0  0
 14 15  1  0  0  0  0
 14 16  1  0  0  0  0
 14 17  1  0  0  0  0
 17 18  1  0  0  0  0
 17 19  1  0  0  0  0
 17 20  1  0  0  0  0
 20 21  1  0  0  0  0
 20 22  1  0  0  0  0
 20 23  1  0  0  0  0
M  END
> <VConfSearch Rank>
953

> <Conf_Id>
93

> <Delta U+W>
2.589

> <U+W>
-5.793

> <U>
50.122

> <W>
-55.915

> <W(PB)>
-58.031

> <W(SA)>
2.115

> <Valence>
4.132

> <Coulomb>
45.536

> <VdW>
0.454

> <VdW6>
-6.262

> <VdW12>
6.715

> <Bond>
0.182

> <Angle>
1.157

> <Pdih>
2.794

> <Idih>
0.000

> <Tether>
0.000

$$$$
VeraChem MOL file


 23 22  0  0  0  0  0  0  0  0999 V2000     
   20.0702   20.4619   25.3279 N   0  3  0  0  0  0  0  0  0  0  0  0
   20.3047   21.3196   24.8178 H   0  0  0  0  0  0  0  0  0  0  0  0
   20.8668   20.2508   25.9386 H   0  0  0  0  0  0  0  0  0  0  0  0
   19.2770   20.6819   25.9388 H   0  0  0  0  0  0  0  0  0  0  0  0
   19.7595   19.3131   24.3902 C   0  0  0  0  0  0  0  0  0  0  0  0
   19.5484   18.4300   24.9992 H   0  0  0  0  0  0  0  0  0  0  0  0
   20.6556   19.1128   23.8001 H   0  0  0  0  0  0  0  0  0  0  0  0
   18.5612   19.5988   23.4638 C   0  0  0  0  0  0  0  0  0  0  0  0
   17.6848   19.8012   24.0939 H   0  0  0  0  0  0  0  0  0  0  0  0
   18.7394   20.5106   22.8785 H   0  0  0  0  0  0  0  0  0  0  0  0
   18.2266   18.4163   22.5198 C   0  0  0  0  0  0  0  0  0  0  0  0
   17.1547   18.4617   22.2823 H   0  0  0  0  0  0  0  0  0  0  0  0
   18.3742   17.4622   23.0447 H   0  0  0  0  0  0  0  0  0  0  0  0
   19.0024   18.4114   21.1768 C   0  0  0  0  0  0  0  0  0  0  0  0
   18.6301   17.5741   20.5704 H   0  0  0  0  0  0  0  0  0  0  0  0
   18.7645   19.3243   20.6134 H   0  0  0  0  0  0  0  0  0  0  0  0
   20.5365   18.2824   21.3196 C   0  0  0  0  0  0  0  0  0  0  0  0
   20.7811   17.4368   21.9774 H   0  0  0  0  0  0  0  0  0  0  0  0
   20.9461   19.1877   21.7861 H   0  0  0  0  0  0  0  0  0  0  0  0
   21.2206   18.0805   19.9506 C   0  0  0  0  0  0  0  0  0  0  0  0
   22.3091   18.0019   20.0692 H   0  0  0  0  0  0  0  0  0  0  0  0
   21.0149   18.9238   19.2786 H   0  0  0  0  0  0  0  0  0  0  0  0
   20.8682   17.1616   19.4641 H   0  0  0  0  0  0  0  0  0  0  0  0
  1  2  1  0  0  0  0
  1  3  1  0  0  0  0
  1  4  1  0  0  0  0
  1  5  1  0  0  0  0
  5  6  1  0  0  0  0
  5  7  1  0  0  0  0
  5  8  1  0  0  0  0
  8  9  1  0  0  0  0
  8 10  1  0  0  0  0
  8 11  1  0  0  0  0
 11 12  1  0  0  0  0
 11 13  1  0  0  0  0
 11 14  1  0  0  0  0
 14 15  1  0  0  0  0
 14 16  1  0  0  0  0
 14 17  1  0  0  0  0
 17 18  1  0  0  0  0
 17 19  1  0  0  0  0
 17 20  1  0  0  0  0
 20 21  1  0  0  0  0
 20 22  1  0  0  0  0
 20 23  1  0  0  0  0
M  END
> <VConfSearch Rank>
954

> <Conf_Id>
70

> <Delta U+W>
2.599

> <U+W>
-5.783

> <U>
50.122

> <W>
-55.906

> <W(PB)>
-58.010

> <W(SA)>
2.105

> <Valence>
4.132

> <Coulomb>
45.536

> <VdW>
0.454

> <VdW6>
-6.262

> <VdW12>
6.715

> <Bond>
0.182

> <Angle>
1.157

> <Pdih>
2.794

> <Idih>
0.000

> <Tether>
0.000

$$$$
VeraChem MOL file


 23 22  0  0  0  0  0  0  0  0999 V2000     
   17.9308   20.5326   24.0518 N   0  3  0  0  0  0  0  0  0  0  0  0
   17.0551   20.1679   24.4398 H   0  0  0  0  0  0  0  0  0  0  0  0
   17.8824   21.5552   24.1130 H   0  0  0  0  0  0  0  0  0  0  0  0
   18.6868   20.2290   24.6729 H   0  0  0  0  0  0  0  0  0  0  0  0
   18.1541   20.0629   22.6278 C   0  0  0  0  0  0  0  0  0  0  0  0
   19.0820   20.5116   22.2636 H   0  0  0  0  0  0  0  0  0  0  0  0
   17.3304   20.4442   22.0183 H   0  0  0  0  0  0  0  0  0  0  0  0
   18.2280   18.5291   22.4875 C   0  0  0  0  0  0  0  0  0  0  0  0
   17.2785   18.0917   22.8236 H   0  0  0  0  0  0  0  0  0  0  0  0
   18.3140   18.2745   21.4235 H   0  0  0  0  0  0  0  0  0  0  0  0
   19.3957   17.8795   23.2760 C   0  0  0  0  0  0  0  0  0  0  0  0
   19.3930   16.7975   23.0849 H   0  0  0  0  0  0  0  0  0  0  0  0
   19.2112   17.9905   24.3530 H   0  0  0  0  0  0  0  0  0  0  0  0
   20.8008   18.4475   22.9480 C   0  0  0  0  0  0  0  0  0  0  0  0
   20.8514   19.5098   23.2216 H   0  0  0  0  0  0  0  0  0  0  0  0
   21.5376   17.9364   23.5830 H   0  0  0  0  0  0  0  0  0  0  0  0
   21.2079   18.2718   21.4660 C   0  0  0  0  0  0  0  0  0  0  0  0
   20.5245   18.8345   20.8161 H   0  0  0  0  0  0  0  0  0  0  0  0
   21.1211   17.2142   21.1803 H   0  0  0  0  0  0  0  0  0  0  0  0
   22.6518   18.7541   21.2112 C   0  0  0  0  0  0  0  0  0  0  0  0
   22.9230   18.6248   20.1554 H   0  0  0  0  0  0  0  0  0  0  0  0
   23.3707   18.1857   21.8154 H   0  0  0  0  0  0  0  0  0  0  0  0
   22.7620   19.8178   21.4595 H   0  0  0  0  0  0  0  0  0  0  0  0
  1  2  1  0  0  0  0
  1  3  1  0  0  0  0
  1  4  1  0  0  0  0
  1  5  1  0  0  0  0
  5  6  1  0  0  0  0
  5  7  1  0  0  0  0
  5  8  1  0  0  0  0
  8  9  1  0  0  0  0
  8 10  1  0  0  0  0
  8 11  1  0  0  0  0
 11 12  1  0  0  0  0
 11 13  1  0  0  0  0
 11 14  1  0  0  0  0
 14 15  1  0  0  0  0
 14 16  1  0  0  0  0
 14 17  1  0  0  0  0
 17 18  1  0  0  0  0
 17 19  1  0  0  0  0
 17 20  1  0  0  0  0
 20 21  1  0  0  0  0
 20 22  1  0  0  0  0
 20 23  1  0  0  0  0
M  END
> <VConfSearch Rank>
955

> <Conf_Id>
72

> <Delta U+W>
1.051

> <U+W>
-7.331

> <U>
48.590

> <W>
-55.922

> <W(PB)>
-58.012

> <W(SA)>
2.090

> <Valence>
2.601

> <Coulomb>
45.520

> <VdW>
0.469

> <VdW6>
-6.867

> <VdW12>
7.336

> <Bond>
0.205

> <Angle>
0.962

> <Pdih>
1.434

> <Idih>
0.000

> <Tether>
0.000

$$$$
VeraChem MOL file


 23 22  0  0  0  0  0  0  0  0999 V2000     
   19.2849   17.8968   19.7043 N   0  3  0  0  0  0  0  0  0  0  0  0
   18.5024   17.3583   19.3174 H   0  0  0  0  0  0  0  0  0  0  0  0
   20.1305   17.5861   19.2151 H   0  0  0  0  0  0  0  0  0  0  0  0
   19.1296   18.8764   19.4456 H   0  0  0  0  0  0  0  0  0  0  0  0
   19.4029   17.7197   21.2044 C   0  0  0  0  0  0  0  0  0  0  0  0
   19.5376   16.6542   21.4095 H   0  0  0  0  0  0  0  0  0  0  0  0
   18.4604   18.0407   21.6557 H   0  0  0  0  0  0  0  0  0  0  0  0
   20.5698   18.5165   21.8169 C   0  0  0  0  0  0  0  0  0  0  0  0
   21.5064   18.2132   21.3305 H   0  0  0  0  0  0  0  0  0  0  0  0
   20.4425   19.5849   21.6005 H   0  0  0  0  0  0  0  0  0  0  0  0
   20.7062   18.2979   23.3442 C   0  0  0  0  0  0  0  0  0  0  0  0
   21.5657   18.8729   23.7138 H   0  0  0  0  0  0  0  0  0  0  0  0
   20.9533   17.2437   23.5309 H   0  0  0  0  0  0  0  0  0  0  0  0
   19.4433   18.6638   24.1700 C   0  0  0  0  0  0  0  0  0  0  0  0
   18.6276   17.9743   23.9142 H   0  0  0  0  0  0  0  0  0  0  0  0
   19.6564   18.4864   25.2332 H   0  0  0  0  0  0  0  0  0  0  0  0
   18.9415   20.1200   23.9973 C   0  0  0  0  0  0  0  0  0  0  0  0
   18.0430   20.2563   24.6152 H   0  0  0  0  0  0  0  0  0  0  0  0
   18.6218   20.2911   22.9606 H   0  0  0  0  0  0  0  0  0  0  0  0
   19.9892   21.1814   24.4023 C   0  0  0  0  0  0  0  0  0  0  0  0
   20.3335   21.0227   25.4324 H   0  0  0  0  0  0  0  0  0  0  0  0
   19.5583   22.1893   24.3438 H   0  0  0  0  0  0  0  0  0  0  0  0
   20.8635   21.1569   23.7401 H   0  0  0  0  0  0  0  0  0  0  0  0
  1  2  1  0  0  0  0
  1  3  1  0  0  0  0
  1  4  1  0  0  0  0
  1  5  1  0  0  0  0
  5  6  1  0  0  0  0
  5  7  1  0  0  0  0
  5  8  1  0  0  0  0
  8  9  1  0  0  0  0
  8 10  1  0  0  0  0
  8 11  1  0  0  0  0
 11 12  1  0  0  0  0
 11 13  1  0  0  0  0
 11 14  1  0  0  0  0
 14 15  1  0  0  0  0
 14 16  1  0  0  0  0
 14 17  1  0  0  0  0
 17 18  1  0  0  0  0
 17 19  1  0  0  0  0
 17 20  1  0  0  0  0
 20 21  1  0  0  0  0
 20 22  1  0  0  0  0
 20 23  1  0  0  0  0
M  END
> <VConfSearch Rank>
956

> <Conf_Id>
26

> <Delta U+W>
1.076

> <U+W>
-7.306

> <U>
48.641

> <W>
-55.947

> <W(PB)>
-58.031

> <W(SA)>
2.084

> <Valence>
2.922

> <Coulomb>
45.269

> <VdW>
0.449

> <VdW6>
-7.045

> <VdW12>
7.494

> <Bond>
0.220

> <Angle>
1.205

> <Pdih>
1.497

> <Idih>
0.000

> <Tether>
0.000

$$$$
VeraChem MOL file


 23 22  0  0  0  0  0  0  0  0999 V2000     
   17.0207   20.0245   23.5876 N   0  3  0  0  0  0  0  0  0  0  0  0
   16.5097   19.3819   24.2014 H   0  0  0  0  0  0  0  0  0  0  0  0
   16.3188   20.5879   23.0958 H   0  0  0  0  0  0  0  0  0  0  0  0
   17.5466   20.6643   24.1916 H   0  0  0  0  0  0  0  0  0  0  0  0
   17.9254   19.2850   22.6231 C   0  0  0  0  0  0  0  0  0  0  0  0
   18.4123   20.0261   21.9839 H   0  0  0  0  0  0  0  0  0  0  0  0
   17.2992   18.6462   21.9945 H   0  0  0  0  0  0  0  0  0  0  0  0
   18.9921   18.4290   23.3311 C   0  0  0  0  0  0  0  0  0  0  0  0
   19.6131   19.0672   23.9726 H   0  0  0  0  0  0  0  0  0  0  0  0
   18.4937   17.7134   23.9984 H   0  0  0  0  0  0  0  0  0  0  0  0
   19.8864   17.6465   22.3376 C   0  0  0  0  0  0  0  0  0  0  0  0
   19.2625   16.9268   21.7899 H   0  0  0  0  0  0  0  0  0  0  0  0
   20.6077   17.0419   22.9034 H   0  0  0  0  0  0  0  0  0  0  0  0
   20.6434   18.5289   21.3084 C   0  0  0  0  0  0  0  0  0  0  0  0
   21.2545   17.8763   20.6698 H   0  0  0  0  0  0  0  0  0  0  0  0
   19.9193   19.0061   20.6345 H   0  0  0  0  0  0  0  0  0  0  0  0
   21.5541   19.6230   21.9214 C   0  0  0  0  0  0  0  0  0  0  0  0
   20.9503   20.3508   22.4799 H   0  0  0  0  0  0  0  0  0  0  0  0
   22.0234   20.1868   21.1031 H   0  0  0  0  0  0  0  0  0  0  0  0
   22.6642   19.0555   22.8348 C   0  0  0  0  0  0  0  0  0  0  0  0
   22.2444   18.5756   23.7276 H   0  0  0  0  0  0  0  0  0  0  0  0
   23.3314   19.8585   23.1737 H   0  0  0  0  0  0  0  0  0  0  0  0
   23.2739   18.3151   22.3009 H   0  0  0  0  0  0  0  0  0  0  0  0
  1  2  1  0  0  0  0
  1  3  1  0  0  0  0
  1  4  1  0  0  0  0
  1  5  1  0  0  0  0
  5  6  1  0  0  0  0
  5  7  1  0  0  0  0
  5  8  1  0  0  0  0
  8  9  1  0  0  0  0
  8 10  1  0  0  0  0
  8 11  1  0  0  0  0
 11 12  1  0  0  0  0
 11 13  1  0  0  0  0
 11 14  1  0  0  0  0
 14 15  1  0  0  0  0
 14 16  1  0  0  0  0
 14 17  1  0  0  0  0
 17 18  1  0  0  0  0
 17 19  1  0  0  0  0
 17 20  1  0  0  0  0
 20 21  1  0  0  0  0
 20 22  1  0  0  0  0
 20 23  1  0  0  0  0
M  END
> <VConfSearch Rank>
957

> <Conf_Id>
90

> <Delta U+W>
1.131

> <U+W>
-7.251

> <U>
48.641

> <W>
-55.892

> <W(PB)>
-57.962

> <W(SA)>
2.070

> <Valence>
2.922

> <Coulomb>
45.269

> <VdW>
0.450

> <VdW6>
-7.045

> <VdW12>
7.495

> <Bond>
0.220

> <Angle>
1.205

> <Pdih>
1.497

> <Idih>
0.000

> <Tether>
0.000

$$$$
VeraChem MOL file


 23 22  0  0  0  0  0  0  0  0999 V2000     
   22.3701   18.6909   21.9880 N   0  3  0  0  0  0  0  0  0  0  0  0
   23.1297   19.3142   21.6941 H   0  0  0  0  0  0  0  0  0  0  0  0
   21.5984   18.8243   21.3275 H   0  0  0  0  0  0  0  0  0  0  0  0
   22.7086   17.7307   21.8699 H   0  0  0  0  0  0  0  0  0  0  0  0
   21.9378   18.9639   23.4152 C   0  0  0  0  0  0  0  0  0  0  0  0
   21.6195   20.0075   23.4792 H   0  0  0  0  0  0  0  0  0  0  0  0
   22.8129   18.8365   24.0583 H   0  0  0  0  0  0  0  0  0  0  0  0
   20.8033   18.0415   23.9062 C   0  0  0  0  0  0  0  0  0  0  0  0
   21.1507   17.0001   23.8823 H   0  0  0  0  0  0  0  0  0  0  0  0
   20.5950   18.2700   24.9599 H   0  0  0  0  0  0  0  0  0  0  0  0
   19.4934   18.1640   23.0879 C   0  0  0  0  0  0  0  0  0  0  0  0
   18.7558   17.4623   23.5010 H   0  0  0  0  0  0  0  0  0  0  0  0
   19.6759   17.8426   22.0547 H   0  0  0  0  0  0  0  0  0  0  0  0
   18.8986   19.5948   23.1055 C   0  0  0  0  0  0  0  0  0  0  0  0
   18.8033   19.9304   24.1474 H   0  0  0  0  0  0  0  0  0  0  0  0
   19.5861   20.2972   22.6157 H   0  0  0  0  0  0  0  0  0  0  0  0
   17.5096   19.6902   22.4294 C   0  0  0  0  0  0  0  0  0  0  0  0
   17.1138   20.7046   22.5781 H   0  0  0  0  0  0  0  0  0  0  0  0
   16.8054   19.0097   22.9281 H   0  0  0  0  0  0  0  0  0  0  0  0
   17.5428   19.3856   20.9144 C   0  0  0  0  0  0  0  0  0  0  0  0
   18.2597   20.0356   20.3963 H   0  0  0  0  0  0  0  0  0  0  0  0
   16.5544   19.5536   20.4674 H   0  0  0  0  0  0  0  0  0  0  0  0
   17.8194   18.3423   20.7186 H   0  0  0  0  0  0  0  0  0  0  0  0
  1  2  1  0  0  0  0
  1  3  1  0  0  0  0
  1  4  1  0  0  0  0
  1  5  1  0  0  0  0
  5  6  1  0  0  0  0
  5  7  1  0  0  0  0
  5  8  1  0  0  0  0
  8  9  1  0  0  0  0
  8 10  1  0  0  0  0
  8 11  1  0  0  0  0
 11 12  1  0  0  0  0
 11 13  1  0  0  0  0
 11 14  1  0  0  0  0
 14 15  1  0  0  0  0
 14 16  1  0  0  0  0
 14 17  1  0  0  0  0
 17 18  1  0  0  0  0
 17 19  1  0  0  0  0
 17 20  1  0  0  0  0
 20 21  1  0  0  0  0
 20 22  1  0  0  0  0
 20 23  1  0  0  0  0
M  END
> <VConfSearch Rank>
958

> <Conf_Id>
85

> <Delta U+W>
1.193

> <U+W>
-7.189

> <U>
48.775

> <W>
-55.965

> <W(PB)>
-58.038

> <W(SA)>
2.073

> <Valence>
2.602

> <Coulomb>
45.581

> <VdW>
0.592

> <VdW6>
-6.616

> <VdW12>
7.208

> <Bond>
0.196

> <Angle>
0.832

> <Pdih>
1.574

> <Idih>
0.000

> <Tether>
0.000

$$$$
VeraChem MOL file


 23 22  0  0  0  0  0  0  0  0999 V2000     
   21.6046   19.2905   23.3477 N   0  3  0  0  0  0  0  0  0  0  0  0
   21.2101   19.2107   22.4050 H   0  0  0  0  0  0  0  0  0  0  0  0
   22.4646   18.7316   23.3694 H   0  0  0  0  0  0  0  0  0  0  0  0
   21.8806   20.2686   23.4822 H   0  0  0  0  0  0  0  0  0  0  0  0
   20.6122   18.8378   24.4012 C   0  0  0  0  0  0  0  0  0  0  0  0
   21.1022   18.9532   25.3719 H   0  0  0  0  0  0  0  0  0  0  0  0
   20.4025   17.7754   24.2515 H   0  0  0  0  0  0  0  0  0  0  0  0
   19.2932   19.6370   24.4050 C   0  0  0  0  0  0  0  0  0  0  0  0
   18.8384   19.5256   25.3983 H   0  0  0  0  0  0  0  0  0  0  0  0
   19.5080   20.7081   24.2937 H   0  0  0  0  0  0  0  0  0  0  0  0
   18.2447   19.1897   23.3512 C   0  0  0  0  0  0  0  0  0  0  0  0
   17.3443   19.8008   23.5040 H   0  0  0  0  0  0  0  0  0  0  0  0
   17.9333   18.1544   23.5479 H   0  0  0  0  0  0  0  0  0  0  0  0
   18.6836   19.3434   21.8723 C   0  0  0  0  0  0  0  0  0  0  0  0
   17.8082   19.6396   21.2776 H   0  0  0  0  0  0  0  0  0  0  0  0
   19.4005   20.1692   21.7735 H   0  0  0  0  0  0  0  0  0  0  0  0
   19.2498   18.0364   21.2655 C   0  0  0  0  0  0  0  0  0  0  0  0
   18.4530   17.2803   21.2269 H   0  0  0  0  0  0  0  0  0  0  0  0
   20.0364   17.6135   21.9016 H   0  0  0  0  0  0  0  0  0  0  0  0
   19.8045   18.2612   19.8430 C   0  0  0  0  0  0  0  0  0  0  0  0
   19.0219   18.6349   19.1698 H   0  0  0  0  0  0  0  0  0  0  0  0
   20.1875   17.3217   19.4236 H   0  0  0  0  0  0  0  0  0  0  0  0
   20.6268   18.9882   19.8461 H   0  0  0  0  0  0  0  0  0  0  0  0
  1  2  1  0  0  0  0
  1  3  1  0  0  0  0
  1  4  1  0  0  0  0
  1  5  1  0  0  0  0
  5  6  1  0  0  0  0
  5  7  1  0  0  0  0
  5  8  1  0  0  0  0
  8  9  1  0  0  0  0
  8 10  1  0  0  0  0
  8 11  1  0  0  0  0
 11 12  1  0  0  0  0
 11 13  1  0  0  0  0
 11 14  1  0  0  0  0
 14 15  1  0  0  0  0
 14 16  1  0  0  0  0
 14 17  1  0  0  0  0
 17 18  1  0  0  0  0
 17 19  1  0  0  0  0
 17 20  1  0  0  0  0
 20 21  1  0  0  0  0
 20 22  1  0  0  0  0
 20 23  1  0  0  0  0
M  END
> <VConfSearch Rank>
959

> <Conf_Id>
82

> <Delta U+W>
5.994

> <U+W>
-2.388

> <U>
52.836

> <W>
-55.224

> <W(PB)>
-57.261

> <W(SA)>
2.037

> <Valence>
5.785

> <Coulomb>
46.744

> <VdW>
0.307

> <VdW6>
-7.672

> <VdW12>
7.979

> <Bond>
0.217

> <Angle>
1.470

> <Pdih>
4.098

> <Idih>
0.000

> <Tether>
0.000

$$$$
VeraChem MOL file


 23 22  0  0  0  0  0  0  0  0999 V2000     
   20.6159   20.6609   21.6038 N   0  3  0  0  0  0  0  0  0  0  0  0
   20.1644   20.9494   20.7298 H   0  0  0  0  0  0  0  0  0  0  0  0
   21.1531   21.4665   21.9427 H   0  0  0  0  0  0  0  0  0  0  0  0
   19.8732   20.4779   22.2861 H   0  0  0  0  0  0  0  0  0  0  0  0
   21.4951   19.4414   21.4048 C   0  0  0  0  0  0  0  0  0  0  0  0
   22.0010   19.2166   22.3476 H   0  0  0  0  0  0  0  0  0  0  0  0
   22.2560   19.7131   20.6681 H   0  0  0  0  0  0  0  0  0  0  0  0
   20.7353   18.1948   20.9074 C   0  0  0  0  0  0  0  0  0  0  0  0
   20.0277   18.4819   20.1183 H   0  0  0  0  0  0  0  0  0  0  0  0
   21.4646   17.5295   20.4265 H   0  0  0  0  0  0  0  0  0  0  0  0
   20.0057   17.3804   22.0094 C   0  0  0  0  0  0  0  0  0  0  0  0
   20.7362   16.9823   22.7272 H   0  0  0  0  0  0  0  0  0  0  0  0
   19.5598   16.5000   21.5260 H   0  0  0  0  0  0  0  0  0  0  0  0
   18.8796   18.1383   22.7582 C   0  0  0  0  0  0  0  0  0  0  0  0
   18.4351   18.8999   22.1039 H   0  0  0  0  0  0  0  0  0  0  0  0
   18.0693   17.4296   22.9793 H   0  0  0  0  0  0  0  0  0  0  0  0
   19.3479   18.7572   24.0979 C   0  0  0  0  0  0  0  0  0  0  0  0
   20.2506   19.3639   23.9590 H   0  0  0  0  0  0  0  0  0  0  0  0
   19.6288   17.9512   24.7904 H   0  0  0  0  0  0  0  0  0  0  0  0
   18.2436   19.6195   24.7451 C   0  0  0  0  0  0  0  0  0  0  0  0
   17.9592   20.4567   24.0948 H   0  0  0  0  0  0  0  0  0  0  0  0
   18.5880   20.0371   25.7002 H   0  0  0  0  0  0  0  0  0  0  0  0
   17.3442   19.0223   24.9447 H   0  0  0  0  0  0  0  0  0  0  0  0
  1  2  1  0  0  0  0
  1  3  1  0  0  0  0
  1  4  1  0  0  0  0
  1  5  1  0  0  0  0
  5  6  1  0  0  0  0
  5  7  1  0  0  0  0
  5  8  1  0  0  0  0
  8  9  1  0  0  0  0
  8 10  1  0  0  0  0
  8 11  1  0  0  0  0
 11 12  1  0  0  0  0
 11 13  1  0  0  0  0
 11 14  1  0  0  0  0
 14 15  1  0  0  0  0
 14 16  1  0  0  0  0
 14 17  1  0  0  0  0
 17 18  1  0  0  0  0
 17 19  1  0  0  0  0
 17 20  1  0  0  0  0
 20 21  1  0  0  0  0
 20 22  1  0  0  0  0
 20 23  1  0  0  0  0
M  END
> <VConfSearch Rank>
960

> <Conf_Id>
5

> <Delta U+W>
6.087

> <U+W>
-2.295

> <U>
52.836

> <W>
-55.131

> <W(PB)>
-57.202

> <W(SA)>
2.071

> <Valence>
5.785

> <Coulomb>
46.744

> <VdW>
0.307

> <VdW6>
-7.672

> <VdW12>
7.980

> <Bond>
0.217

> <Angle>
1.470

> <Pdih>
4.098

> <Idih>
0.000

> <Tether>
0.000

$$$$
VeraChem MOL file


 23 22  0  0  0  0  0  0  0  0999 V2000     
   18.1198   19.7858   25.9829 N   0  3  0  0  0  0  0  0  0  0  0  0
   17.3140   20.2932   25.6032 H   0  0  0  0  0  0  0  0  0  0  0  0
   18.3457   20.2181   26.8852 H   0  0  0  0  0  0  0  0  0  0  0  0
   17.8081   18.8295   26.1807 H   0  0  0  0  0  0  0  0  0  0  0  0
   19.3018   19.8110   25.0352 C   0  0  0  0  0  0  0  0  0  0  0  0
   20.1294   19.2805   25.5138 H   0  0  0  0  0  0  0  0  0  0  0  0
   19.5983   20.8537   24.8931 H   0  0  0  0  0  0  0  0  0  0  0  0
   18.9952   19.1690   23.6705 C   0  0  0  0  0  0  0  0  0  0  0  0
   18.6822   18.1269   23.8194 H   0  0  0  0  0  0  0  0  0  0  0  0
   18.1529   19.6946   23.2009 H   0  0  0  0  0  0  0  0  0  0  0  0
   20.2237   19.2148   22.7352 C   0  0  0  0  0  0  0  0  0  0  0  0
   21.0657   18.6926   23.2108 H   0  0  0  0  0  0  0  0  0  0  0  0
   20.5369   20.2586   22.5930 H   0  0  0  0  0  0  0  0  0  0  0  0
   19.9269   18.5724   21.3611 C   0  0  0  0  0  0  0  0  0  0  0  0
   19.6139   17.5287   21.5031 H   0  0  0  0  0  0  0  0  0  0  0  0
   19.0851   19.0945   20.8853 H   0  0  0  0  0  0  0  0  0  0  0  0
   21.1557   18.6185   20.4259 C   0  0  0  0  0  0  0  0  0  0  0  0
   22.0001   18.0954   20.8964 H   0  0  0  0  0  0  0  0  0  0  0  0
   21.4713   19.6610   20.2787 H   0  0  0  0  0  0  0  0  0  0  0  0
   20.8555   17.9762   19.0548 C   0  0  0  0  0  0  0  0  0  0  0  0
   21.7394   18.0184   18.4051 H   0  0  0  0  0  0  0  0  0  0  0  0
   20.0369   18.5000   18.5442 H   0  0  0  0  0  0  0  0  0  0  0  0
   20.5698   16.9221   19.1667 H   0  0  0  0  0  0  0  0  0  0  0  0
  1  2  1  0  0  0  0
  1  3  1  0  0  0  0
  1  4  1  0  0  0  0
  1  5  1  0  0  0  0
  5  6  1  0  0  0  0
  5  7  1  0  0  0  0
  5  8  1  0  0  0  0
  8  9  1  0  0  0  0
  8 10  1  0  0  0  0
  8 11  1  0  0  0  0
 11 12  1  0  0  0  0
 11 13  1  0  0  0  0
 11 14  1  0  0  0  0
 14 15  1  0  0  0  0
 14 16  1  0  0  0  0
 14 17  1  0  0  0  0
 17 18  1  0  0  0  0
 17 19  1  0  0  0  0
 17 20  1  0  0  0  0
 20 21  1  0  0  0  0
 20 22  1  0  0  0  0
 20 23  1  0  0  0  0
M  END
> <VConfSearch Rank>
961

> <Conf_Id>
40

> <Delta U+W>
0.000

> <U+W>
-8.382

> <U>
46.604

> <W>
-54.986

> <W(PB)>
-57.162

> <W(SA)>
2.176

> <Valence>
1.727

> <Coulomb>
44.434

> <VdW>
0.443

> <VdW6>
-4.623

> <VdW12>
5.066

> <Bond>
0.112

> <Angle>
0.386

> <Pdih>
1.228

> <Idih>
0.000

> <Tether>
0.000

$$$$
VeraChem MOL file


 23 22  0  0  0  0  0  0  0  0999 V2000     
   18.1760   17.4925   25.4253 N   0  3  0  0  0  0  0  0  0  0  0  0
   17.6384   16.6716   25.1289 H   0  0  0  0  0  0  0  0  0  0  0  0
   17.5026   18.2428   25.6112 H   0  0  0  0  0  0  0  0  0  0  0  0
   18.6124   17.2547   26.3226 H   0  0  0  0  0  0  0  0  0  0  0  0
   19.2042   17.8994   24.3894 C   0  0  0  0  0  0  0  0  0  0  0  0
   19.9027   17.0679   24.2626 H   0  0  0  0  0  0  0  0  0  0  0  0
   19.7564   18.7558   24.7844 H   0  0  0  0  0  0  0  0  0  0  0  0
   18.5790   18.2627   23.0292 C   0  0  0  0  0  0  0  0  0  0  0  0
   17.9888   17.4100   22.6680 H   0  0  0  0  0  0  0  0  0  0  0  0
   17.8781   19.0986   23.1557 H   0  0  0  0  0  0  0  0  0  0  0  0
   19.6366   18.6280   21.9607 C   0  0  0  0  0  0  0  0  0  0  0  0
   19.1223   18.7604   21.0000 H   0  0  0  0  0  0  0  0  0  0  0  0
   20.3305   17.7862   21.8293 H   0  0  0  0  0  0  0  0  0  0  0  0
   20.4316   19.9129   22.3063 C   0  0  0  0  0  0  0  0  0  0  0  0
   19.7390   20.7587   22.4170 H   0  0  0  0  0  0  0  0  0  0  0  0
   20.9257   19.7889   23.2789 H   0  0  0  0  0  0  0  0  0  0  0  0
   21.5149   20.2673   21.2587 C   0  0  0  0  0  0  0  0  0  0  0  0
   22.2170   19.4286   21.1513 H   0  0  0  0  0  0  0  0  0  0  0  0
   22.1046   21.1148   21.6354 H   0  0  0  0  0  0  0  0  0  0  0  0
   20.9361   20.6418   19.8751 C   0  0  0  0  0  0  0  0  0  0  0  0
   20.4430   19.7859   19.3982 H   0  0  0  0  0  0  0  0  0  0  0  0
   21.7362   20.9771   19.2025 H   0  0  0  0  0  0  0  0  0  0  0  0
   20.2059   21.4570   19.9599 H   0  0  0  0  0  0  0  0  0  0  0  0
  1  2  1  0  0  0  0
  1  3  1  0  0  0  0
  1  4  1  0  0  0  0
  1  5  1  0  0  0  0
  5  6  1  0  0  0  0
  5  7  1  0  0  0  0
  5  8  1  0  0  0  0
  8  9  1  0  0  0  0
  8 10  1  0  0  0  0
  8 11  1  0  0  0  0
 11 12  1  0  0  0  0
 11 13  1  0  0  0  0
 11 14  1  0  0  0  0
 14 15  1  0  0  0  0
 14 16  1  0  0  0  0
 14 17  1  0  0  0  0
 17 18  1  0  0  0  0
 17 19  1  0  0  0  0
 17 20  1  0  0  0  0
 20 21  1  0  0  0  0
 20 22  1  0  0  0  0
 20 23  1  0  0  0  0
M  END
> <VConfSearch Rank>
962

> <Conf_Id>
65

> <Delta U+W>
1.004

> <U+W>
-7.378

> <U>
48.047

> <W>
-55.425

> <W(PB)>
-57.542

> <W(SA)>
2.116

> <Valence>
2.583

> <Coulomb>
44.791

> <VdW>
0.673

> <VdW6>
-5.788

> <VdW12>
6.462

> <Bond>
0.177

> <Angle>
0.787

> <Pdih>
1.619

> <Idih>
0.000

> <Tether>
0.000

$$$$
VeraChem MOL file


 23 22  0  0  0  0  0  0  0  0999 V2000     
   19.8109   15.5740   21.6661 N   0  3  0  0  0  0  0  0  0  0  0  0
   19.1547   15.4071   20.8965 H   0  0  0  0  0  0  0  0  0  0  0  0
   19.7469   14.7646   22.2929 H   0  0  0  0  0  0  0  0  0  0  0  0
   20.7542   15.5665   21.2651 H   0  0  0  0  0  0  0  0  0  0  0  0
   19.5147   16.8716   22.3903 C   0  0  0  0  0  0  0  0  0  0  0  0
   20.2293   16.9672   23.2117 H   0  0  0  0  0  0  0  0  0  0  0  0
   18.5097   16.7994   22.8148 H   0  0  0  0  0  0  0  0  0  0  0  0
   19.6026   18.1072   21.4745 C   0  0  0  0  0  0  0  0  0  0  0  0
   20.6122   18.1809   21.0487 H   0  0  0  0  0  0  0  0  0  0  0  0
   18.9142   17.9752   20.6292 H   0  0  0  0  0  0  0  0  0  0  0  0
   19.2496   19.4236   22.2067 C   0  0  0  0  0  0  0  0  0  0  0  0
   18.2354   19.3506   22.6231 H   0  0  0  0  0  0  0  0  0  0  0  0
   19.2243   20.2326   21.4652 H   0  0  0  0  0  0  0  0  0  0  0  0
   20.2534   19.7814   23.3324 C   0  0  0  0  0  0  0  0  0  0  0  0
   20.2965   18.9609   24.0607 H   0  0  0  0  0  0  0  0  0  0  0  0
   21.2641   19.8747   22.9117 H   0  0  0  0  0  0  0  0  0  0  0  0
   19.8892   21.0800   24.0924 C   0  0  0  0  0  0  0  0  0  0  0  0
   20.5780   21.1958   24.9409 H   0  0  0  0  0  0  0  0  0  0  0  0
   18.8829   20.9883   24.5244 H   0  0  0  0  0  0  0  0  0  0  0  0
   19.9651   22.3503   23.2149 C   0  0  0  0  0  0  0  0  0  0  0  0
   19.2059   22.3405   22.4233 H   0  0  0  0  0  0  0  0  0  0  0  0
   20.9522   22.4472   22.7446 H   0  0  0  0  0  0  0  0  0  0  0  0
   19.7941   23.2478   23.8234 H   0  0  0  0  0  0  0  0  0  0  0  0
  1  2  1  0  0  0  0
  1  3  1  0  0  0  0
  1  4  1  0  0  0  0
  1  5  1  0  0  0  0
  5  6  1  0  0  0  0
  5  7  1  0  0  0  0
  5  8  1  0  0  0  0
  8  9  1  0  0  0  0
  8 10  1  0  0  0  0
  8 11  1  0  0  0  0
 11 12  1  0  0  0  0
 11 13  1  0  0  0  0
 11 14  1  0  0  0  0
 14 15  1  0  0  0  0
 14 16  1  0  0  0  0
 14 17  1  0  0  0  0
 17 18  1  0  0  0  0
 17 19  1  0  0  0  0
 17 20  1  0  0  0  0
 20 21  1  0  0  0  0
 20 22  1  0  0  0  0
 20 23  1  0  0  0  0
M  END
> <VConfSearch Rank>
963

> <Conf_Id>
92

> <Delta U+W>
0.973

> <U+W>
-7.409

> <U>
48.047

> <W>
-55.456

> <W(PB)>
-57.595

> <W(SA)>
2.138

> <Valence>
2.583

> <Coulomb>
44.791

> <VdW>
0.674

> <VdW6>
-5.789

> <VdW12>
6.462

> <Bond>
0.177

> <Angle>
0.787

> <Pdih>
1.619

> <Idih>
0.000

> <Tether>
0.000

$$$$
VeraChem MOL file


 23 22  0  0  0  0  0  0  0  0999 V2000     
   20.6768   15.7838   21.3900 N   0  3  0  0  0  0  0  0  0  0  0  0
   21.6479   15.5753   21.1340 H   0  0  0  0  0  0  0  0  0  0  0  0
   20.0832   15.3851   20.6555 H   0  0  0  0  0  0  0  0  0  0  0  0
   20.4783   15.2661   22.2522 H   0  0  0  0  0  0  0  0  0  0  0  0
   20.4459   17.2718   21.5580 C   0  0  0  0  0  0  0  0  0  0  0  0
   20.7029   17.7619   20.6150 H   0  0  0  0  0  0  0  0  0  0  0  0
   21.1298   17.6320   22.3308 H   0  0  0  0  0  0  0  0  0  0  0  0
   18.9949   17.6176   21.9428 C   0  0  0  0  0  0  0  0  0  0  0  0
   18.3155   17.2118   21.1815 H   0  0  0  0  0  0  0  0  0  0  0  0
   18.7365   17.1247   22.8895 H   0  0  0  0  0  0  0  0  0  0  0  0
   18.7561   19.1409   22.0677 C   0  0  0  0  0  0  0  0  0  0  0  0
   17.6869   19.3159   22.2508 H   0  0  0  0  0  0  0  0  0  0  0  0
   18.9911   19.6282   21.1112 H   0  0  0  0  0  0  0  0  0  0  0  0
   19.5802   19.7946   23.2032 C   0  0  0  0  0  0  0  0  0  0  0  0
   19.3676   19.2833   24.1523 H   0  0  0  0  0  0  0  0  0  0  0  0
   20.6536   19.6699   23.0079 H   0  0  0  0  0  0  0  0  0  0  0  0
   19.2637   21.2997   23.3484 C   0  0  0  0  0  0  0  0  0  0  0  0
   18.1924   21.4362   23.5526 H   0  0  0  0  0  0  0  0  0  0  0  0
   19.4739   21.8161   22.4012 H   0  0  0  0  0  0  0  0  0  0  0  0
   20.0870   21.9509   24.4801 C   0  0  0  0  0  0  0  0  0  0  0  0
   19.8727   21.4771   25.4470 H   0  0  0  0  0  0  0  0  0  0  0  0
   19.8483   23.0187   24.5680 H   0  0  0  0  0  0  0  0  0  0  0  0
   21.1640   21.8613   24.2867 H   0  0  0  0  0  0  0  0  0  0  0  0
  1  2  1  0  0  0  0
  1  3  1  0  0  0  0
  1  4  1  0  0  0  0
  1  5  1  0  0  0  0
  5  6  1  0  0  0  0
  5  7  1  0  0  0  0
  5  8  1  0  0  0  0
  8  9  1  0  0  0  0
  8 10  1  0  0  0  0
  8 11  1  0  0  0  0
 11 12  1  0  0  0  0
 11 13  1  0  0  0  0
 11 14  1  0  0  0  0
 14 15  1  0  0  0  0
 14 16  1  0  0  0  0
 14 17  1  0  0  0  0
 17 18  1  0  0  0  0
 17 19  1  0  0  0  0
 17 20  1  0  0  0  0
 20 21  1  0  0  0  0
 20 22  1  0  0  0  0
 20 23  1  0  0  0  0
M  END
> <VConfSearch Rank>
964

> <Conf_Id>
42

> <Delta U+W>
0.365

> <U+W>
-8.017

> <U>
47.375

> <W>
-55.392

> <W(PB)>
-57.543

> <W(SA)>
2.152

> <Valence>
2.032

> <Coulomb>
44.843

> <VdW>
0.499

> <VdW6>
-5.218

> <VdW12>
5.717

> <Bond>
0.135

> <Angle>
0.514

> <Pdih>
1.383

> <Idih>
0.000

> <Tether>
0.000

$$$$
VeraChem MOL file


 23 22  0  0  0  0  0  0  0  0999 V2000     
   16.9246   17.6144   22.1838 N   0  3  0  0  0  0  0  0  0  0  0  0
   16.4390   18.5115   22.0834 H   0  0  0  0  0  0  0  0  0  0  0  0
   16.2065   16.9044   22.3633 H   0  0  0  0  0  0  0  0  0  0  0  0
   17.3431   17.3932   21.2753 H   0  0  0  0  0  0  0  0  0  0  0  0
   17.9631   17.6558   23.2881 C   0  0  0  0  0  0  0  0  0  0  0  0
   18.4246   16.6671   23.3585 H   0  0  0  0  0  0  0  0  0  0  0  0
   17.4387   17.8542   24.2268 H   0  0  0  0  0  0  0  0  0  0  0  0
   19.0540   18.7241   23.0785 C   0  0  0  0  0  0  0  0  0  0  0  0
   18.5862   19.7127   22.9805 H   0  0  0  0  0  0  0  0  0  0  0  0
   19.6742   18.7514   23.9828 H   0  0  0  0  0  0  0  0  0  0  0  0
   19.9490   18.4326   21.8494 C   0  0  0  0  0  0  0  0  0  0  0  0
   19.3178   18.3018   20.9607 H   0  0  0  0  0  0  0  0  0  0  0  0
   20.4701   17.4766   21.9974 H   0  0  0  0  0  0  0  0  0  0  0  0
   20.9872   19.5415   21.5370 C   0  0  0  0  0  0  0  0  0  0  0  0
   21.5253   19.2427   20.6268 H   0  0  0  0  0  0  0  0  0  0  0  0
   20.4735   20.4786   21.2815 H   0  0  0  0  0  0  0  0  0  0  0  0
   22.0327   19.7905   22.6547 C   0  0  0  0  0  0  0  0  0  0  0  0
   22.9970   20.0301   22.1849 H   0  0  0  0  0  0  0  0  0  0  0  0
   22.1997   18.8717   23.2339 H   0  0  0  0  0  0  0  0  0  0  0  0
   21.6585   20.9596   23.5958 C   0  0  0  0  0  0  0  0  0  0  0  0
   21.5638   21.8985   23.0350 H   0  0  0  0  0  0  0  0  0  0  0  0
   22.4364   21.1040   24.3567 H   0  0  0  0  0  0  0  0  0  0  0  0
   20.7120   20.7827   24.1182 H   0  0  0  0  0  0  0  0  0  0  0  0
  1  2  1  0  0  0  0
  1  3  1  0  0  0  0
  1  4  1  0  0  0  0
  1  5  1  0  0  0  0
  5  6  1  0  0  0  0
  5  7  1  0  0  0  0
  5  8  1  0  0  0  0
  8  9  1  0  0  0  0
  8 10  1  0  0  0  0
  8 11  1  0  0  0  0
 11 12  1  0  0  0  0
 11 13  1  0  0  0  0
 11 14  1  0  0  0  0
 14 15  1  0  0  0  0
 14 16  1  0  0  0  0
 14 17  1  0  0  0  0
 17 18  1  0  0  0  0
 17 19  1  0  0  0  0
 17 20  1  0  0  0  0
 20 21  1  0  0  0  0
 20 22  1  0  0  0  0
 20 23  1  0  0  0  0
M  END
> <VConfSearch Rank>
965

> <Conf_Id>
3

> <Delta U+W>
3.283

> <U+W>
-5.099

> <U>
50.701

> <W>
-55.800

> <W(PB)>
-57.867

> <W(SA)>
2.067

> <Valence>
4.880

> <Coulomb>
45.095

> <VdW>
0.726

> <VdW6>
-6.620

> <VdW12>
7.346

> <Bond>
0.222

> <Angle>
1.260

> <Pdih>
3.398

> <Idih>
0.000

> <Tether>
0.000

$$$$
VeraChem MOL file


 23 22  0  0  0  0  0  0  0  0999 V2000     
   18.8922   17.2556   20.4927 N   0  3  0  0  0  0  0  0  0  0  0  0
   18.0104   16.7825   20.7145 H   0  0  0  0  0  0  0  0  0  0  0  0
   19.1622   16.9582   19.5490 H   0  0  0  0  0  0  0  0  0  0  0  0
   18.6945   18.2598   20.4467 H   0  0  0  0  0  0  0  0  0  0  0  0
   19.9704   16.9437   21.5118 C   0  0  0  0  0  0  0  0  0  0  0  0
   20.8874   17.4509   21.2014 H   0  0  0  0  0  0  0  0  0  0  0  0
   20.1537   15.8661   21.4828 H   0  0  0  0  0  0  0  0  0  0  0  0
   19.6030   17.3609   22.9506 C   0  0  0  0  0  0  0  0  0  0  0  0
   18.7104   16.8053   23.2672 H   0  0  0  0  0  0  0  0  0  0  0  0
   20.4117   17.0494   23.6251 H   0  0  0  0  0  0  0  0  0  0  0  0
   19.3485   18.8794   23.1261 C   0  0  0  0  0  0  0  0  0  0  0  0
   19.0569   19.0567   24.1694 H   0  0  0  0  0  0  0  0  0  0  0  0
   18.4918   19.1885   22.5127 H   0  0  0  0  0  0  0  0  0  0  0  0
   20.5836   19.7491   22.7787 C   0  0  0  0  0  0  0  0  0  0  0  0
   21.4321   19.4573   23.4127 H   0  0  0  0  0  0  0  0  0  0  0  0
   20.8909   19.5546   21.7428 H   0  0  0  0  0  0  0  0  0  0  0  0
   20.3280   21.2688   22.9262 C   0  0  0  0  0  0  0  0  0  0  0  0
   19.4869   21.5687   22.2857 H   0  0  0  0  0  0  0  0  0  0  0  0
   21.2074   21.8112   22.5516 H   0  0  0  0  0  0  0  0  0  0  0  0
   20.0563   21.7103   24.3824 C   0  0  0  0  0  0  0  0  0  0  0  0
   20.8681   21.3926   25.0495 H   0  0  0  0  0  0  0  0  0  0  0  0
   19.1154   21.2934   24.7622 H   0  0  0  0  0  0  0  0  0  0  0  0
   19.9801   22.8036   24.4441 H   0  0  0  0  0  0  0  0  0  0  0  0
  1  2  1  0  0  0  0
  1  3  1  0  0  0  0
  1  4  1  0  0  0  0
  1  5  1  0  0  0  0
  5  6  1  0  0  0  0
  5  7  1  0  0  0  0
  5  8  1  0  0  0  0
  8  9  1  0  0  0  0
  8 10  1  0  0  0  0
  8 11  1  0  0  0  0
 11 12  1  0  0  0  0
 11 13  1  0  0  0  0
 11 14  1  0  0  0  0
 14 15  1  0  0  0  0
 14 16  1  0  0  0  0
 14 17  1  0  0  0  0
 17 18  1  0  0  0  0
 17 19  1  0  0  0  0
 17 20  1  0  0  0  0
 20 21  1  0  0  0  0
 20 22  1  0  0  0  0
 20 23  1  0  0  0  0
M  END
> <VConfSearch Rank>
966

> <Conf_Id>
83

> <Delta U+W>
1.229

> <U+W>
-7.154

> <U>
48.727

> <W>
-55.880

> <W(PB)>
-57.960

> <W(SA)>
2.080

> <Valence>
2.671

> <Coulomb>
45.371

> <VdW>
0.684

> <VdW6>
-6.511

> <VdW12>
7.195

> <Bond>
0.203

> <Angle>
0.915

> <Pdih>
1.554

> <Idih>
0.000

> <Tether>
0.000

$$$$
VeraChem MOL file


 23 22  0  0  0  0  0  0  0  0999 V2000     
   21.8469   20.0240   24.2870 N   0  3  0  0  0  0  0  0  0  0  0  0
   22.1464   20.9765   24.0554 H   0  0  0  0  0  0  0  0  0  0  0  0
   22.0507   19.4358   23.4733 H   0  0  0  0  0  0  0  0  0  0  0  0
   22.4480   19.6989   25.0517 H   0  0  0  0  0  0  0  0  0  0  0  0
   20.3791   19.9708   24.6623 C   0  0  0  0  0  0  0  0  0  0  0  0
   20.2410   20.5894   25.5532 H   0  0  0  0  0  0  0  0  0  0  0  0
   20.1336   18.9390   24.9260 H   0  0  0  0  0  0  0  0  0  0  0  0
   19.4354   20.4642   23.5464 C   0  0  0  0  0  0  0  0  0  0  0  0
   18.4038   20.4428   23.9223 H   0  0  0  0  0  0  0  0  0  0  0  0
   19.6590   21.5169   23.3282 H   0  0  0  0  0  0  0  0  0  0  0  0
   19.5179   19.6421   22.2353 C   0  0  0  0  0  0  0  0  0  0  0  0
   20.5269   19.7182   21.8089 H   0  0  0  0  0  0  0  0  0  0  0  0
   18.8414   20.1016   21.5030 H   0  0  0  0  0  0  0  0  0  0  0  0
   19.1398   18.1510   22.4253 C   0  0  0  0  0  0  0  0  0  0  0  0
   19.8003   17.6967   23.1755 H   0  0  0  0  0  0  0  0  0  0  0  0
   18.1195   18.0759   22.8260 H   0  0  0  0  0  0  0  0  0  0  0  0
   19.2460   17.3179   21.1249 C   0  0  0  0  0  0  0  0  0  0  0  0
   19.0768   16.2601   21.3702 H   0  0  0  0  0  0  0  0  0  0  0  0
   20.2678   17.3806   20.7252 H   0  0  0  0  0  0  0  0  0  0  0  0
   18.2344   17.7424   20.0359 C   0  0  0  0  0  0  0  0  0  0  0  0
   17.2067   17.7201   20.4212 H   0  0  0  0  0  0  0  0  0  0  0  0
   18.2855   17.0600   19.1777 H   0  0  0  0  0  0  0  0  0  0  0  0
   18.4411   18.7536   19.6645 H   0  0  0  0  0  0  0  0  0  0  0  0
  1  2  1  0  0  0  0
  1  3  1  0  0  0  0
  1  4  1  0  0  0  0
  1  5  1  0  0  0  0
  5  6  1  0  0  0  0
  5  7  1  0  0  0  0
  5  8  1  0  0  0  0
  8  9  1  0  0  0  0
  8 10  1  0  0  0  0
  8 11  1  0  0  0  0
 11 12  1  0  0  0  0
 11 13  1  0  0  0  0
 11 14  1  0  0  0  0
 14 15  1  0  0  0  0
 14 16  1  0  0  0  0
 14 17  1  0  0  0  0
 17 18  1  0  0  0  0
 17 19  1  0  0  0  0
 17 20  1  0  0  0  0
 20 21  1  0  0  0  0
 20 22  1  0  0  0  0
 20 23  1  0  0  0  0
M  END
> <VConfSearch Rank>
967

> <Conf_Id>
50

> <Delta U+W>
1.252

> <U+W>
-7.130

> <U>
48.727

> <W>
-55.857

> <W(PB)>
-57.937

> <W(SA)>
2.080

> <Valence>
2.671

> <Coulomb>
45.371

> <VdW>
0.684

> <VdW6>
-6.511

> <VdW12>
7.196

> <Bond>
0.203

> <Angle>
0.915

> <Pdih>
1.554

> <Idih>
0.000

> <Tether>
0.000

$$$$
VeraChem MOL file


 23 22  0  0  0  0  0  0  0  0999 V2000     
   18.7194   21.7319   23.9631 N   0  3  0  0  0  0  0  0  0  0  0  0
   17.8872   21.3715   23.4866 H   0  0  0  0  0  0  0  0  0  0  0  0
   18.6735   22.7553   23.9134 H   0  0  0  0  0  0  0  0  0  0  0  0
   18.6366   21.4769   24.9524 H   0  0  0  0  0  0  0  0  0  0  0  0
   19.9970   21.1953   23.3475 C   0  0  0  0  0  0  0  0  0  0  0  0
   20.8373   21.6522   23.8773 H   0  0  0  0  0  0  0  0  0  0  0  0
   20.0343   21.5215   22.3046 H   0  0  0  0  0  0  0  0  0  0  0  0
   20.1242   19.6610   23.4155 C   0  0  0  0  0  0  0  0  0  0  0  0
   21.1190   19.3831   23.0496 H   0  0  0  0  0  0  0  0  0  0  0  0
   20.0811   19.3381   24.4641 H   0  0  0  0  0  0  0  0  0  0  0  0
   19.0282   18.9340   22.5952 C   0  0  0  0  0  0  0  0  0  0  0  0
   19.0009   19.3199   21.5667 H   0  0  0  0  0  0  0  0  0  0  0  0
   18.0498   19.1695   23.0349 H   0  0  0  0  0  0  0  0  0  0  0  0
   19.1926   17.3917   22.5798 C   0  0  0  0  0  0  0  0  0  0  0  0
   19.6812   17.0506   23.5030 H   0  0  0  0  0  0  0  0  0  0  0  0
   18.1907   16.9405   22.5918 H   0  0  0  0  0  0  0  0  0  0  0  0
   19.9403   16.8318   21.3426 C   0  0  0  0  0  0  0  0  0  0  0  0
   19.3874   17.0923   20.4292 H   0  0  0  0  0  0  0  0  0  0  0  0
   19.9339   15.7343   21.3988 H   0  0  0  0  0  0  0  0  0  0  0  0
   21.4021   17.3120   21.2106 C   0  0  0  0  0  0  0  0  0  0  0  0
   21.9675   17.1185   22.1314 H   0  0  0  0  0  0  0  0  0  0  0  0
   21.4508   18.3850   20.9884 H   0  0  0  0  0  0  0  0  0  0  0  0
   21.9062   16.7847   20.3904 H   0  0  0  0  0  0  0  0  0  0  0  0
  1  2  1  0  0  0  0
  1  3  1  0  0  0  0
  1  4  1  0  0  0  0
  1  5  1  0  0  0  0
  5  6  1  0  0  0  0
  5  7  1  0  0  0  0
  5  8  1  0  0  0  0
  8  9  1  0  0  0  0
  8 10  1  0  0  0  0
  8 11  1  0  0  0  0
 11 12  1  0  0  0  0
 11 13  1  0  0  0  0
 11 14  1  0  0  0  0
 14 15  1  0  0  0  0
 14 16  1  0  0  0  0
 14 17  1  0  0  0  0
 17 18  1  0  0  0  0
 17 19  1  0  0  0  0
 17 20  1  0  0  0  0
 20 21  1  0  0  0  0
 20 22  1  0  0  0  0
 20 23  1  0  0  0  0
M  END
> <VConfSearch Rank>
968

> <Conf_Id>
55

> <Delta U+W>
3.232

> <U+W>
-5.150

> <U>
50.625

> <W>
-55.776

> <W(PB)>
-57.839

> <W(SA)>
2.064

> <Valence>
4.837

> <Coulomb>
45.097

> <VdW>
0.692

> <VdW6>
-6.655

> <VdW12>
7.347

> <Bond>
0.223

> <Angle>
1.167

> <Pdih>
3.447

> <Idih>
0.000

> <Tether>
0.000

$$$$
VeraChem MOL file


 23 22  0  0  0  0  0  0  0  0999 V2000     
   18.9078   20.2244   19.8615 N   0  3  0  0  0  0  0  0  0  0  0  0
   19.5596   20.6760   19.2118 H   0  0  0  0  0  0  0  0  0  0  0  0
   18.0177   20.7288   19.7887 H   0  0  0  0  0  0  0  0  0  0  0  0
   18.7423   19.2754   19.5112 H   0  0  0  0  0  0  0  0  0  0  0  0
   19.4378   20.2191   21.2810 C   0  0  0  0  0  0  0  0  0  0  0  0
   18.6803   19.7588   21.9179 H   0  0  0  0  0  0  0  0  0  0  0  0
   19.5626   21.2584   21.5968 H   0  0  0  0  0  0  0  0  0  0  0  0
   20.7796   19.4735   21.4202 C   0  0  0  0  0  0  0  0  0  0  0  0
   20.6814   18.4398   21.0627 H   0  0  0  0  0  0  0  0  0  0  0  0
   21.5100   19.9614   20.7611 H   0  0  0  0  0  0  0  0  0  0  0  0
   21.3354   19.4865   22.8667 C   0  0  0  0  0  0  0  0  0  0  0  0
   21.1274   20.4557   23.3411 H   0  0  0  0  0  0  0  0  0  0  0  0
   22.4304   19.4116   22.8124 H   0  0  0  0  0  0  0  0  0  0  0  0
   20.8328   18.3313   23.7714 C   0  0  0  0  0  0  0  0  0  0  0  0
   21.1383   17.3685   23.3390 H   0  0  0  0  0  0  0  0  0  0  0  0
   21.3473   18.4070   24.7393 H   0  0  0  0  0  0  0  0  0  0  0  0
   19.3061   18.3221   24.0157 C   0  0  0  0  0  0  0  0  0  0  0  0
   18.7793   18.0905   23.0809 H   0  0  0  0  0  0  0  0  0  0  0  0
   18.9732   19.3179   24.3400 H   0  0  0  0  0  0  0  0  0  0  0  0
   18.9061   17.2772   25.0791 C   0  0  0  0  0  0  0  0  0  0  0  0
   19.3814   17.4938   26.0447 H   0  0  0  0  0  0  0  0  0  0  0  0
   19.2037   16.2665   24.7705 H   0  0  0  0  0  0  0  0  0  0  0  0
   17.8191   17.2764   25.2320 H   0  0  0  0  0  0  0  0  0  0  0  0
  1  2  1  0  0  0  0
  1  3  1  0  0  0  0
  1  4  1  0  0  0  0
  1  5  1  0  0  0  0
  5  6  1  0  0  0  0
  5  7  1  0  0  0  0
  5  8  1  0  0  0  0
  8  9  1  0  0  0  0
  8 10  1  0  0  0  0
  8 11  1  0  0  0  0
 11 12  1  0  0  0  0
 11 13  1  0  0  0  0
 11 14  1  0  0  0  0
 14 15  1  0  0  0  0
 14 16  1  0  0  0  0
 14 17  1  0  0  0  0
 17 18  1  0  0  0  0
 17 19  1  0  0  0  0
 17 20  1  0  0  0  0
 20 21  1  0  0  0  0
 20 22  1  0  0  0  0
 20 23  1  0  0  0  0
M  END
> <VConfSearch Rank>
969

> <Conf_Id>
93

> <Delta U+W>
2.589

> <U+W>
-5.793

> <U>
50.122

> <W>
-55.915

> <W(PB)>
-58.031

> <W(SA)>
2.115

> <Valence>
4.132

> <Coulomb>
45.536

> <VdW>
0.454

> <VdW6>
-6.262

> <VdW12>
6.715

> <Bond>
0.182

> <Angle>
1.157

> <Pdih>
2.794

> <Idih>
0.000

> <Tether>
0.000

$$$$
VeraChem MOL file


 23 22  0  0  0  0  0  0  0  0999 V2000     
   19.9635   16.0398   21.4956 N   0  3  0  0  0  0  0  0  0  0  0  0
   19.2550   16.2534   20.7863 H   0  0  0  0  0  0  0  0  0  0  0  0
   19.6116   15.2441   22.0387 H   0  0  0  0  0  0  0  0  0  0  0  0
   20.7989   15.7145   20.9985 H   0  0  0  0  0  0  0  0  0  0  0  0
   20.2603   17.2360   22.3769 C   0  0  0  0  0  0  0  0  0  0  0  0
   20.9980   16.9287   23.1231 H   0  0  0  0  0  0  0  0  0  0  0  0
   19.3394   17.5022   22.8988 H   0  0  0  0  0  0  0  0  0  0  0  0
   20.7982   18.4464   21.5886 C   0  0  0  0  0  0  0  0  0  0  0  0
   21.7177   18.1362   21.0745 H   0  0  0  0  0  0  0  0  0  0  0  0
   20.0876   18.7377   20.8037 H   0  0  0  0  0  0  0  0  0  0  0  0
   21.1246   19.6634   22.4906 C   0  0  0  0  0  0  0  0  0  0  0  0
   21.9177   20.2470   22.0028 H   0  0  0  0  0  0  0  0  0  0  0  0
   21.5513   19.3217   23.4439 H   0  0  0  0  0  0  0  0  0  0  0  0
   19.9337   20.6219   22.7526 C   0  0  0  0  0  0  0  0  0  0  0  0
   20.3040   21.4743   23.3389 H   0  0  0  0  0  0  0  0  0  0  0  0
   19.5826   21.0386   21.7985 H   0  0  0  0  0  0  0  0  0  0  0  0
   18.7426   19.9798   23.5007 C   0  0  0  0  0  0  0  0  0  0  0  0
   19.1020   19.4607   24.4002 H   0  0  0  0  0  0  0  0  0  0  0  0
   18.2606   19.2288   22.8614 H   0  0  0  0  0  0  0  0  0  0  0  0
   17.6891   21.0334   23.9041 C   0  0  0  0  0  0  0  0  0  0  0  0
   16.8463   20.5594   24.4238 H   0  0  0  0  0  0  0  0  0  0  0  0
   17.2922   21.5522   23.0218 H   0  0  0  0  0  0  0  0  0  0  0  0
   18.1198   21.7853   24.5781 H   0  0  0  0  0  0  0  0  0  0  0  0
  1  2  1  0  0  0  0
  1  3  1  0  0  0  0
  1  4  1  0  0  0  0
  1  5  1  0  0  0  0
  5  6  1  0  0  0  0
  5  7  1  0  0  0  0
  5  8  1  0  0  0  0
  8  9  1  0  0  0  0
  8 10  1  0  0  0  0
  8 11  1  0  0  0  0
 11 12  1  0  0  0  0
 11 13  1  0  0  0  0
 11 14  1  0  0  0  0
 14 15  1  0  0  0  0
 14 16  1  0  0  0  0
 14 17  1  0  0  0  0
 17 18  1  0  0  0  0
 17 19  1  0  0  0  0
 17 20  1  0  0  0  0
 20 21  1  0  0  0  0
 20 22  1  0  0  0  0
 20 23  1  0  0  0  0
M  END
> <VConfSearch Rank>
970

> <Conf_Id>
70

> <Delta U+W>
2.599

> <U+W>
-5.783

> <U>
50.122

> <W>
-55.906

> <W(PB)>
-58.010

> <W(SA)>
2.105

> <Valence>
4.132

> <Coulomb>
45.536

> <VdW>
0.454

> <VdW6>
-6.262

> <VdW12>
6.715

> <Bond>
0.182

> <Angle>
1.157

> <Pdih>
2.794

> <Idih>
0.000

> <Tether>
0.000

$$$$
VeraChem MOL file


 23 22  0  0  0  0  0  0  0  0999 V2000     
   21.6444   17.4731   24.1488 N   0  3  0  0  0  0  0  0  0  0  0  0
   21.3920   16.6514   24.7070 H   0  0  0  0  0  0  0  0  0  0  0  0
   22.5930   17.7449   24.4283 H   0  0  0  0  0  0  0  0  0  0  0  0
   21.6931   17.1716   23.1709 H   0  0  0  0  0  0  0  0  0  0  0  0
   20.6549   18.6062   24.3361 C   0  0  0  0  0  0  0  0  0  0  0  0
   20.9981   19.4584   23.7437 H   0  0  0  0  0  0  0  0  0  0  0  0
   20.6752   18.8953   25.3904 H   0  0  0  0  0  0  0  0  0  0  0  0
   19.2123   18.2398   23.9331 C   0  0  0  0  0  0  0  0  0  0  0  0
   18.8659   17.4058   24.5578 H   0  0  0  0  0  0  0  0  0  0  0  0
   18.5529   19.0844   24.1701 H   0  0  0  0  0  0  0  0  0  0  0  0
   19.0535   17.8568   22.4380 C   0  0  0  0  0  0  0  0  0  0  0  0
   17.9931   17.6523   22.2358 H   0  0  0  0  0  0  0  0  0  0  0  0
   19.5789   16.9110   22.2488 H   0  0  0  0  0  0  0  0  0  0  0  0
   19.5637   18.9221   21.4333 C   0  0  0  0  0  0  0  0  0  0  0  0
   20.6445   19.0711   21.5581 H   0  0  0  0  0  0  0  0  0  0  0  0
   19.4280   18.5310   20.4155 H   0  0  0  0  0  0  0  0  0  0  0  0
   18.8341   20.2811   21.5500 C   0  0  0  0  0  0  0  0  0  0  0  0
   19.0154   20.7249   22.5380 H   0  0  0  0  0  0  0  0  0  0  0  0
   17.7493   20.1284   21.4633 H   0  0  0  0  0  0  0  0  0  0  0  0
   19.3001   21.2726   20.4628 C   0  0  0  0  0  0  0  0  0  0  0  0
   18.7748   22.2314   20.5617 H   0  0  0  0  0  0  0  0  0  0  0  0
   19.0981   20.8804   19.4575 H   0  0  0  0  0  0  0  0  0  0  0  0
   20.3773   21.4687   20.5433 H   0  0  0  0  0  0  0  0  0  0  0  0
  1  2  1  0  0  0  0
  1  3  1  0  0  0  0
  1  4  1  0  0  0  0
  1  5  1  0  0  0  0
  5  6  1  0  0  0  0
  5  7  1  0  0  0  0
  5  8  1  0  0  0  0
  8  9  1  0  0  0  0
  8 10  1  0  0  0  0
  8 11  1  0  0  0  0
 11 12  1  0  0  0  0
 11 13  1  0  0  0  0
 11 14  1  0  0  0  0
 14 15  1  0  0  0  0
 14 16  1  0  0  0  0
 14 17  1  0  0  0  0
 17 18  1  0  0  0  0
 17 19  1  0  0  0  0
 17 20  1  0  0  0  0
 20 21  1  0  0  0  0
 20 22  1  0  0  0  0
 20 23  1  0  0  0  0
M  END
> <VConfSearch Rank>
971

> <Conf_Id>
72

> <Delta U+W>
1.051

> <U+W>
-7.331

> <U>
48.590

> <W>
-55.922

> <W(PB)>
-58.012

> <W(SA)>
2.090

> <Valence>
2.601

> <Coulomb>
45.520

> <VdW>
0.469

> <VdW6>
-6.867

> <VdW12>
7.336

> <Bond>
0.205

> <Angle>
0.962

> <Pdih>
1.434

> <Idih>
0.000

> <Tether>
0.000

$$$$
VeraChem MOL file


 23 22  0  0  0  0  0  0  0  0999 V2000     
   17.5499   18.0365   24.6408 N   0  3  0  0  0  0  0  0  0  0  0  0
   17.6184   17.3996   25.4418 H   0  0  0  0  0  0  0  0  0  0  0  0
   16.6151   17.9104   24.2395 H   0  0  0  0  0  0  0  0  0  0  0  0
   17.5918   18.9903   25.0138 H   0  0  0  0  0  0  0  0  0  0  0  0
   18.6414   17.7789   23.6221 C   0  0  0  0  0  0  0  0  0  0  0  0
   18.5555   16.7409   23.2897 H   0  0  0  0  0  0  0  0  0  0  0  0
   19.6049   17.9011   24.1238 H   0  0  0  0  0  0  0  0  0  0  0  0
   18.5665   18.7201   22.4054 C   0  0  0  0  0  0  0  0  0  0  0  0
   17.5815   18.6167   21.9312 H   0  0  0  0  0  0  0  0  0  0  0  0
   18.6396   19.7631   22.7391 H   0  0  0  0  0  0  0  0  0  0  0  0
   19.6622   18.4231   21.3516 C   0  0  0  0  0  0  0  0  0  0  0  0
   19.5405   19.1102   20.5037 H   0  0  0  0  0  0  0  0  0  0  0  0
   19.4973   17.4167   20.9426 H   0  0  0  0  0  0  0  0  0  0  0  0
   21.1183   18.5084   21.8839 C   0  0  0  0  0  0  0  0  0  0  0  0
   21.2861   17.7083   22.6174 H   0  0  0  0  0  0  0  0  0  0  0  0
   21.8074   18.2971   21.0547 H   0  0  0  0  0  0  0  0  0  0  0  0
   21.5079   19.8651   22.5241 C   0  0  0  0  0  0  0  0  0  0  0  0
   22.5483   19.8018   22.8725 H   0  0  0  0  0  0  0  0  0  0  0  0
   20.9016   20.0500   23.4209 H   0  0  0  0  0  0  0  0  0  0  0  0
   21.3808   21.0602   21.5525 C   0  0  0  0  0  0  0  0  0  0  0  0
   21.9695   20.8920   20.6414 H   0  0  0  0  0  0  0  0  0  0  0  0
   21.7481   21.9805   22.0246 H   0  0  0  0  0  0  0  0  0  0  0  0
   20.3374   21.2322   21.2606 H   0  0  0  0  0  0  0  0  0  0  0  0
  1  2  1  0  0  0  0
  1  3  1  0  0  0  0
  1  4  1  0  0  0  0
  1  5  1  0  0  0  0
  5  6  1  0  0  0  0
  5  7  1  0  0  0  0
  5  8  1  0  0  0  0
  8  9  1  0  0  0  0
  8 10  1  0  0  0  0
  8 11  1  0  0  0  0
 11 12  1  0  0  0  0
 11 13  1  0  0  0  0
 11 14  1  0  0  0  0
 14 15  1  0  0  0  0
 14 16  1  0  0  0  0
 14 17  1  0  0  0  0
 17 18  1  0  0  0  0
 17 19  1  0  0  0  0
 17 20  1  0  0  0  0
 20 21  1  0  0  0  0
 20 22  1  0  0  0  0
 20 23  1  0  0  0  0
M  END
> <VConfSearch Rank>
972

> <Conf_Id>
26

> <Delta U+W>
1.076

> <U+W>
-7.306

> <U>
48.641

> <W>
-55.947

> <W(PB)>
-58.031

> <W(SA)>
2.084

> <Valence>
2.922

> <Coulomb>
45.269

> <VdW>
0.449

> <VdW6>
-7.045

> <VdW12>
7.494

> <Bond>
0.220

> <Angle>
1.205

> <Pdih>
1.497

> <Idih>
0.000

> <Tether>
0.000

$$$$
VeraChem MOL file


 23 22  0  0  0  0  0  0  0  0999 V2000     
   21.1913   19.0013   25.4310 N   0  3  0  0  0  0  0  0  0  0  0  0
   21.1391   19.8912   25.9370 H   0  0  0  0  0  0  0  0  0  0  0  0
   22.0431   18.5271   25.7497 H   0  0  0  0  0  0  0  0  0  0  0  0
   20.3985   18.4307   25.7416 H   0  0  0  0  0  0  0  0  0  0  0  0
   21.1884   19.2043   23.9295 C   0  0  0  0  0  0  0  0  0  0  0  0
   21.2764   18.2222   23.4576 H   0  0  0  0  0  0  0  0  0  0  0  0
   22.0712   19.7931   23.6663 H   0  0  0  0  0  0  0  0  0  0  0  0
   19.9210   19.9144   23.4184 C   0  0  0  0  0  0  0  0  0  0  0  0
   19.0332   19.3308   23.6934 H   0  0  0  0  0  0  0  0  0  0  0  0
   19.8224   20.8830   23.9261 H   0  0  0  0  0  0  0  0  0  0  0  0
   19.9453   20.1523   21.8880 C   0  0  0  0  0  0  0  0  0  0  0  0
   20.7705   20.8372   21.6486 H   0  0  0  0  0  0  0  0  0  0  0  0
   19.0285   20.6795   21.5921 H   0  0  0  0  0  0  0  0  0  0  0  0
   20.1045   18.8672   21.0313 C   0  0  0  0  0  0  0  0  0  0  0  0
   20.0928   19.1501   19.9697 H   0  0  0  0  0  0  0  0  0  0  0  0
   21.0967   18.4310   21.2089 H   0  0  0  0  0  0  0  0  0  0  0  0
   19.0281   17.7780   21.2701 C   0  0  0  0  0  0  0  0  0  0  0  0
   19.0898   17.4022   22.3002 H   0  0  0  0  0  0  0  0  0  0  0  0
   19.2504   16.9182   20.6227 H   0  0  0  0  0  0  0  0  0  0  0  0
   17.5902   18.2626   20.9767 C   0  0  0  0  0  0  0  0  0  0  0  0
   17.2813   19.0513   21.6740 H   0  0  0  0  0  0  0  0  0  0  0  0
   16.8770   17.4343   21.0773 H   0  0  0  0  0  0  0  0  0  0  0  0
   17.5071   18.6552   19.9549 H   0  0  0  0  0  0  0  0  0  0  0  0
  1  2  1  0  0  0  0
  1  3  1  0  0  0  0
  1  4  1  0  0  0  0
  1  5  1  0  0  0  0
  5  6  1  0  0  0  0
  5  7  1  0  0  0  0
  5  8  1  0  0  0  0
  8  9  1  0  0  0  0
  8 10  1  0  0  0  0
  8 11  1  0  0  0  0
 11 12  1  0  0  0  0
 11 13  1  0  0  0  0
 11 14  1  0  0  0  0
 14 15  1  0  0  0  0
 14 16  1  0  0  0  0
 14 17  1  0  0  0  0
 17 18  1  0  0  0  0
 17 19  1  0  0  0  0
 17 20  1  0  0  0  0
 20 21  1  0  0  0  0
 20 22  1  0  0  0  0
 20 23  1  0  0  0  0
M  END
> <VConfSearch Rank>
973

> <Conf_Id>
90

> <Delta U+W>
1.131

> <U+W>
-7.251

> <U>
48.641

> <W>
-55.892

> <W(PB)>
-57.962

> <W(SA)>
2.070

> <Valence>
2.922

> <Coulomb>
45.269

> <VdW>
0.450

> <VdW6>
-7.045

> <VdW12>
7.495

> <Bond>
0.220

> <Angle>
1.205

> <Pdih>
1.497

> <Idih>
0.000

> <Tether>
0.000

$$$$
VeraChem MOL file


 23 22  0  0  0  0  0  0  0  0999 V2000     
   20.1729   21.5437   22.2717 N   0  3  0  0  0  0  0  0  0  0  0  0
   20.9753   22.1800   22.2157 H   0  0  0  0  0  0  0  0  0  0  0  0
   20.2679   21.0150   23.1441 H   0  0  0  0  0  0  0  0  0  0  0  0
   19.3344   22.1266   22.3594 H   0  0  0  0  0  0  0  0  0  0  0  0
   20.0968   20.6258   21.0674 C   0  0  0  0  0  0  0  0  0  0  0  0
   21.0293   20.0581   21.0145 H   0  0  0  0  0  0  0  0  0  0  0  0
   20.0309   21.2531   20.1743 H   0  0  0  0  0  0  0  0  0  0  0  0
   18.8974   19.6567   21.1016 C   0  0  0  0  0  0  0  0  0  0  0  0
   17.9656   20.2377   21.1068 H   0  0  0  0  0  0  0  0  0  0  0  0
   18.8890   19.0740   20.1710 H   0  0  0  0  0  0  0  0  0  0  0  0
   18.9045   18.6884   22.3111 C   0  0  0  0  0  0  0  0  0  0  0  0
   18.0095   18.0534   22.2562 H   0  0  0  0  0  0  0  0  0  0  0  0
   18.8146   19.2637   23.2412 H   0  0  0  0  0  0  0  0  0  0  0  0
   20.1644   17.7874   22.3595 C   0  0  0  0  0  0  0  0  0  0  0  0
   20.2834   17.2856   21.3893 H   0  0  0  0  0  0  0  0  0  0  0  0
   21.0638   18.4008   22.5032 H   0  0  0  0  0  0  0  0  0  0  0  0
   20.1045   16.7079   23.4670 C   0  0  0  0  0  0  0  0  0  0  0  0
   20.9784   16.0494   23.3654 H   0  0  0  0  0  0  0  0  0  0  0  0
   19.2213   16.0710   23.3186 H   0  0  0  0  0  0  0  0  0  0  0  0
   20.0874   17.2960   24.8964 C   0  0  0  0  0  0  0  0  0  0  0  0
   20.9472   17.9583   25.0614 H   0  0  0  0  0  0  0  0  0  0  0  0
   20.1353   16.4924   25.6426 H   0  0  0  0  0  0  0  0  0  0  0  0
   19.1706   17.8676   25.0865 H   0  0  0  0  0  0  0  0  0  0  0  0
  1  2  1  0  0  0  0
  1  3  1  0  0  0  0
  1  4  1  0  0  0  0
  1  5  1  0  0  0  0
  5  6  1  0  0  0  0
  5  7  1  0  0  0  0
  5  8  1  0  0  0  0
  8  9  1  0  0  0  0
  8 10  1  0  0  0  0
  8 11  1  0  0  0  0
 11 12  1  0  0  0  0
 11 13  1  0  0  0  0
 11 14  1  0  0  0  0
 14 15  1  0  0  0  0
 14 16  1  0  0  0  0
 14 17  1  0  0  0  0
 17 18  1  0  0  0  0
 17 19  1  0  0  0  0
 17 20  1  0  0  0  0
 20 21  1  0  0  0  0
 20 22  1  0  0  0  0
 20 23  1  0  0  0  0
M  END
> <VConfSearch Rank>
974

> <Conf_Id>
85

> <Delta U+W>
1.193

> <U+W>
-7.189

> <U>
48.775

> <W>
-55.965

> <W(PB)>
-58.038

> <W(SA)>
2.073

> <Valence>
2.602

> <Coulomb>
45.581

> <VdW>
0.592

> <VdW6>
-6.616

> <VdW12>
7.208

> <Bond>
0.196

> <Angle>
0.832

> <Pdih>
1.574

> <Idih>
0.000

> <Tether>
0.000

$$$$
VeraChem MOL file


 23 22  0  0  0  0  0  0  0  0999 V2000     
   18.6586   19.7495   20.9802 N   0  3  0  0  0  0  0  0  0  0  0  0
   19.2661   20.1120   21.7220 H   0  0  0  0  0  0  0  0  0  0  0  0
   17.8239   20.3448   20.9480 H   0  0  0  0  0  0  0  0  0  0  0  0
   19.1517   19.8782   20.0906 H   0  0  0  0  0  0  0  0  0  0  0  0
   18.3037   18.2946   21.2193 C   0  0  0  0  0  0  0  0  0  0  0  0
   17.6605   17.9828   20.3919 H   0  0  0  0  0  0  0  0  0  0  0  0
   17.7254   18.2225   22.1441 H   0  0  0  0  0  0  0  0  0  0  0  0
   19.5244   17.3546   21.2897 C   0  0  0  0  0  0  0  0  0  0  0  0
   19.1763   16.3381   21.0631 H   0  0  0  0  0  0  0  0  0  0  0  0
   20.2363   17.6106   20.4937 H   0  0  0  0  0  0  0  0  0  0  0  0
   20.2493   17.3120   22.6619 C   0  0  0  0  0  0  0  0  0  0  0  0
   21.0545   16.5683   22.5849 H   0  0  0  0  0  0  0  0  0  0  0  0
   19.5683   16.9280   23.4340 H   0  0  0  0  0  0  0  0  0  0  0  0
   20.8769   18.6527   23.1222 C   0  0  0  0  0  0  0  0  0  0  0  0
   21.8172   18.4354   23.6479 H   0  0  0  0  0  0  0  0  0  0  0  0
   21.1592   19.2583   22.2507 H   0  0  0  0  0  0  0  0  0  0  0  0
   19.9674   19.4521   24.0869 C   0  0  0  0  0  0  0  0  0  0  0  0
   19.8427   18.8851   25.0202 H   0  0  0  0  0  0  0  0  0  0  0  0
   18.9601   19.5738   23.6710 H   0  0  0  0  0  0  0  0  0  0  0  0
   20.5602   20.8394   24.4122 C   0  0  0  0  0  0  0  0  0  0  0  0
   21.5489   20.7451   24.8802 H   0  0  0  0  0  0  0  0  0  0  0  0
   19.9100   21.3851   25.1084 H   0  0  0  0  0  0  0  0  0  0  0  0
   20.6692   21.4487   23.5058 H   0  0  0  0  0  0  0  0  0  0  0  0
  1  2  1  0  0  0  0
  1  3  1  0  0  0  0
  1  4  1  0  0  0  0
  1  5  1  0  0  0  0
  5  6  1  0  0  0  0
  5  7  1  0  0  0  0
  5  8  1  0  0  0  0
  8  9  1  0  0  0  0
  8 10  1  0  0  0  0
  8 11  1  0  0  0  0
 11 12  1  0  0  0  0
 11 13  1  0  0  0  0
 11 14  1  0  0  0  0
 14 15  1  0  0  0  0
 14 16  1  0  0  0  0
 14 17  1  0  0  0  0
 17 18  1  0  0  0  0
 17 19  1  0  0  0  0
 17 20  1  0  0  0  0
 20 21  1  0  0  0  0
 20 22  1  0  0  0  0
 20 23  1  0  0  0  0
M  END
> <VConfSearch Rank>
975

> <Conf_Id>
82

> <Delta U+W>
5.994

> <U+W>
-2.388

> <U>
52.836

> <W>
-55.224

> <W(PB)>
-57.261

> <W(SA)>
2.037

> <Valence>
5.785

> <Coulomb>
46.744

> <VdW>
0.307

> <VdW6>
-7.672

> <VdW12>
7.979

> <Bond>
0.217

> <Angle>
1.470

> <Pdih>
4.098

> <Idih>
0.000

> <Tether>
0.000

$$$$
VeraChem MOL file


 23 22  0  0  0  0  0  0  0  0999 V2000     
   21.7929   19.1801   23.2827 N   0  3  0  0  0  0  0  0  0  0  0  0
   21.9841   18.8182   24.2227 H   0  0  0  0  0  0  0  0  0  0  0  0
   22.6989   19.2864   22.8135 H   0  0  0  0  0  0  0  0  0  0  0  0
   21.2682   18.4587   22.7779 H   0  0  0  0  0  0  0  0  0  0  0  0
   21.0268   20.4880   23.3305 C   0  0  0  0  0  0  0  0  0  0  0  0
   20.9071   20.8614   22.3100 H   0  0  0  0  0  0  0  0  0  0  0  0
   21.6460   21.2007   23.8820 H   0  0  0  0  0  0  0  0  0  0  0  0
   19.6489   20.3830   24.0153 C   0  0  0  0  0  0  0  0  0  0  0  0
   19.7325   19.7754   24.9262 H   0  0  0  0  0  0  0  0  0  0  0  0
   19.3665   21.3891   24.3528 H   0  0  0  0  0  0  0  0  0  0  0  0
   18.5022   19.8454   23.1174 C   0  0  0  0  0  0  0  0  0  0  0  0
   18.3331   20.5302   22.2749 H   0  0  0  0  0  0  0  0  0  0  0  0
   17.5780   19.8770   23.7111 H   0  0  0  0  0  0  0  0  0  0  0  0
   18.6899   18.3966   22.5987 C   0  0  0  0  0  0  0  0  0  0  0  0
   19.2942   17.8153   23.3076 H   0  0  0  0  0  0  0  0  0  0  0  0
   17.7075   17.9045   22.5751 H   0  0  0  0  0  0  0  0  0  0  0  0
   19.2873   18.3327   21.1718 C   0  0  0  0  0  0  0  0  0  0  0  0
   20.2018   18.9333   21.0987 H   0  0  0  0  0  0  0  0  0  0  0  0
   18.5761   18.7770   20.4612 H   0  0  0  0  0  0  0  0  0  0  0  0
   19.5904   16.8810   20.7445 C   0  0  0  0  0  0  0  0  0  0  0  0
   20.3242   16.4135   21.4136 H   0  0  0  0  0  0  0  0  0  0  0  0
   19.9986   16.8542   19.7258 H   0  0  0  0  0  0  0  0  0  0  0  0
   18.6792   16.2686   20.7572 H   0  0  0  0  0  0  0  0  0  0  0  0
  1  2  1  0  0  0  0
  1  3  1  0  0  0  0
  1  4  1  0  0  0  0
  1  5  1  0  0  0  0
  5  6  1  0  0  0  0
  5  7  1  0  0  0  0
  5  8  1  0  0  0  0
  8  9  1  0  0  0  0
  8 10  1  0  0  0  0
  8 11  1  0  0  0  0
 11 12  1  0  0  0  0
 11 13  1  0  0  0  0
 11 14  1  0  0  0  0
 14 15  1  0  0  0  0
 14 16  1  0  0  0  0
 14 17  1  0  0  0  0
 17 18  1  0  0  0  0
 17 19  1  0  0  0  0
 17 20  1  0  0  0  0
 20 21  1  0  0  0  0
 20 22  1  0  0  0  0
 20 23  1  0  0  0  0
M  END
> <VConfSearch Rank>
976

> <Conf_Id>
5

> <Delta U+W>
6.087

> <U+W>
-2.295

> <U>
52.836

> <W>
-55.131

> <W(PB)>
-57.202

> <W(SA)>
2.071

> <Valence>
5.785

> <Coulomb>
46.744

> <VdW>
0.307

> <VdW6>
-7.672

> <VdW12>
7.980

> <Bond>
0.217

> <Angle>
1.470

> <Pdih>
4.098

> <Idih>
0.000

> <Tether>
0.000

$$$$
VeraChem MOL file


 23 22  0  0  0  0  0  0  0  0999 V2000     
   22.9297   18.4148   20.4979 N   0  3  0  0  0  0  0  0  0  0  0  0
   22.8265   17.3978   20.4209 H   0  0  0  0  0  0  0  0  0  0  0  0
   23.9362   18.6111   20.5213 H   0  0  0  0  0  0  0  0  0  0  0  0
   22.5673   18.8213   19.6294 H   0  0  0  0  0  0  0  0  0  0  0  0
   22.2205   18.9646   21.7188 C   0  0  0  0  0  0  0  0  0  0  0  0
   22.3964   20.0431   21.7541 H   0  0  0  0  0  0  0  0  0  0  0  0
   22.6750   18.5131   22.6049 H   0  0  0  0  0  0  0  0  0  0  0  0
   20.7069   18.6863   21.7142 C   0  0  0  0  0  0  0  0  0  0  0  0
   20.2574   19.1275   20.8145 H   0  0  0  0  0  0  0  0  0  0  0  0
   20.5351   17.6029   21.6621 H   0  0  0  0  0  0  0  0  0  0  0  0
   20.0222   19.2618   22.9736 C   0  0  0  0  0  0  0  0  0  0  0  0
   20.2009   20.3450   23.0249 H   0  0  0  0  0  0  0  0  0  0  0  0
   20.4782   18.8219   23.8716 H   0  0  0  0  0  0  0  0  0  0  0  0
   18.5011   18.9880   22.9794 C   0  0  0  0  0  0  0  0  0  0  0  0
   18.0449   19.4280   22.0816 H   0  0  0  0  0  0  0  0  0  0  0  0
   18.3223   17.9050   22.9282 H   0  0  0  0  0  0  0  0  0  0  0  0
   17.8167   19.5636   24.2392 C   0  0  0  0  0  0  0  0  0  0  0  0
   17.9906   20.6475   24.2937 H   0  0  0  0  0  0  0  0  0  0  0  0
   18.2679   19.1247   25.1401 H   0  0  0  0  0  0  0  0  0  0  0  0
   16.2979   19.2883   24.2413 C   0  0  0  0  0  0  0  0  0  0  0  0
   15.8298   19.7042   25.1430 H   0  0  0  0  0  0  0  0  0  0  0  0
   16.0921   18.2101   24.2218 H   0  0  0  0  0  0  0  0  0  0  0  0
   15.8127   19.7448   23.3688 H   0  0  0  0  0  0  0  0  0  0  0  0
  1  2  1  0  0  0  0
  1  3  1  0  0  0  0
  1  4  1  0  0  0  0
  1  5  1  0  0  0  0
  5  6  1  0  0  0  0
  5  7  1  0  0  0  0
  5  8  1  0  0  0  0
  8  9  1  0  0  0  0
  8 10  1  0  0  0  0
  8 11  1  0  0  0  0
 11 12  1  0  0  0  0
 11 13  1  0  0  0  0
 11 14  1  0  0  0  0
 14 15  1  0  0  0  0
 14 16  1  0  0  0  0
 14 17  1  0  0  0  0
 17 18  1  0  0  0  0
 17 19  1  0  0  0  0
 17 20  1  0  0  0  0
 20 21  1  0  0  0  0
 20 22  1  0  0  0  0
 20 23  1  0  0  0  0
M  END
> <VConfSearch Rank>
977

> <Conf_Id>
40

> <Delta U+W>
0.000

> <U+W>
-8.382

> <U>
46.604

> <W>
-54.986

> <W(PB)>
-57.162

> <W(SA)>
2.176

> <Valence>
1.727

> <Coulomb>
44.434

> <VdW>
0.443

> <VdW6>
-4.623

> <VdW12>
5.066

> <Bond>
0.112

> <Angle>
0.386

> <Pdih>
1.228

> <Idih>
0.000

> <Tether>
0.000

$$$$
VeraChem MOL file


 23 22  0  0  0  0  0  0  0  0999 V2000     
   19.6047   15.6640   21.3908 N   0  3  0  0  0  0  0  0  0  0  0  0
   20.2656   15.0681   21.8995 H   0  0  0  0  0  0  0  0  0  0  0  0
   20.0122   15.8469   20.4681 H   0  0  0  0  0  0  0  0  0  0  0  0
   18.7578   15.1060   21.2373 H   0  0  0  0  0  0  0  0  0  0  0  0
   19.3059   16.9459   22.1413 C   0  0  0  0  0  0  0  0  0  0  0  0
   18.8496   16.6783   23.0982 H   0  0  0  0  0  0  0  0  0  0  0  0
   18.5756   17.5127   21.5582 H   0  0  0  0  0  0  0  0  0  0  0  0
   20.5594   17.8068   22.3879 C   0  0  0  0  0  0  0  0  0  0  0  0
   21.3020   17.2088   22.9327 H   0  0  0  0  0  0  0  0  0  0  0  0
   21.0174   18.0769   21.4271 H   0  0  0  0  0  0  0  0  0  0  0  0
   20.2570   19.0893   23.1987 C   0  0  0  0  0  0  0  0  0  0  0  0
   21.2102   19.5830   23.4281 H   0  0  0  0  0  0  0  0  0  0  0  0
   19.8078   18.8154   24.1634 H   0  0  0  0  0  0  0  0  0  0  0  0
   19.3268   20.0773   22.4496 C   0  0  0  0  0  0  0  0  0  0  0  0
   19.7862   20.3669   21.4944 H   0  0  0  0  0  0  0  0  0  0  0  0
   18.3832   19.5751   22.1987 H   0  0  0  0  0  0  0  0  0  0  0  0
   18.9922   21.3484   23.2673 C   0  0  0  0  0  0  0  0  0  0  0  0
   18.5226   21.0651   24.2197 H   0  0  0  0  0  0  0  0  0  0  0  0
   18.2416   21.9331   22.7171 H   0  0  0  0  0  0  0  0  0  0  0  0
   20.2195   22.2478   23.5395 C   0  0  0  0  0  0  0  0  0  0  0  0
   20.9465   21.7520   24.1944 H   0  0  0  0  0  0  0  0  0  0  0  0
   19.9115   23.1778   24.0346 H   0  0  0  0  0  0  0  0  0  0  0  0
   20.7265   22.5181   22.6041 H   0  0  0  0  0  0  0  0  0  0  0  0
  1  2  1  0  0  0  0
  1  3  1  0  0  0  0
  1  4  1  0  0  0  0
  1  5  1  0  0  0  0
  5  6  1  0  0  0  0
  5  7  1  0  0  0  0
  5  8  1  0  0  0  0
  8  9  1  0  0  0  0
  8 10  1  0  0  0  0
  8 11  1  0  0  0  0
 11 12  1  0  0  0  0
 11 13  1  0  0  0  0
 11 14  1  0  0  0  0
 14 15  1  0  0  0  0
 14 16  1  0  0  0  0
 14 17  1  0  0  0  0
 17 18  1  0  0  0  0
 17 19  1  0  0  0  0
 17 20  1  0  0  0  0
 20 21  1  0  0  0  0
 20 22  1  0  0  0  0
 20 23  1  0  0  0  0
M  END
> <VConfSearch Rank>
978

> <Conf_Id>
65

> <Delta U+W>
1.004

> <U+W>
-7.378

> <U>
48.047

> <W>
-55.425

> <W(PB)>
-57.542

> <W(SA)>
2.116

> <Valence>
2.583

> <Coulomb>
44.791

> <VdW>
0.673

> <VdW6>
-5.788

> <VdW12>
6.462

> <Bond>
0.177

> <Angle>
0.787

> <Pdih>
1.619

> <Idih>
0.000

> <Tether>
0.000

$$$$
VeraChem MOL file


 23 22  0  0  0  0  0  0  0  0999 V2000     
   19.6042   15.4503   22.6207 N   0  3  0  0  0  0  0  0  0  0  0  0
   19.1097   15.1184   23.4550 H   0  0  0  0  0  0  0  0  0  0  0  0
   20.3799   14.7998   22.4558 H   0  0  0  0  0  0  0  0  0  0  0  0
   18.9599   15.3525   21.8295 H   0  0  0  0  0  0  0  0  0  0  0  0
   20.0900   16.8765   22.7814 C   0  0  0  0  0  0  0  0  0  0  0  0
   20.6312   17.1502   21.8721 H   0  0  0  0  0  0  0  0  0  0  0  0
   20.7909   16.9018   23.6201 H   0  0  0  0  0  0  0  0  0  0  0  0
   18.9470   17.8787   23.0310 C   0  0  0  0  0  0  0  0  0  0  0  0
   18.2433   17.8545   22.1883 H   0  0  0  0  0  0  0  0  0  0  0  0
   18.3837   17.5641   23.9196 H   0  0  0  0  0  0  0  0  0  0  0  0
   19.4527   19.3251   23.2450 C   0  0  0  0  0  0  0  0  0  0  0  0
   20.1489   19.3478   24.0948 H   0  0  0  0  0  0  0  0  0  0  0  0
   18.5957   19.9500   23.5277 H   0  0  0  0  0  0  0  0  0  0  0  0
   20.1392   19.9213   21.9897 C   0  0  0  0  0  0  0  0  0  0  0  0
   20.9812   19.2822   21.6929 H   0  0  0  0  0  0  0  0  0  0  0  0
   19.4358   19.9174   21.1456 H   0  0  0  0  0  0  0  0  0  0  0  0
   20.6778   21.3565   22.2054 C   0  0  0  0  0  0  0  0  0  0  0  0
   21.2475   21.6560   21.3145 H   0  0  0  0  0  0  0  0  0  0  0  0
   21.3903   21.3645   23.0422 H   0  0  0  0  0  0  0  0  0  0  0  0
   19.5667   22.4011   22.4580 C   0  0  0  0  0  0  0  0  0  0  0  0
   19.0479   22.2177   23.4069 H   0  0  0  0  0  0  0  0  0  0  0  0
   18.8229   22.3897   21.6507 H   0  0  0  0  0  0  0  0  0  0  0  0
   19.9935   23.4112   22.5064 H   0  0  0  0  0  0  0  0  0  0  0  0
  1  2  1  0  0  0  0
  1  3  1  0  0  0  0
  1  4  1  0  0  0  0
  1  5  1  0  0  0  0
  5  6  1  0  0  0  0
  5  7  1  0  0  0  0
  5  8  1  0  0  0  0
  8  9  1  0  0  0  0
  8 10  1  0  0  0  0
  8 11  1  0  0  0  0
 11 12  1  0  0  0  0
 11 13  1  0  0  0  0
 11 14  1  0  0  0  0
 14 15  1  0  0  0  0
 14 16  1  0  0  0  0
 14 17  1  0  0  0  0
 17 18  1  0  0  0  0
 17 19  1  0  0  0  0
 17 20  1  0  0  0  0
 20 21  1  0  0  0  0
 20 22  1  0  0  0  0
 20 23  1  0  0  0  0
M  END
> <VConfSearch Rank>
979

> <Conf_Id>
92

> <Delta U+W>
0.973

> <U+W>
-7.409

> <U>
48.047

> <W>
-55.456

> <W(PB)>
-57.595

> <W(SA)>
2.138

> <Valence>
2.583

> <Coulomb>
44.791

> <VdW>
0.674

> <VdW6>
-5.789

> <VdW12>
6.462

> <Bond>
0.177

> <Angle>
0.787

> <Pdih>
1.619

> <Idih>
0.000

> <Tether>
0.000

$$$$
VeraChem MOL file


 23 22  0  0  0  0  0  0  0  0999 V2000     
   21.6964   16.7753   24.5669 N   0  3  0  0  0  0  0  0  0  0  0  0
   22.6808   16.5938   24.3431 H   0  0  0  0  0  0  0  0  0  0  0  0
   21.2717   15.8709   24.7963 H   0  0  0  0  0  0  0  0  0  0  0  0
   21.6847   17.3395   25.4227 H   0  0  0  0  0  0  0  0  0  0  0  0
   20.9772   17.4645   23.4253 C   0  0  0  0  0  0  0  0  0  0  0  0
   21.0533   16.8239   22.5425 H   0  0  0  0  0  0  0  0  0  0  0  0
   21.5000   18.4015   23.2168 H   0  0  0  0  0  0  0  0  0  0  0  0
   19.4949   17.7510   23.7312 C   0  0  0  0  0  0  0  0  0  0  0  0
   18.9917   16.8077   23.9823 H   0  0  0  0  0  0  0  0  0  0  0  0
   19.4185   18.3938   24.6183 H   0  0  0  0  0  0  0  0  0  0  0  0
   18.7563   18.4132   22.5442 C   0  0  0  0  0  0  0  0  0  0  0  0
   17.6908   18.5019   22.7977 H   0  0  0  0  0  0  0  0  0  0  0  0
   18.8125   17.7560   21.6652 H   0  0  0  0  0  0  0  0  0  0  0  0
   19.3123   19.8126   22.1865 C   0  0  0  0  0  0  0  0  0  0  0  0
   19.2853   20.4569   23.0761 H   0  0  0  0  0  0  0  0  0  0  0  0
   20.3648   19.7324   21.8834 H   0  0  0  0  0  0  0  0  0  0  0  0
   18.5067   20.4759   21.0472 C   0  0  0  0  0  0  0  0  0  0  0  0
   17.4523   20.5690   21.3431 H   0  0  0  0  0  0  0  0  0  0  0  0
   18.5299   19.8350   20.1546 H   0  0  0  0  0  0  0  0  0  0  0  0
   19.0629   21.8709   20.6903 C   0  0  0  0  0  0  0  0  0  0  0  0
   19.0215   22.5455   21.5555 H   0  0  0  0  0  0  0  0  0  0  0  0
   18.4780   22.3257   19.8803 H   0  0  0  0  0  0  0  0  0  0  0  0
   20.1068   21.8063   20.3567 H   0  0  0  0  0  0  0  0  0  0  0  0
  1  2  1  0  0  0  0
  1  3  1  0  0  0  0
  1  4  1  0  0  0  0
  1  5  1  0  0  0  0
  5  6  1  0  0  0  0
  5  7  1  0  0  0  0
  5  8  1  0  0  0  0
  8  9  1  0  0  0  0
  8 10  1  0  0  0  0
  8 11  1  0  0  0  0
 11 12  1  0  0  0  0
 11 13  1  0  0  0  0
 11 14  1  0  0  0  0
 14 15  1  0  0  0  0
 14 16  1  0  0  0  0
 14 17  1  0  0  0  0
 17 18  1  0  0  0  0
 17 19  1  0  0  0  0
 17 20  1  0  0  0  0
 20 21  1  0  0  0  0
 20 22  1  0  0  0  0
 20 23  1  0  0  0  0
M  END
> <VConfSearch Rank>
980

> <Conf_Id>
42

> <Delta U+W>
0.365

> <U+W>
-8.017

> <U>
47.375

> <W>
-55.392

> <W(PB)>
-57.543

> <W(SA)>
2.152

> <Valence>
2.032

> <Coulomb>
44.843

> <VdW>
0.499

> <VdW6>
-5.218

> <VdW12>
5.717

> <Bond>
0.135

> <Angle>
0.514

> <Pdih>
1.383

> <Idih>
0.000

> <Tether>
0.000

$$$$
VeraChem MOL file


 23 22  0  0  0  0  0  0  0  0999 V2000     
   18.7113   19.3935   19.6478 N   0  3  0  0  0  0  0  0  0  0  0  0
   17.8703   19.8960   19.9491 H   0  0  0  0  0  0  0  0  0  0  0  0
   18.5527   19.1004   18.6778 H   0  0  0  0  0  0  0  0  0  0  0  0
   19.4799   20.0706   19.6336 H   0  0  0  0  0  0  0  0  0  0  0  0
   19.0162   18.2130   20.5495 C   0  0  0  0  0  0  0  0  0  0  0  0
   19.9055   17.7091   20.1614 H   0  0  0  0  0  0  0  0  0  0  0  0
   18.1742   17.5188   20.4801 H   0  0  0  0  0  0  0  0  0  0  0  0
   19.2396   18.5968   22.0253 C   0  0  0  0  0  0  0  0  0  0  0  0
   18.3561   19.1271   22.4048 H   0  0  0  0  0  0  0  0  0  0  0  0
   19.3288   17.6687   22.6030 H   0  0  0  0  0  0  0  0  0  0  0  0
   20.5095   19.4572   22.2344 C   0  0  0  0  0  0  0  0  0  0  0  0
   20.4680   20.3356   21.5771 H   0  0  0  0  0  0  0  0  0  0  0  0
   21.3931   18.8835   21.9220 H   0  0  0  0  0  0  0  0  0  0  0  0
   20.7096   19.9592   23.6881 C   0  0  0  0  0  0  0  0  0  0  0  0
   21.6103   20.5885   23.6987 H   0  0  0  0  0  0  0  0  0  0  0  0
   19.8826   20.6231   23.9754 H   0  0  0  0  0  0  0  0  0  0  0  0
   20.8914   18.8401   24.7460 C   0  0  0  0  0  0  0  0  0  0  0  0
   21.6128   19.1851   25.5000 H   0  0  0  0  0  0  0  0  0  0  0  0
   21.3393   17.9482   24.2862 H   0  0  0  0  0  0  0  0  0  0  0  0
   19.5802   18.4680   25.4772 C   0  0  0  0  0  0  0  0  0  0  0  0
   19.1651   19.3375   26.0032 H   0  0  0  0  0  0  0  0  0  0  0  0
   19.7661   17.6853   26.2241 H   0  0  0  0  0  0  0  0  0  0  0  0
   18.8147   18.0943   24.7884 H   0  0  0  0  0  0  0  0  0  0  0  0
  1  2  1  0  0  0  0
  1  3  1  0  0  0  0
  1  4  1  0  0  0  0
  1  5  1  0  0  0  0
  5  6  1  0  0  0  0
  5  7  1  0  0  0  0
  5  8  1  0  0  0  0
  8  9  1  0  0  0  0
  8 10  1  0  0  0  0
  8 11  1  0  0  0  0
 11 12  1  0  0  0  0
 11 13  1  0  0  0  0
 11 14  1  0  0  0  0
 14 15  1  0  0  0  0
 14 16  1  0  0  0  0
 14 17  1  0  0  0  0
 17 18  1  0  0  0  0
 17 19  1  0  0  0  0
 17 20  1  0  0  0  0
 20 21  1  0  0  0  0
 20 22  1  0  0  0  0
 20 23  1  0  0  0  0
M  END
> <VConfSearch Rank>
981

> <Conf_Id>
3

> <Delta U+W>
3.283

> <U+W>
-5.099

> <U>
50.701

> <W>
-55.800

> <W(PB)>
-57.867

> <W(SA)>
2.067

> <Valence>
4.880

> <Coulomb>
45.095

> <VdW>
0.726

> <VdW6>
-6.620

> <VdW12>
7.346

> <Bond>
0.222

> <Angle>
1.260

> <Pdih>
3.398

> <Idih>
0.000

> <Tether>
0.000

$$$$
VeraChem MOL file


 23 22  0  0  0  0  0  0  0  0999 V2000     
   19.6067   21.5007   21.0075 N   0  3  0  0  0  0  0  0  0  0  0  0
   20.5166   21.9181   20.7873 H   0  0  0  0  0  0  0  0  0  0  0  0
   18.8938   22.0777   20.5484 H   0  0  0  0  0  0  0  0  0  0  0  0
   19.5801   20.5786   20.5620 H   0  0  0  0  0  0  0  0  0  0  0  0
   19.3777   21.4063   22.5031 C   0  0  0  0  0  0  0  0  0  0  0  0
   18.3832   20.9841   22.6680 H   0  0  0  0  0  0  0  0  0  0  0  0
   19.3843   22.4230   22.9054 H   0  0  0  0  0  0  0  0  0  0  0  0
   20.4348   20.5585   23.2400 C   0  0  0  0  0  0  0  0  0  0  0  0
   21.4211   21.0231   23.1085 H   0  0  0  0  0  0  0  0  0  0  0  0
   20.2236   20.5904   24.3171 H   0  0  0  0  0  0  0  0  0  0  0  0
   20.5000   19.0812   22.7762 C   0  0  0  0  0  0  0  0  0  0  0  0
   21.3066   18.5859   23.3321 H   0  0  0  0  0  0  0  0  0  0  0  0
   20.7853   19.0340   21.7169 H   0  0  0  0  0  0  0  0  0  0  0  0
   19.1717   18.3135   22.9966 C   0  0  0  0  0  0  0  0  0  0  0  0
   18.9021   18.3381   24.0614 H   0  0  0  0  0  0  0  0  0  0  0  0
   18.3596   18.8219   22.4606 H   0  0  0  0  0  0  0  0  0  0  0  0
   19.2215   16.8444   22.5109 C   0  0  0  0  0  0  0  0  0  0  0  0
   19.4801   16.8140   21.4432 H   0  0  0  0  0  0  0  0  0  0  0  0
   18.2146   16.4120   22.5950 H   0  0  0  0  0  0  0  0  0  0  0  0
   20.2080   15.9633   23.3106 C   0  0  0  0  0  0  0  0  0  0  0  0
   19.9910   16.0032   24.3859 H   0  0  0  0  0  0  0  0  0  0  0  0
   21.2474   16.2787   23.1571 H   0  0  0  0  0  0  0  0  0  0  0  0
   20.1319   14.9156   22.9919 H   0  0  0  0  0  0  0  0  0  0  0  0
  1  2  1  0  0  0  0
  1  3  1  0  0  0  0
  1  4  1  0  0  0  0
  1  5  1  0  0  0  0
  5  6  1  0  0  0  0
  5  7  1  0  0  0  0
  5  8  1  0  0  0  0
  8  9  1  0  0  0  0
  8 10  1  0  0  0  0
  8 11  1  0  0  0  0
 11 12  1  0  0  0  0
 11 13  1  0  0  0  0
 11 14  1  0  0  0  0
 14 15  1  0  0  0  0
 14 16  1  0  0  0  0
 14 17  1  0  0  0  0
 17 18  1  0  0  0  0
 17 19  1  0  0  0  0
 17 20  1  0  0  0  0
 20 21  1  0  0  0  0
 20 22  1  0  0  0  0
 20 23  1  0  0  0  0
M  END
> <VConfSearch Rank>
982

> <Conf_Id>
83

> <Delta U+W>
1.229

> <U+W>
-7.154

> <U>
48.727

> <W>
-55.880

> <W(PB)>
-57.960

> <W(SA)>
2.080

> <Valence>
2.671

> <Coulomb>
45.371

> <VdW>
0.684

> <VdW6>
-6.511

> <VdW12>
7.195

> <Bond>
0.203

> <Angle>
0.915

> <Pdih>
1.554

> <Idih>
0.000

> <Tether>
0.000

$$$$
VeraChem MOL file


 23 22  0  0  0  0  0  0  0  0999 V2000     
   20.2069   21.8618   23.0136 N   0  3  0  0  0  0  0  0  0  0  0  0
   19.8878   22.4560   22.2418 H   0  0  0  0  0  0  0  0  0  0  0  0
   20.9379   21.2480   22.6416 H   0  0  0  0  0  0  0  0  0  0  0  0
   20.6525   22.4783   23.7015 H   0  0  0  0  0  0  0  0  0  0  0  0
   19.0670   21.0691   23.6223 C   0  0  0  0  0  0  0  0  0  0  0  0
   18.3448   21.7829   24.0278 H   0  0  0  0  0  0  0  0  0  0  0  0
   19.4671   20.4838   24.4541 H   0  0  0  0  0  0  0  0  0  0  0  0
   18.3560   20.1362   22.6205 C   0  0  0  0  0  0  0  0  0  0  0  0
   17.5157   19.6466   23.1304 H   0  0  0  0  0  0  0  0  0  0  0  0
   17.9150   20.7425   21.8183 H   0  0  0  0  0  0  0  0  0  0  0  0
   19.2748   19.0549   21.9975 C   0  0  0  0  0  0  0  0  0  0  0  0
   20.0774   19.5332   21.4205 H   0  0  0  0  0  0  0  0  0  0  0  0
   18.6810   18.4794   21.2756 H   0  0  0  0  0  0  0  0  0  0  0  0
   19.8857   18.0938   23.0489 C   0  0  0  0  0  0  0  0  0  0  0  0
   20.4598   18.6711   23.7854 H   0  0  0  0  0  0  0  0  0  0  0  0
   19.0809   17.5952   23.6065 H   0  0  0  0  0  0  0  0  0  0  0  0
   20.8259   17.0276   22.4361 C   0  0  0  0  0  0  0  0  0  0  0  0
   21.3031   16.4684   23.2530 H   0  0  0  0  0  0  0  0  0  0  0  0
   21.6394   17.5208   21.8859 H   0  0  0  0  0  0  0  0  0  0  0  0
   20.1015   16.0269   21.5071 C   0  0  0  0  0  0  0  0  0  0  0  0
   19.2621   15.5442   22.0243 H   0  0  0  0  0  0  0  0  0  0  0  0
   20.7916   15.2384   21.1797 H   0  0  0  0  0  0  0  0  0  0  0  0
   19.7140   16.5191   20.6066 H   0  0  0  0  0  0  0  0  0  0  0  0
  1  2  1  0  0  0  0
  1  3  1  0  0  0  0
  1  4  1  0  0  0  0
  1  5  1  0  0  0  0
  5  6  1  0  0  0  0
  5  7  1  0  0  0  0
  5  8  1  0  0  0  0
  8  9  1  0  0  0  0
  8 10  1  0  0  0  0
  8 11  1  0  0  0  0
 11 12  1  0  0  0  0
 11 13  1  0  0  0  0
 11 14  1  0  0  0  0
 14 15  1  0  0  0  0
 14 16  1  0  0  0  0
 14 17  1  0  0  0  0
 17 18  1  0  0  0  0
 17 19  1  0  0  0  0
 17 20  1  0  0  0  0
 20 21  1  0  0  0  0
 20 22  1  0  0  0  0
 20 23  1  0  0  0  0
M  END
> <VConfSearch Rank>
983

> <Conf_Id>
50

> <Delta U+W>
1.252

> <U+W>
-7.130

> <U>
48.727

> <W>
-55.857

> <W(PB)>
-57.937

> <W(SA)>
2.080

> <Valence>
2.671

> <Coulomb>
45.371

> <VdW>
0.684

> <VdW6>
-6.511

> <VdW12>
7.196

> <Bond>
0.203

> <Angle>
0.915

> <Pdih>
1.554

> <Idih>
0.000

> <Tether>
0.000

$$$$
VeraChem MOL file


 23 22  0  0  0  0  0  0  0  0999 V2000     
   17.2459   18.0211   21.0290 N   0  3  0  0  0  0  0  0  0  0  0  0
   16.9246   17.9890   22.0012 H   0  0  0  0  0  0  0  0  0  0  0  0
   16.7993   17.2380   20.5399 H   0  0  0  0  0  0  0  0  0  0  0  0
   16.8749   18.8824   20.6153 H   0  0  0  0  0  0  0  0  0  0  0  0
   18.7578   17.9554   20.9334 C   0  0  0  0  0  0  0  0  0  0  0  0
   19.0229   17.9525   19.8726 H   0  0  0  0  0  0  0  0  0  0  0  0
   19.0845   17.0070   21.3684 H   0  0  0  0  0  0  0  0  0  0  0  0
   19.4773   19.1229   21.6362 C   0  0  0  0  0  0  0  0  0  0  0  0
   20.5484   19.0462   21.4185 H   0  0  0  0  0  0  0  0  0  0  0  0
   19.1422   20.0731   21.1995 H   0  0  0  0  0  0  0  0  0  0  0  0
   19.2405   19.1350   23.1680 C   0  0  0  0  0  0  0  0  0  0  0  0
   19.4840   18.1547   23.6005 H   0  0  0  0  0  0  0  0  0  0  0  0
   18.1697   19.2925   23.3541 H   0  0  0  0  0  0  0  0  0  0  0  0
   20.0280   20.2507   23.9036 C   0  0  0  0  0  0  0  0  0  0  0  0
   20.1814   21.1117   23.2385 H   0  0  0  0  0  0  0  0  0  0  0  0
   19.4049   20.6223   24.7289 H   0  0  0  0  0  0  0  0  0  0  0  0
   21.3809   19.7973   24.5096 C   0  0  0  0  0  0  0  0  0  0  0  0
   21.2055   19.0041   25.2498 H   0  0  0  0  0  0  0  0  0  0  0  0
   21.8140   20.6408   25.0653 H   0  0  0  0  0  0  0  0  0  0  0  0
   22.4126   19.3081   23.4698 C   0  0  0  0  0  0  0  0  0  0  0  0
   22.5668   20.0567   22.6820 H   0  0  0  0  0  0  0  0  0  0  0  0
   22.0931   18.3685   23.0027 H   0  0  0  0  0  0  0  0  0  0  0  0
   23.3820   19.1218   23.9500 H   0  0  0  0  0  0  0  0  0  0  0  0
  1  2  1  0  0  0  0
  1  3  1  0  0  0  0
  1  4  1  0  0  0  0
  1  5  1  0  0  0  0
  5  6  1  0  0  0  0
  5  7  1  0  0  0  0
  5  8  1  0  0  0  0
  8  9  1  0  0  0  0
  8 10  1  0  0  0  0
  8 11  1  0  0  0  0
 11 12  1  0  0  0  0
 11 13  1  0  0  0  0
 11 14  1  0  0  0  0
 14 15  1  0  0  0  0
 14 16  1  0  0  0  0
 14 17  1  0  0  0  0
 17 18  1  0  0  0  0
 17 19  1  0  0  0  0
 17 20  1  0  0  0  0
 20 21  1  0  0  0  0
 20 22  1  0  0  0  0
 20 23  1  0  0  0  0
M  END
> <VConfSearch Rank>
984

> <Conf_Id>
55

> <Delta U+W>
3.232

> <U+W>
-5.150

> <U>
50.625

> <W>
-55.776

> <W(PB)>
-57.839

> <W(SA)>
2.064

> <Valence>
4.837

> <Coulomb>
45.097

> <VdW>
0.692

> <VdW6>
-6.655

> <VdW12>
7.347

> <Bond>
0.223

> <Angle>
1.167

> <Pdih>
3.447

> <Idih>
0.000

> <Tether>
0.000

$$$$
VeraChem MOL file


 23 22  0  0  0  0  0  0  0  0999 V2000     
   17.7398   19.9045   24.7516 N   0  3  0  0  0  0  0  0  0  0  0  0
   17.2350   20.7944   24.6882 H   0  0  0  0  0  0  0  0  0  0  0  0
   17.9029   19.7252   25.7482 H   0  0  0  0  0  0  0  0  0  0  0  0
   17.1042   19.1731   24.4172 H   0  0  0  0  0  0  0  0  0  0  0  0
   19.0345   19.9320   23.9650 C   0  0  0  0  0  0  0  0  0  0  0  0
   19.5318   18.9709   24.1079 H   0  0  0  0  0  0  0  0  0  0  0  0
   19.6708   20.7116   24.3925 H   0  0  0  0  0  0  0  0  0  0  0  0
   18.8213   20.2067   22.4634 C   0  0  0  0  0  0  0  0  0  0  0  0
   18.1459   19.4573   22.0298 H   0  0  0  0  0  0  0  0  0  0  0  0
   18.3143   21.1757   22.3633 H   0  0  0  0  0  0  0  0  0  0  0  0
   20.1458   20.2584   21.6605 C   0  0  0  0  0  0  0  0  0  0  0  0
   20.9309   20.7396   22.2601 H   0  0  0  0  0  0  0  0  0  0  0  0
   19.9928   20.9133   20.7914 H   0  0  0  0  0  0  0  0  0  0  0  0
   20.6439   18.8884   21.1308 C   0  0  0  0  0  0  0  0  0  0  0  0
   19.8936   18.4650   20.4488 H   0  0  0  0  0  0  0  0  0  0  0  0
   21.5426   19.0635   20.5233 H   0  0  0  0  0  0  0  0  0  0  0  0
   20.9774   17.8550   22.2313 C   0  0  0  0  0  0  0  0  0  0  0  0
   20.0585   17.5496   22.7484 H   0  0  0  0  0  0  0  0  0  0  0  0
   21.6392   18.3087   22.9822 H   0  0  0  0  0  0  0  0  0  0  0  0
   21.6544   16.5977   21.6452 C   0  0  0  0  0  0  0  0  0  0  0  0
   22.6009   16.8523   21.1507 H   0  0  0  0  0  0  0  0  0  0  0  0
   21.0049   16.1071   20.9084 H   0  0  0  0  0  0  0  0  0  0  0  0
   21.8741   15.8706   22.4377 H   0  0  0  0  0  0  0  0  0  0  0  0
  1  2  1  0  0  0  0
  1  3  1  0  0  0  0
  1  4  1  0  0  0  0
  1  5  1  0  0  0  0
  5  6  1  0  0  0  0
  5  7  1  0  0  0  0
  5  8  1  0  0  0  0
  8  9  1  0  0  0  0
  8 10  1  0  0  0  0
  8 11  1  0  0  0  0
 11 12  1  0  0  0  0
 11 13  1  0  0  0  0
 11 14  1  0  0  0  0
 14 15  1  0  0  0  0
 14 16  1  0  0  0  0
 14 17  1  0  0  0  0
 17 18  1  0  0  0  0
 17 19  1  0  0  0  0
 17 20  1  0  0  0  0
 20 21  1  0  0  0  0
 20 22  1  0  0  0  0
 20 23  1  0  0  0  0
M  END
> <VConfSearch Rank>
985

> <Conf_Id>
93

> <Delta U+W>
2.589

> <U+W>
-5.793

> <U>
50.122

> <W>
-55.915

> <W(PB)>
-58.031

> <W(SA)>
2.115

> <Valence>
4.132

> <Coulomb>
45.536

> <VdW>
0.454

> <VdW6>
-6.262

> <VdW12>
6.715

> <Bond>
0.182

> <Angle>
1.157

> <Pdih>
2.794

> <Idih>
0.000

> <Tether>
0.000

$$$$
VeraChem MOL file


 23 22  0  0  0  0  0  0  0  0999 V2000     
   18.0559   20.4980   20.4152 N   0  3  0  0  0  0  0  0  0  0  0  0
   17.6873   21.1191   21.1426 H   0  0  0  0  0  0  0  0  0  0  0  0
   17.2484   20.0554   19.9636 H   0  0  0  0  0  0  0  0  0  0  0  0
   18.5026   21.0924   19.7095 H   0  0  0  0  0  0  0  0  0  0  0  0
   19.0173   19.4725   20.9807 C   0  0  0  0  0  0  0  0  0  0  0  0
   19.3457   18.8307   20.1587 H   0  0  0  0  0  0  0  0  0  0  0  0
   18.4662   18.8566   21.6936 H   0  0  0  0  0  0  0  0  0  0  0  0
   20.2458   20.1088   21.6601 C   0  0  0  0  0  0  0  0  0  0  0  0
   20.7670   20.7234   20.9140 H   0  0  0  0  0  0  0  0  0  0  0  0
   19.9294   20.7929   22.4587 H   0  0  0  0  0  0  0  0  0  0  0  0
   21.2422   19.0617   22.2189 C   0  0  0  0  0  0  0  0  0  0  0  0
   22.2452   19.5106   22.2184 H   0  0  0  0  0  0  0  0  0  0  0  0
   21.3026   18.1998   21.5399 H   0  0  0  0  0  0  0  0  0  0  0  0
   20.9460   18.5825   23.6639 C   0  0  0  0  0  0  0  0  0  0  0  0
   21.7536   17.9035   23.9708 H   0  0  0  0  0  0  0  0  0  0  0  0
   20.9918   19.4393   24.3502 H   0  0  0  0  0  0  0  0  0  0  0  0
   19.5908   17.8586   23.8374 C   0  0  0  0  0  0  0  0  0  0  0  0
   19.4875   17.0712   23.0778 H   0  0  0  0  0  0  0  0  0  0  0  0
   18.7664   18.5674   23.6867 H   0  0  0  0  0  0  0  0  0  0  0  0
   19.4545   17.2350   25.2428 C   0  0  0  0  0  0  0  0  0  0  0  0
   18.4833   16.7352   25.3524 H   0  0  0  0  0  0  0  0  0  0  0  0
   19.5283   18.0028   26.0240 H   0  0  0  0  0  0  0  0  0  0  0  0
   20.2390   16.4883   25.4220 H   0  0  0  0  0  0  0  0  0  0  0  0
  1  2  1  0  0  0  0
  1  3  1  0  0  0  0
  1  4  1  0  0  0  0
  1  5  1  0  0  0  0
  5  6  1  0  0  0  0
  5  7  1  0  0  0  0
  5  8  1  0  0  0  0
  8  9  1  0  0  0  0
  8 10  1  0  0  0  0
  8 11  1  0  0  0  0
 11 12  1  0  0  0  0
 11 13  1  0  0  0  0
 11 14  1  0  0  0  0
 14 15  1  0  0  0  0
 14 16  1  0  0  0  0
 14 17  1  0  0  0  0
 17 18  1  0  0  0  0
 17 19  1  0  0  0  0
 17 20  1  0  0  0  0
 20 21  1  0  0  0  0
 20 22  1  0  0  0  0
 20 23  1  0  0  0  0
M  END
> <VConfSearch Rank>
986

> <Conf_Id>
70

> <Delta U+W>
2.599

> <U+W>
-5.783

> <U>
50.122

> <W>
-55.906

> <W(PB)>
-58.010

> <W(SA)>
2.105

> <Valence>
4.132

> <Coulomb>
45.536

> <VdW>
0.454

> <VdW6>
-6.262

> <VdW12>
6.715

> <Bond>
0.182

> <Angle>
1.157

> <Pdih>
2.794

> <Idih>
0.000

> <Tether>
0.000

$$$$
VeraChem MOL file


 23 22  0  0  0  0  0  0  0  0999 V2000     
   21.3813   16.9405   23.7870 N   0  3  0  0  0  0  0  0  0  0  0  0
   21.6225   16.9019   24.7824 H   0  0  0  0  0  0  0  0  0  0  0  0
   21.9689   16.2488   23.3095 H   0  0  0  0  0  0  0  0  0  0  0  0
   20.4109   16.6244   23.6981 H   0  0  0  0  0  0  0  0  0  0  0  0
   21.5709   18.3319   23.2156 C   0  0  0  0  0  0  0  0  0  0  0  0
   21.3304   18.2972   22.1498 H   0  0  0  0  0  0  0  0  0  0  0  0
   22.6279   18.5924   23.3170 H   0  0  0  0  0  0  0  0  0  0  0  0
   20.7096   19.4070   23.9084 C   0  0  0  0  0  0  0  0  0  0  0  0
   20.9838   19.4571   24.9705 H   0  0  0  0  0  0  0  0  0  0  0  0
   20.9627   20.3887   23.4881 H   0  0  0  0  0  0  0  0  0  0  0  0
   19.1819   19.1652   23.7873 C   0  0  0  0  0  0  0  0  0  0  0  0
   18.6524   19.9969   24.2722 H   0  0  0  0  0  0  0  0  0  0  0  0
   18.9109   18.2678   24.3596 H   0  0  0  0  0  0  0  0  0  0  0  0
   18.6583   19.0100   22.3359 C   0  0  0  0  0  0  0  0  0  0  0  0
   19.1074   18.1252   21.8657 H   0  0  0  0  0  0  0  0  0  0  0  0
   17.5777   18.8150   22.3768 H   0  0  0  0  0  0  0  0  0  0  0  0
   18.9106   20.2540   21.4517 C   0  0  0  0  0  0  0  0  0  0  0  0
   19.9893   20.4260   21.3387 H   0  0  0  0  0  0  0  0  0  0  0  0
   18.4947   21.1465   21.9397 H   0  0  0  0  0  0  0  0  0  0  0  0
   18.2797   20.0948   20.0520 C   0  0  0  0  0  0  0  0  0  0  0  0
   18.4702   20.9843   19.4376 H   0  0  0  0  0  0  0  0  0  0  0  0
   17.1924   19.9605   20.1216 H   0  0  0  0  0  0  0  0  0  0  0  0
   18.6986   19.2266   19.5269 H   0  0  0  0  0  0  0  0  0  0  0  0
  1  2  1  0  0  0  0
  1  3  1  0  0  0  0
  1  4  1  0  0  0  0
  1  5  1  0  0  0  0
  5  6  1  0  0  0  0
  5  7  1  0  0  0  0
  5  8  1  0  0  0  0
  8  9  1  0  0  0  0
  8 10  1  0  0  0  0
  8 11  1  0  0  0  0
 11 12  1  0  0  0  0
 11 13  1  0  0  0  0
 11 14  1  0  0  0  0
 14 15  1  0  0  0  0
 14 16  1  0  0  0  0
 14 17  1  0  0  0  0
 17 18  1  0  0  0  0
 17 19  1  0  0  0  0
 17 20  1  0  0  0  0
 20 21  1  0  0  0  0
 20 22  1  0  0  0  0
 20 23  1  0  0  0  0
M  END
> <VConfSearch Rank>
987

> <Conf_Id>
72

> <Delta U+W>
1.051

> <U+W>
-7.331

> <U>
48.590

> <W>
-55.922

> <W(PB)>
-58.012

> <W(SA)>
2.090

> <Valence>
2.601

> <Coulomb>
45.520

> <VdW>
0.469

> <VdW6>
-6.867

> <VdW12>
7.336

> <Bond>
0.205

> <Angle>
0.962

> <Pdih>
1.434

> <Idih>
0.000

> <Tether>
0.000

$$$$
VeraChem MOL file


 23 22  0  0  0  0  0  0  0  0999 V2000     
   17.4756   20.9461   23.4610 N   0  3  0  0  0  0  0  0  0  0  0  0
   17.5127   21.7707   24.0698 H   0  0  0  0  0  0  0  0  0  0  0  0
   16.5547   20.5170   23.5970 H   0  0  0  0  0  0  0  0  0  0  0  0
   17.5098   21.2870   22.4949 H   0  0  0  0  0  0  0  0  0  0  0  0
   18.6005   19.9757   23.7587 C   0  0  0  0  0  0  0  0  0  0  0  0
   18.5205   19.6768   24.8073 H   0  0  0  0  0  0  0  0  0  0  0  0
   19.5466   20.5063   23.6232 H   0  0  0  0  0  0  0  0  0  0  0  0
   18.5731   18.7252   22.8602 C   0  0  0  0  0  0  0  0  0  0  0  0
   17.6047   18.2208   22.9759 H   0  0  0  0  0  0  0  0  0  0  0  0
   18.6403   19.0248   21.8065 H   0  0  0  0  0  0  0  0  0  0  0  0
   19.7031   17.7213   23.1985 C   0  0  0  0  0  0  0  0  0  0  0  0
   19.6148   16.8463   22.5409 H   0  0  0  0  0  0  0  0  0  0  0  0
   19.5471   17.3420   24.2179 H   0  0  0  0  0  0  0  0  0  0  0  0
   21.1403   18.3009   23.1010 C   0  0  0  0  0  0  0  0  0  0  0  0
   21.2781   19.0671   23.8757 H   0  0  0  0  0  0  0  0  0  0  0  0
   21.8567   17.5041   23.3440 H   0  0  0  0  0  0  0  0  0  0  0  0
   21.5149   18.9067   21.7244 C   0  0  0  0  0  0  0  0  0  0  0  0
   22.5421   19.2933   21.7800 H   0  0  0  0  0  0  0  0  0  0  0  0
   20.8788   19.7748   21.5057 H   0  0  0  0  0  0  0  0  0  0  0  0
   21.4282   17.8904   20.5634 C   0  0  0  0  0  0  0  0  0  0  0  0
   22.0473   17.0068   20.7658 H   0  0  0  0  0  0  0  0  0  0  0  0
   21.7839   18.3428   19.6287 H   0  0  0  0  0  0  0  0  0  0  0  0
   20.3965   17.5564   20.3972 H   0  0  0  0  0  0  0  0  0  0  0  0
  1  2  1  0  0  0  0
  1  3  1  0  0  0  0
  1  4  1  0  0  0  0
  1  5  1  0  0  0  0
  5  6  1  0  0  0  0
  5  7  1  0  0  0  0
  5  8  1  0  0  0  0
  8  9  1  0  0  0  0
  8 10  1  0  0  0  0
  8 11  1  0  0  0  0
 11 12  1  0  0  0  0
 11 13  1  0  0  0  0
 11 14  1  0  0  0  0
 14 15  1  0  0  0  0
 14 16  1  0  0  0  0
 14 17  1  0  0  0  0
 17 18  1  0  0  0  0
 17 19  1  0  0  0  0
 17 20  1  0  0  0  0
 20 21  1  0  0  0  0
 20 22  1  0  0  0  0
 20 23  1  0  0  0  0
M  END
> <VConfSearch Rank>
988

> <Conf_Id>
26

> <Delta U+W>
1.076

> <U+W>
-7.306

> <U>
48.641

> <W>
-55.947

> <W(PB)>
-58.031

> <W(SA)>
2.084

> <Valence>
2.922

> <Coulomb>
45.269

> <VdW>
0.449

> <VdW6>
-7.045

> <VdW12>
7.494

> <Bond>
0.220

> <Angle>
1.205

> <Pdih>
1.497

> <Idih>
0.000

> <Tether>
0.000

$$$$
VeraChem MOL file


 23 22  0  0  0  0  0  0  0  0999 V2000     
   18.6166   18.6908   19.7363 N   0  3  0  0  0  0  0  0  0  0  0  0
   17.9354   19.4097   19.4720 H   0  0  0  0  0  0  0  0  0  0  0  0
   18.3778   17.8453   19.2070 H   0  0  0  0  0  0  0  0  0  0  0  0
   19.5324   19.0047   19.3994 H   0  0  0  0  0  0  0  0  0  0  0  0
   18.6197   18.4375   21.2301 C   0  0  0  0  0  0  0  0  0  0  0  0
   19.3428   17.6436   21.4347 H   0  0  0  0  0  0  0  0  0  0  0  0
   17.6264   18.0801   21.5145 H   0  0  0  0  0  0  0  0  0  0  0  0
   18.9754   19.6889   22.0543 C   0  0  0  0  0  0  0  0  0  0  0  0
   19.9670   20.0562   21.7605 H   0  0  0  0  0  0  0  0  0  0  0  0
   18.2657   20.4914   21.8134 H   0  0  0  0  0  0  0  0  0  0  0  0
   18.9375   19.4297   23.5809 C   0  0  0  0  0  0  0  0  0  0  0  0
   17.9080   19.1807   23.8729 H   0  0  0  0  0  0  0  0  0  0  0  0
   19.1773   20.3620   24.1094 H   0  0  0  0  0  0  0  0  0  0  0  0
   19.8790   18.2974   24.0731 C   0  0  0  0  0  0  0  0  0  0  0  0
   19.7836   18.2118   25.1643 H   0  0  0  0  0  0  0  0  0  0  0  0
   19.5339   17.3353   23.6710 H   0  0  0  0  0  0  0  0  0  0  0  0
   21.3757   18.4822   23.7154 C   0  0  0  0  0  0  0  0  0  0  0  0
   21.5108   18.4650   22.6256 H   0  0  0  0  0  0  0  0  0  0  0  0
   21.9370   17.6198   24.1014 H   0  0  0  0  0  0  0  0  0  0  0  0
   21.9897   19.7757   24.2970 C   0  0  0  0  0  0  0  0  0  0  0  0
   21.5334   20.6710   23.8567 H   0  0  0  0  0  0  0  0  0  0  0  0
   23.0667   19.8174   24.0896 H   0  0  0  0  0  0  0  0  0  0  0  0
   21.8553   19.8212   25.3855 H   0  0  0  0  0  0  0  0  0  0  0  0
  1  2  1  0  0  0  0
  1  3  1  0  0  0  0
  1  4  1  0  0  0  0
  1  5  1  0  0  0  0
  5  6  1  0  0  0  0
  5  7  1  0  0  0  0
  5  8  1  0  0  0  0
  8  9  1  0  0  0  0
  8 10  1  0  0  0  0
  8 11  1  0  0  0  0
 11 12  1  0  0  0  0
 11 13  1  0  0  0  0
 11 14  1  0  0  0  0
 14 15  1  0  0  0  0
 14 16  1  0  0  0  0
 14 17  1  0  0  0  0
 17 18  1  0  0  0  0
 17 19  1  0  0  0  0
 17 20  1  0  0  0  0
 20 21  1  0  0  0  0
 20 22  1  0  0  0  0
 20 23  1  0  0  0  0
M  END
> <VConfSearch Rank>
989

> <Conf_Id>
90

> <Delta U+W>
1.131

> <U+W>
-7.251

> <U>
48.641

> <W>
-55.892

> <W(PB)>
-57.962

> <W(SA)>
2.070

> <Valence>
2.922

> <Coulomb>
45.269

> <VdW>
0.450

> <VdW6>
-7.045

> <VdW12>
7.495

> <Bond>
0.220

> <Angle>
1.205

> <Pdih>
1.497

> <Idih>
0.000

> <Tether>
0.000

$$$$
VeraChem MOL file


 23 22  0  0  0  0  0  0  0  0999 V2000     
   21.8045   17.2301   22.3241 N   0  3  0  0  0  0  0  0  0  0  0  0
   22.3377   16.6088   22.9419 H   0  0  0  0  0  0  0  0  0  0  0  0
   21.8555   18.1710   22.7261 H   0  0  0  0  0  0  0  0  0  0  0  0
   22.2990   17.2559   21.4267 H   0  0  0  0  0  0  0  0  0  0  0  0
   20.3695   16.7682   22.1630 C   0  0  0  0  0  0  0  0  0  0  0  0
   19.9113   16.7335   23.1548 H   0  0  0  0  0  0  0  0  0  0  0  0
   20.3900   15.7507   21.7635 H   0  0  0  0  0  0  0  0  0  0  0  0
   19.5301   17.6667   21.2319 C   0  0  0  0  0  0  0  0  0  0  0  0
   19.9728   17.6563   20.2270 H   0  0  0  0  0  0  0  0  0  0  0  0
   18.5284   17.2287   21.1291 H   0  0  0  0  0  0  0  0  0  0  0  0
   19.3999   19.1316   21.7196 C   0  0  0  0  0  0  0  0  0  0  0  0
   18.8020   19.6921   20.9879 H   0  0  0  0  0  0  0  0  0  0  0  0
   20.3907   19.6032   21.7304 H   0  0  0  0  0  0  0  0  0  0  0  0
   18.7364   19.2497   23.1150 C   0  0  0  0  0  0  0  0  0  0  0  0
   17.7857   18.6989   23.1074 H   0  0  0  0  0  0  0  0  0  0  0  0
   19.3661   18.7698   23.8760 H   0  0  0  0  0  0  0  0  0  0  0  0
   18.4543   20.7114   23.5385 C   0  0  0  0  0  0  0  0  0  0  0  0
   17.8910   20.7028   24.4821 H   0  0  0  0  0  0  0  0  0  0  0  0
   17.8032   21.1947   22.7966 H   0  0  0  0  0  0  0  0  0  0  0  0
   19.7367   21.5524   23.7315 C   0  0  0  0  0  0  0  0  0  0  0  0
   20.4170   21.0764   24.4496 H   0  0  0  0  0  0  0  0  0  0  0  0
   19.4873   22.5496   24.1165 H   0  0  0  0  0  0  0  0  0  0  0  0
   20.2752   21.6899   22.7857 H   0  0  0  0  0  0  0  0  0  0  0  0
  1  2  1  0  0  0  0
  1  3  1  0  0  0  0
  1  4  1  0  0  0  0
  1  5  1  0  0  0  0
  5  6  1  0  0  0  0
  5  7  1  0  0  0  0
  5  8  1  0  0  0  0
  8  9  1  0  0  0  0
  8 10  1  0  0  0  0
  8 11  1  0  0  0  0
 11 12  1  0  0  0  0
 11 13  1  0  0  0  0
 11 14  1  0  0  0  0
 14 15  1  0  0  0  0
 14 16  1  0  0  0  0
 14 17  1  0  0  0  0
 17 18  1  0  0  0  0
 17 19  1  0  0  0  0
 17 20  1  0  0  0  0
 20 21  1  0  0  0  0
 20 22  1  0  0  0  0
 20 23  1  0  0  0  0
M  END
> <VConfSearch Rank>
990

> <Conf_Id>
85

> <Delta U+W>
1.193

> <U+W>
-7.189

> <U>
48.775

> <W>
-55.965

> <W(PB)>
-58.038

> <W(SA)>
2.073

> <Valence>
2.602

> <Coulomb>
45.581

> <VdW>
0.592

> <VdW6>
-6.616

> <VdW12>
7.208

> <Bond>
0.196

> <Angle>
0.832

> <Pdih>
1.574

> <Idih>
0.000

> <Tether>
0.000

$$$$
VeraChem MOL file


 23 22  0  0  0  0  0  0  0  0999 V2000     
   18.0993   17.8236   21.9069 N   0  3  0  0  0  0  0  0  0  0  0  0
   18.3637   18.3002   22.7750 H   0  0  0  0  0  0  0  0  0  0  0  0
   17.7521   16.8923   22.1608 H   0  0  0  0  0  0  0  0  0  0  0  0
   17.3089   18.3374   21.5041 H   0  0  0  0  0  0  0  0  0  0  0  0
   19.2672   17.7453   20.9426 C   0  0  0  0  0  0  0  0  0  0  0  0
   18.9084   17.2293   20.0479 H   0  0  0  0  0  0  0  0  0  0  0  0
   20.0538   17.1348   21.3939 H   0  0  0  0  0  0  0  0  0  0  0  0
   19.8382   19.1192   20.5363 C   0  0  0  0  0  0  0  0  0  0  0  0
   20.3684   18.9915   19.5833 H   0  0  0  0  0  0  0  0  0  0  0  0
   19.0155   19.8164   20.3290 H   0  0  0  0  0  0  0  0  0  0  0  0
   20.8308   19.7499   21.5498 C   0  0  0  0  0  0  0  0  0  0  0  0
   21.1968   20.6882   21.1103 H   0  0  0  0  0  0  0  0  0  0  0  0
   21.7176   19.1095   21.6543 H   0  0  0  0  0  0  0  0  0  0  0  0
   20.2379   20.0730   22.9453 C   0  0  0  0  0  0  0  0  0  0  0  0
   20.6956   21.0024   23.3121 H   0  0  0  0  0  0  0  0  0  0  0  0
   19.1641   20.2862   22.8609 H   0  0  0  0  0  0  0  0  0  0  0  0
   20.5070   18.9654   23.9931 C   0  0  0  0  0  0  0  0  0  0  0  0
   21.5885   18.8950   24.1759 H   0  0  0  0  0  0  0  0  0  0  0  0
   20.2000   17.9823   23.6170 H   0  0  0  0  0  0  0  0  0  0  0  0
   19.7854   19.2539   25.3265 C   0  0  0  0  0  0  0  0  0  0  0  0
   20.1148   20.2102   25.7535 H   0  0  0  0  0  0  0  0  0  0  0  0
   19.9996   18.4668   26.0611 H   0  0  0  0  0  0  0  0  0  0  0  0
   18.6973   19.2990   25.1892 H   0  0  0  0  0  0  0  0  0  0  0  0
  1  2  1  0  0  0  0
  1  3  1  0  0  0  0
  1  4  1  0  0  0  0
  1  5  1  0  0  0  0
  5  6  1  0  0  0  0
  5  7  1  0  0  0  0
  5  8  1  0  0  0  0
  8  9  1  0  0  0  0
  8 10  1  0  0  0  0
  8 11  1  0  0  0  0
 11 12  1  0  0  0  0
 11 13  1  0  0  0  0
 11 14  1  0  0  0  0
 14 15  1  0  0  0  0
 14 16  1  0  0  0  0
 14 17  1  0  0  0  0
 17 18  1  0  0  0  0
 17 19  1  0  0  0  0
 17 20  1  0  0  0  0
 20 21  1  0  0  0  0
 20 22  1  0  0  0  0
 20 23  1  0  0  0  0
M  END
> <VConfSearch Rank>
991

> <Conf_Id>
82

> <Delta U+W>
5.994

> <U+W>
-2.388

> <U>
52.836

> <W>
-55.224

> <W(PB)>
-57.261

> <W(SA)>
2.037

> <Valence>
5.785

> <Coulomb>
46.744

> <VdW>
0.307

> <VdW6>
-7.672

> <VdW12>
7.979

> <Bond>
0.217

> <Angle>
1.470

> <Pdih>
4.098

> <Idih>
0.000

> <Tether>
0.000

$$$$
VeraChem MOL file


 23 22  0  0  0  0  0  0  0  0999 V2000     
   20.0677   21.0217   22.2428 N   0  3  0  0  0  0  0  0  0  0  0  0
   20.8134   21.3285   21.6098 H   0  0  0  0  0  0  0  0  0  0  0  0
   19.4106   21.8044   22.3320 H   0  0  0  0  0  0  0  0  0  0  0  0
   19.5702   20.2541   21.7802 H   0  0  0  0  0  0  0  0  0  0  0  0
   20.6167   20.5913   23.5893 C   0  0  0  0  0  0  0  0  0  0  0  0
   19.7791   20.3373   24.2442 H   0  0  0  0  0  0  0  0  0  0  0  0
   21.1306   21.4569   24.0160 H   0  0  0  0  0  0  0  0  0  0  0  0
   21.6020   19.4070   23.5153 C   0  0  0  0  0  0  0  0  0  0  0  0
   22.2930   19.5512   22.6742 H   0  0  0  0  0  0  0  0  0  0  0  0
   22.2238   19.4333   24.4201 H   0  0  0  0  0  0  0  0  0  0  0  0
   20.9449   18.0029   23.4328 C   0  0  0  0  0  0  0  0  0  0  0  0
   20.3584   17.8093   24.3416 H   0  0  0  0  0  0  0  0  0  0  0  0
   21.7549   17.2603   23.4428 H   0  0  0  0  0  0  0  0  0  0  0  0
   20.0774   17.7497   22.1732 C   0  0  0  0  0  0  0  0  0  0  0  0
   20.4463   18.3508   21.3316 H   0  0  0  0  0  0  0  0  0  0  0  0
   20.2053   16.7022   21.8663 H   0  0  0  0  0  0  0  0  0  0  0  0
   18.5675   17.9930   22.4140 C   0  0  0  0  0  0  0  0  0  0  0  0
   18.3922   18.9788   22.8611 H   0  0  0  0  0  0  0  0  0  0  0  0
   18.1944   17.2597   23.1428 H   0  0  0  0  0  0  0  0  0  0  0  0
   17.7541   17.8688   21.1083 C   0  0  0  0  0  0  0  0  0  0  0  0
   18.0771   18.6095   20.3655 H   0  0  0  0  0  0  0  0  0  0  0  0
   16.6853   18.0293   21.3010 H   0  0  0  0  0  0  0  0  0  0  0  0
   17.8693   16.8705   20.6663 H   0  0  0  0  0  0  0  0  0  0  0  0
  1  2  1  0  0  0  0
  1  3  1  0  0  0  0
  1  4  1  0  0  0  0
  1  5  1  0  0  0  0
  5  6  1  0  0  0  0
  5  7  1  0  0  0  0
  5  8  1  0  0  0  0
  8  9  1  0  0  0  0
  8 10  1  0  0  0  0
  8 11  1  0  0  0  0
 11 12  1  0  0  0  0
 11 13  1  0  0  0  0
 11 14  1  0  0  0  0
 14 15  1  0  0  0  0
 14 16  1  0  0  0  0
 14 17  1  0  0  0  0
 17 18  1  0  0  0  0
 17 19  1  0  0  0  0
 17 20  1  0  0  0  0
 20 21  1  0  0  0  0
 20 22  1  0  0  0  0
 20 23  1  0  0  0  0
M  END
> <VConfSearch Rank>
992

> <Conf_Id>
5

> <Delta U+W>
6.087

> <U+W>
-2.295

> <U>
52.836

> <W>
-55.131

> <W(PB)>
-57.202

> <W(SA)>
2.071

> <Valence>
5.785

> <Coulomb>
46.744

> <VdW>
0.307

> <VdW6>
-7.672

> <VdW12>
7.980

> <Bond>
0.217

> <Angle>
1.470

> <Pdih>
4.098

> <Idih>
0.000

> <Tether>
0.000

$$$$
