@<TRIPOS>MOLECULE
CD_guest-3_fast_vm2_single.mol2 : feprocess host+ligand conformer 1
         155         160           2
SMALL
USER_CHARGES
 
@<TRIPOS>ATOM
       1    C1      16.301232   15.231491   21.754163 C.3        1 MOL1         0.2972
       2    H1      15.227781   15.155102   21.970623 H          1 MOL1         0.0751
       3    O1      16.659388   16.547662   21.285701 O.3        1 MOL1        -0.3740
       4    C2      17.124132   14.910299   23.024754 C.3        1 MOL1         0.1003
       5    H2      16.905367   13.870108   23.299496 H          1 MOL1         0.0783
       6    O2      16.766930   15.770928   24.119616 O.3        1 MOL1        -0.5519
       7    H3      16.009032   16.329838   23.817696 H          1 MOL1         0.3769
       8    C3      18.636194   15.021777   22.729307 C.3        1 MOL1         0.1053
       9    H4      18.861617   16.068943   22.507063 H          1 MOL1         0.0783
      10    O3      19.362463   14.617618   23.892068 O.3        1 MOL1        -0.5519
      11    H5      18.841619   14.984804   24.641635 H          1 MOL1         0.3769
      12    C4      19.050079   14.185723   21.491804 C.3        1 MOL1         0.1018
      13    H6      19.125845   13.130544   21.786268 H          1 MOL1         0.0783
      14    C5      18.063233   14.345227   20.297148 C.3        1 MOL1         0.1043
      15    H7      18.240878   15.330424   19.847163 H          1 MOL1         0.0783
      16    O4      16.682815   14.278413   20.740680 O.3        1 MOL1        -0.3740
      17    C6      18.274205   13.293342   19.182273 C.3        1 MOL1         0.0138
      18    H8      19.223350   13.510737   18.673777 H          1 MOL1         0.0794
      19    H9      17.472969   13.404116   18.439321 H          1 MOL1         0.0794
      20    O5      18.295068   11.956485   19.698002 O.3        1 MOL1        -0.5486
      21    H10     18.354344   11.342867   18.933343 H          1 MOL1         0.3769
      22    C7      14.925869   20.256365   20.543559 C.3        1 MOL1         0.2972
      23    H11     14.275898   21.083822   20.231286 H          1 MOL1         0.0751
      24    O6      16.243104   20.728336   20.902384 O.3        1 MOL1        -0.3740
      25    C8      14.306017   19.474020   21.734952 C.3        1 MOL1         0.1003
      26    H12     13.356613   19.051416   21.380981 H          1 MOL1         0.0783
      27    O7      14.039396   20.322031   22.861737 O.3        1 MOL1        -0.5519
      28    H13     14.910975   20.675338   23.172419 H          1 MOL1         0.3769
      29    C9      15.223125   18.297359   22.147899 C.3        1 MOL1         0.1053
      30    H14     16.159049   18.717911   22.536600 H          1 MOL1         0.0783
      31    O8      14.577326   17.524747   23.165493 O.3        1 MOL1        -0.5519
      32    H15     14.163992   18.187069   23.764462 H          1 MOL1         0.3769
      33    C10     15.561306   17.405551   20.925337 C.3        1 MOL1         0.1018
      34    H16     14.668941   16.828575   20.650118 H          1 MOL1         0.0783
      35    C11     16.021731   18.237401   19.696957 C.3        1 MOL1         0.1043
      36    H17     17.004684   18.666644   19.917815 H          1 MOL1         0.0783
      37    O9      15.082092   19.314513   19.457413 O.3        1 MOL1        -0.3740
      38    C12     16.188276   17.405939   18.399793 C.3        1 MOL1         0.0138
      39    H18     17.157924   16.892696   18.439206 H          1 MOL1         0.0794
      40    H19     16.224189   18.094858   17.545398 H          1 MOL1         0.0794
      41    O10     15.145399   16.441662   18.212945 O.3        1 MOL1        -0.5486
      42    H20     15.302229   15.713731   18.853870 H          1 MOL1         0.3769
      43    C13     18.477364   24.039400   21.923495 C.3        1 MOL1         0.2972
      44    H21     18.876583   25.014903   22.229913 H          1 MOL1         0.0751
      45    O11     19.502169   23.192679   21.364003 O.3        1 MOL1        -0.3740
      46    C14     17.824293   23.318979   23.130666 C.3        1 MOL1         0.1003
      47    H22     16.982725   23.939770   23.464921 H          1 MOL1         0.0783
      48    O12     18.746511   23.150166   24.219293 O.3        1 MOL1        -0.5519
      49    H23     19.601987   23.564679   23.948372 H          1 MOL1         0.3769
      50    C15     17.267385   21.944980   22.701477 C.3        1 MOL1         0.1053
      51    H24     18.125835   21.317342   22.438070 H          1 MOL1         0.0783
      52    O13     16.565893   21.361844   23.803425 O.3        1 MOL1        -0.5519
      53    H25     17.137623   21.548380   24.582459 H          1 MOL1         0.3769
      54    C16     16.340433   22.054859   21.462530 C.3        1 MOL1         0.1018
      55    H26     15.364364   22.437459   21.788872 H          1 MOL1         0.0783
      56    C17     16.925456   22.975186   20.351115 C.3        1 MOL1         0.1043
      57    H27     17.742283   22.431275   19.859124 H          1 MOL1         0.0783
      58    O14     17.452272   24.202321   20.921067 O.3        1 MOL1        -0.3740
      59    C18     15.901367   23.345137   19.251574 C.3        1 MOL1         0.0138
      60    H28     15.700529   22.450174   18.647266 H          1 MOL1         0.0794
      61    H29     16.356023   24.091870   18.586822 H          1 MOL1         0.0794
      62    O15     14.675661   23.846199   19.799397 O.3        1 MOL1        -0.5486
      63    H30     14.111233   24.137727   19.050311 H          1 MOL1         0.3769
      64    C19     23.577826   22.835995   20.878533 C.3        1 MOL1         0.2972
      65    H31     24.647955   22.946845   20.661473 H          1 MOL1         0.0751
      66    O16     23.222084   21.448667   21.071609 O.3        1 MOL1        -0.3740
      67    C20     23.166384   23.675951   22.118160 C.3        1 MOL1         0.1003
      68    H32     23.341739   24.728871   21.861270 H          1 MOL1         0.0783
      69    O17     23.945059   23.352588   23.279174 O.3        1 MOL1        -0.5519
      70    H33     23.722062   22.418578   23.521314 H          1 MOL1         0.3769
      71    C21     21.656524   23.507083   22.413602 C.3        1 MOL1         0.1053
      72    H34     21.482819   22.465802   22.719188 H          1 MOL1         0.0783
      73    O18     21.286300   24.393491   23.474391 O.3        1 MOL1        -0.5519
      74    H35     22.029634   24.345926   24.117833 H          1 MOL1         0.3769
      75    C22     20.795047   23.792133   21.154382 C.3        1 MOL1         0.1018
      76    H36     20.723301   24.876621   21.002739 H          1 MOL1         0.0783
      77    C23     21.365412   23.133018   19.868605 C.3        1 MOL1         0.1043
      78    H37     21.164764   22.060867   19.934337 H          1 MOL1         0.0783
      79    O19     22.797126   23.337195   19.772130 O.3        1 MOL1        -0.3740
      80    C24     20.696973   23.623715   18.560940 C.3        1 MOL1         0.0138
      81    H38     19.681206   23.209561   18.510142 H          1 MOL1         0.0794
      82    H39     21.256643   23.212575   17.710287 H          1 MOL1         0.0794
      83    O20     20.642014   25.052019   18.467109 O.3        1 MOL1        -0.5486
      84    H40     19.920276   25.360873   19.055598 H          1 MOL1         0.3769
      85    C25     24.720136   17.704166   22.083287 C.3        1 MOL1         0.2972
      86    H41     25.338599   16.866057   22.429160 H          1 MOL1         0.0751
      87    O21     23.550885   17.241351   21.377008 O.3        1 MOL1        -0.3740
      88    C26     24.279906   18.577705   23.287707 C.3        1 MOL1         0.1003
      89    H42     25.194522   18.934802   23.778825 H          1 MOL1         0.0783
      90    O22     23.496183   17.829164   24.232171 O.3        1 MOL1        -0.5519
      91    H43     23.680306   16.872277   24.070903 H          1 MOL1         0.3769
      92    C27     23.473937   19.807095   22.814956 C.3        1 MOL1         0.1053
      93    H44     22.528724   19.436161   22.407884 H          1 MOL1         0.0783
      94    O23     23.214182   20.649426   23.941051 O.3        1 MOL1        -0.5519
      95    H45     22.938378   20.027590   24.651987 H          1 MOL1         0.3769
      96    C28     24.203406   20.591821   21.694753 C.3        1 MOL1         0.1018
      97    H46     25.028013   21.163443   22.140678 H          1 MOL1         0.0783
      98    C29     24.752982   19.649194   20.587619 C.3        1 MOL1         0.1043
      99    H47     23.899350   19.256502   20.020327 H          1 MOL1         0.0783
     100    O24     25.476381   18.541914   21.182996 O.3        1 MOL1        -0.3740
     101    C30     25.684621   20.360369   19.577314 C.3        1 MOL1         0.0138
     102    H48     25.074820   21.024538   18.949869 H          1 MOL1         0.0794
     103    H49     26.127879   19.603311   18.916590 H          1 MOL1         0.0794
     104    O25     26.712363   21.117341   20.228766 O.3        1 MOL1        -0.5486
     105    H50     27.309536   21.469974   19.533429 H          1 MOL1         0.3769
     106    C31     21.373520   13.777468   20.786785 C.3        1 MOL1         0.2972
     107    H51     20.981115   12.784329   20.532532 H          1 MOL1         0.0751
     108    O26     20.311734   14.720529   21.043910 O.3        1 MOL1        -0.3740
     109    C32     22.316910   13.716177   22.015764 C.3        1 MOL1         0.1003
     110    H52     23.182552   13.106545   21.725135 H          1 MOL1         0.0783
     111    O27     21.686708   13.104689   23.150497 O.3        1 MOL1        -0.5519
     112    H53     20.896308   13.656141   23.379244 H          1 MOL1         0.3769
     113    C33     22.833502   15.132652   22.369603 C.3        1 MOL1         0.1053
     114    H54     21.977567   15.738313   22.698596 H          1 MOL1         0.0783
     115    O28     23.787767   15.022807   23.431675 O.3        1 MOL1        -0.5519
     116    H55     23.417781   14.337755   24.034245 H          1 MOL1         0.3769
     117    C34     23.471830   15.821983   21.130299 C.3        1 MOL1         0.1018
     118    H56     24.466325   15.391589   20.957591 H          1 MOL1         0.0783
     119    C35     22.620788   15.657678   19.838501 C.3        1 MOL1         0.1043
     120    H57     21.745577   16.313628   19.917629 H          1 MOL1         0.0783
     121    O29     22.163290   14.290506   19.693980 O.3        1 MOL1        -0.3740
     122    C36     23.378359   16.066077   18.550996 C.3        1 MOL1         0.0138
     123    H58     23.543647   17.150823   18.570753 H          1 MOL1         0.0794
     124    H59     22.737066   15.849160   17.686450 H          1 MOL1         0.0794
     125    O30     24.635679   15.393395   18.410700 O.3        1 MOL1        -0.5486
     126    H60     25.265187   15.802609   19.041874 H          1 MOL1         0.3769
     127    C1      22.111216   20.332137   15.759510 C.3        1 MOL1        -0.2427
     128    H1      22.808252   19.485533   15.708993 H          1 MOL1         0.0958
     129    H2      21.784476   20.561162   14.736908 H          1 MOL1         0.0958
     130    H3      22.658523   21.203810   16.141739 H          1 MOL1         0.0958
     131    C2      20.900393   20.000733   16.656521 C.3        1 MOL1        -0.1412
     132    H4      20.352891   19.146861   16.233532 H          1 MOL1         0.0947
     133    H5      20.206517   20.852777   16.660072 H          1 MOL1         0.0947
     134    C3      21.338253   19.676461   18.100057 C.3        1 MOL1        -0.1437
     135    H6      22.015918   18.814040   18.090442 H          1 MOL1         0.0947
     136    H7      21.914244   20.519326   18.503653 H          1 MOL1         0.0947
     137    C4      20.131927   19.370548   19.015883 C.3        1 MOL1        -0.1437
     138    H8      19.624682   18.462172   18.662939 H          1 MOL1         0.0947
     139    H9      19.401073   20.189041   18.955727 H          1 MOL1         0.0947
     140    C5      20.569782   19.187631   20.483874 C.3        1 MOL1        -0.1437
     141    H10     21.346409   18.417777   20.550772 H          1 MOL1         0.0947
     142    H11     21.016556   20.118594   20.847133 H          1 MOL1         0.0947
     143    C6      19.394149   18.813443   21.403498 C.3        1 MOL1        -0.1437
     144    H12     18.987095   17.841892   21.096381 H          1 MOL1         0.0947
     145    H13     18.591806   19.548428   21.279956 H          1 MOL1         0.0947
     146    C7      19.821064   18.759737   22.885726 C.3        1 MOL1        -0.1477
     147    H14     20.569394   17.966572   23.021717 H          1 MOL1         0.0947
     148    H15     20.295117   19.707078   23.176376 H          1 MOL1         0.0947
     149    C8      18.616805   18.503864   23.804121 C.3        1 MOL1         0.0145
     150    H16     18.057436   17.639007   23.442486 H          1 MOL1         0.0921
     151    H17     17.948530   19.368177   23.790923 H          1 MOL1         0.0921
     152    N1      19.011991   18.231607   25.238462 N.4        1 MOL1        -0.5969
     153    H18     19.657937   17.438288   25.305032 H          1 MOL1         0.3603
     154    H19     18.193118   18.003276   25.812878 H          1 MOL1         0.3603
     155    H20     19.473764   19.040506   25.666212 H          1 MOL1         0.3603
@<TRIPOS>BOND
    1     1     2    1
    2     1     3    1
    3     1     4    1
    4     4     5    1
    5     4     6    1
    6     6     7    1
    7     4     8    1
    8     8     9    1
    9     8    10    1
   10    10    11    1
   11     8    12    1
   12    12    13    1
   13    12    14    1
   14    14    15    1
   15     1    16    1
   16    14    16    1
   17    14    17    1
   18    17    18    1
   19    17    19    1
   20    17    20    1
   21    20    21    1
   22    22    23    1
   23    22    24    1
   24    22    25    1
   25    25    26    1
   26    25    27    1
   27    27    28    1
   28    25    29    1
   29    29    30    1
   30    29    31    1
   31    31    32    1
   32     3    33    1
   33    29    33    1
   34    33    34    1
   35    33    35    1
   36    35    36    1
   37    22    37    1
   38    35    37    1
   39    35    38    1
   40    38    39    1
   41    38    40    1
   42    38    41    1
   43    41    42    1
   44    43    44    1
   45    43    45    1
   46    43    46    1
   47    46    47    1
   48    46    48    1
   49    48    49    1
   50    46    50    1
   51    50    51    1
   52    50    52    1
   53    52    53    1
   54    24    54    1
   55    50    54    1
   56    54    55    1
   57    54    56    1
   58    56    57    1
   59    43    58    1
   60    56    58    1
   61    56    59    1
   62    59    60    1
   63    59    61    1
   64    59    62    1
   65    62    63    1
   66    64    65    1
   67    64    66    1
   68    64    67    1
   69    67    68    1
   70    67    69    1
   71    69    70    1
   72    67    71    1
   73    71    72    1
   74    71    73    1
   75    73    74    1
   76    45    75    1
   77    71    75    1
   78    75    76    1
   79    75    77    1
   80    77    78    1
   81    64    79    1
   82    77    79    1
   83    77    80    1
   84    80    81    1
   85    80    82    1
   86    80    83    1
   87    83    84    1
   88    85    86    1
   89    85    87    1
   90    85    88    1
   91    88    89    1
   92    88    90    1
   93    90    91    1
   94    88    92    1
   95    92    93    1
   96    92    94    1
   97    94    95    1
   98    66    96    1
   99    92    96    1
  100    96    97    1
  101    96    98    1
  102    98    99    1
  103    85   100    1
  104    98   100    1
  105    98   101    1
  106   101   102    1
  107   101   103    1
  108   101   104    1
  109   104   105    1
  110   106   107    1
  111    12   108    1
  112   106   108    1
  113   106   109    1
  114   109   110    1
  115   109   111    1
  116   111   112    1
  117   109   113    1
  118   113   114    1
  119   113   115    1
  120   115   116    1
  121    87   117    1
  122   113   117    1
  123   117   118    1
  124   117   119    1
  125   119   120    1
  126   106   121    1
  127   119   121    1
  128   119   122    1
  129   122   123    1
  130   122   124    1
  131   122   125    1
  132   125   126    1
  133   127   128    1
  134   127   129    1
  135   127   130    1
  136   127   131    1
  137   131   132    1
  138   131   133    1
  139   131   134    1
  140   134   135    1
  141   134   136    1
  142   134   137    1
  143   137   138    1
  144   137   139    1
  145   137   140    1
  146   140   141    1
  147   140   142    1
  148   140   143    1
  149   143   144    1
  150   143   145    1
  151   143   146    1
  152   146   147    1
  153   146   148    1
  154   146   149    1
  155   149   150    1
  156   149   151    1
  157   149   152    1
  158   152   153    1
  159   152   154    1
  160   152   155    1
@<TRIPOS>SUBSTRUCTURE
       1 MOL1            1 RESIDUE      1      MOL     
       2 MOL1          155 RESIDUE      1      MOL     
@<SCITEGIC>MOL_PROPERTY
feprocess Rank
SciTegic.value.IntegerValue
1

@<SCITEGIC>MOL_PROPERTY
Conf_Id
SciTegic.value.IntegerValue
1

@<SCITEGIC>MOL_PROPERTY
Probability
SciTegic.value.DoubleValue
100.00

@<SCITEGIC>MOL_PROPERTY
G
SciTegic.value.DoubleValue
586.405

@<SCITEGIC>MOL_PROPERTY
E
SciTegic.value.DoubleValue
378.843

@<SCITEGIC>MOL_PROPERTY
-TS
SciTegic.value.DoubleValue
207.563

@<SCITEGIC>MOL_PROPERTY
U+W
SciTegic.value.DoubleValue
242.024

@<SCITEGIC>MOL_PROPERTY
U
SciTegic.value.DoubleValue
326.898

@<SCITEGIC>MOL_PROPERTY
W
SciTegic.value.DoubleValue
-84.875

@<SCITEGIC>MOL_PROPERTY
W(PB)
SciTegic.value.DoubleValue
-91.102

@<SCITEGIC>MOL_PROPERTY
W(SA)
SciTegic.value.DoubleValue
6.227

@<SCITEGIC>MOL_PROPERTY
Valence
SciTegic.value.DoubleValue
147.295

@<SCITEGIC>MOL_PROPERTY
Coulomb
SciTegic.value.DoubleValue
206.208

@<SCITEGIC>MOL_PROPERTY
VdW
SciTegic.value.DoubleValue
-26.605

@<SCITEGIC>MOL_PROPERTY
VdW6
SciTegic.value.DoubleValue
-184.268

@<SCITEGIC>MOL_PROPERTY
VdW12
SciTegic.value.DoubleValue
157.664

@<SCITEGIC>MOL_PROPERTY
Bond
SciTegic.value.DoubleValue
4.780

@<SCITEGIC>MOL_PROPERTY
Angle
SciTegic.value.DoubleValue
12.239

@<SCITEGIC>MOL_PROPERTY
Pdih
SciTegic.value.DoubleValue
130.276

@<SCITEGIC>MOL_PROPERTY
Idih
SciTegic.value.DoubleValue
0.000

@<SCITEGIC>MOL_PROPERTY
Tether
SciTegic.value.DoubleValue
0.000

