@<TRIPOS>MOLECULE
guest-s22_vm2.mol2 : vm2 ligand conformer 1
          20          19           1
SMALL
USER_CHARGES
 
@<TRIPOS>ATOM
       1    C1      20.445458   18.066038   18.739877 C.2        1 MOL1        -0.2535
       2    H1      20.659686   17.797390   17.706859 H          1 MOL1         0.0845
       3    H2      20.583309   17.288287   19.487973 H          1 MOL1         0.0845
       4    C2      20.033154   19.299529   19.053594 C.2        1 MOL1        -0.1324
       5    H3      19.913507   20.036229   18.259500 H          1 MOL1         0.0833
       6    C3      19.697247   19.819675   20.441263 C.3        1 MOL1        -0.1813
       7    H4      18.664330   20.192775   20.437734 H          1 MOL1         0.0753
       8    H5      20.327154   20.694217   20.652278 H          1 MOL1         0.0753
       9    C4      19.860498   18.789699   21.583400 C.3        1 MOL1        -0.1855
      10    H6      19.216741   17.920895   21.388864 H          1 MOL1         0.0755
      11    H7      20.897605   18.427763   21.605700 H          1 MOL1         0.0755
      12    C5      19.500284   19.396553   22.957078 C.3        1 MOL1        -0.1855
      13    H8      18.463570   19.760670   22.941267 H          1 MOL1         0.0755
      14    H9      20.140988   20.266538   23.157656 H          1 MOL1         0.0755
      15    C6      19.662981   18.367126   24.102455 C.3        1 MOL1        -0.1958
      16    H10     19.019309   17.497331   23.924281 H          1 MOL1         0.0753
      17    H11     20.696756   18.003185   24.140642 H          1 MOL1         0.0753
      18    C7      19.312956   18.942965   25.469890 C.2        1 MOL1         0.6174
      19    O1      20.197135   19.475078   26.111551 O.co2      1 MOL1        -0.6695
      20    O2      18.161287   18.861338   25.848892 O.co2      1 MOL1        -0.6695
@<TRIPOS>BOND
    1     1     2    1
    2     1     3    1
    3     1     4    2
    4     4     5    1
    5     4     6    1
    6     6     7    1
    7     6     8    1
    8     6     9    1
    9     9    10    1
   10     9    11    1
   11     9    12    1
   12    12    13    1
   13    12    14    1
   14    12    15    1
   15    15    16    1
   16    15    17    1
   17    15    18    1
   18    18    19    1
   19    18    20    2
@<TRIPOS>SUBSTRUCTURE
       1 MOL1            1 RESIDUE      1      MOL     
@<SCITEGIC>MOL_PROPERTY
VM2 Rank
SciTegic.value.IntegerValue
1

@<SCITEGIC>MOL_PROPERTY
Conf_Id
SciTegic.value.IntegerValue
236

@<SCITEGIC>MOL_PROPERTY
Probability
SciTegic.value.DoubleValue
13.93

@<SCITEGIC>MOL_PROPERTY
Sum Probability
SciTegic.value.DoubleValue
13.93

@<SCITEGIC>MOL_PROPERTY
Delta G
SciTegic.value.DoubleValue
0.000

@<SCITEGIC>MOL_PROPERTY
G
SciTegic.value.DoubleValue
-21.888

@<SCITEGIC>MOL_PROPERTY
E
SciTegic.value.DoubleValue
-37.136

@<SCITEGIC>MOL_PROPERTY
-TS
SciTegic.value.DoubleValue
15.247

@<SCITEGIC>MOL_PROPERTY
U+W
SciTegic.value.DoubleValue
-53.232

@<SCITEGIC>MOL_PROPERTY
U
SciTegic.value.DoubleValue
6.572

@<SCITEGIC>MOL_PROPERTY
W
SciTegic.value.DoubleValue
-59.803

@<SCITEGIC>MOL_PROPERTY
W(PB)
SciTegic.value.DoubleValue
-62.038

@<SCITEGIC>MOL_PROPERTY
W(SA)
SciTegic.value.DoubleValue
2.234

@<SCITEGIC>MOL_PROPERTY
Valence
SciTegic.value.DoubleValue
7.989

@<SCITEGIC>MOL_PROPERTY
Coulomb
SciTegic.value.DoubleValue
-2.698

@<SCITEGIC>MOL_PROPERTY
VdW
SciTegic.value.DoubleValue
1.281

@<SCITEGIC>MOL_PROPERTY
VdW6
SciTegic.value.DoubleValue
-6.467

@<SCITEGIC>MOL_PROPERTY
VdW12
SciTegic.value.DoubleValue
7.748

@<SCITEGIC>MOL_PROPERTY
Bond
SciTegic.value.DoubleValue
0.136

@<SCITEGIC>MOL_PROPERTY
Angle
SciTegic.value.DoubleValue
2.854

@<SCITEGIC>MOL_PROPERTY
Pdih
SciTegic.value.DoubleValue
4.998

@<SCITEGIC>MOL_PROPERTY
Idih
SciTegic.value.DoubleValue
0.001

@<SCITEGIC>MOL_PROPERTY
Tether
SciTegic.value.DoubleValue
0.000

@<TRIPOS>MOLECULE
guest-s22_vm2.mol2 : vm2 ligand conformer 2
          20          19           1
SMALL
USER_CHARGES
 
@<TRIPOS>ATOM
       1    C1      19.735463   18.451898   18.241213 C.2        1 MOL1        -0.2535
       2    H1      20.219420   18.046352   17.354311 H          1 MOL1         0.0845
       3    H2      18.652587   18.359366   18.307597 H          1 MOL1         0.0845
       4    C2      20.446286   19.037131   19.208623 C.2        1 MOL1        -0.1324
       5    H3      21.529626   19.118968   19.122961 H          1 MOL1         0.0833
       6    C3      19.844609   19.623322   20.466396 C.3        1 MOL1        -0.1813
       7    H4      18.757526   19.733176   20.352427 H          1 MOL1         0.0753
       8    H5      20.248422   20.631175   20.631658 H          1 MOL1         0.0753
       9    C4      20.145802   18.737334   21.693247 C.3        1 MOL1        -0.1855
      10    H6      19.743404   17.729415   21.521192 H          1 MOL1         0.0755
      11    H7      21.233212   18.631318   21.809455 H          1 MOL1         0.0755
      12    C5      19.540978   19.323340   22.987580 C.3        1 MOL1        -0.1855
      13    H8      18.453050   19.428550   22.873685 H          1 MOL1         0.0755
      14    H9      19.942522   20.331445   23.161067 H          1 MOL1         0.0755
      15    C6      19.842452   18.433914   24.218848 C.3        1 MOL1        -0.1958
      16    H10     19.436073   17.426717   24.067115 H          1 MOL1         0.0753
      17    H11     20.925624   18.329548   24.354678 H          1 MOL1         0.0753
      18    C7      19.254938   18.991957   25.510128 C.2        1 MOL1         0.6174
      19    O1      19.934056   19.757537   26.165364 O.co2      1 MOL1        -0.6695
      20    O2      18.126417   18.661567   25.816601 O.co2      1 MOL1        -0.6695
@<TRIPOS>BOND
    1     1     2    1
    2     1     3    1
    3     1     4    2
    4     4     5    1
    5     4     6    1
    6     6     7    1
    7     6     8    1
    8     6     9    1
    9     9    10    1
   10     9    11    1
   11     9    12    1
   12    12    13    1
   13    12    14    1
   14    12    15    1
   15    15    16    1
   16    15    17    1
   17    15    18    1
   18    18    19    1
   19    18    20    2
@<TRIPOS>SUBSTRUCTURE
       1 MOL1            1 RESIDUE      1      MOL     
@<SCITEGIC>MOL_PROPERTY
VM2 Rank
SciTegic.value.IntegerValue
2

@<SCITEGIC>MOL_PROPERTY
Conf_Id
SciTegic.value.IntegerValue
273

@<SCITEGIC>MOL_PROPERTY
Probability
SciTegic.value.DoubleValue
13.77

@<SCITEGIC>MOL_PROPERTY
Sum Probability
SciTegic.value.DoubleValue
27.70

@<SCITEGIC>MOL_PROPERTY
Delta G
SciTegic.value.DoubleValue
0.007

@<SCITEGIC>MOL_PROPERTY
G
SciTegic.value.DoubleValue
-21.881

@<SCITEGIC>MOL_PROPERTY
E
SciTegic.value.DoubleValue
-36.773

@<SCITEGIC>MOL_PROPERTY
-TS
SciTegic.value.DoubleValue
14.892

@<SCITEGIC>MOL_PROPERTY
U+W
SciTegic.value.DoubleValue
-52.869

@<SCITEGIC>MOL_PROPERTY
U
SciTegic.value.DoubleValue
6.632

@<SCITEGIC>MOL_PROPERTY
W
SciTegic.value.DoubleValue
-59.502

@<SCITEGIC>MOL_PROPERTY
W(PB)
SciTegic.value.DoubleValue
-61.759

@<SCITEGIC>MOL_PROPERTY
W(SA)
SciTegic.value.DoubleValue
2.257

@<SCITEGIC>MOL_PROPERTY
Valence
SciTegic.value.DoubleValue
9.076

@<SCITEGIC>MOL_PROPERTY
Coulomb
SciTegic.value.DoubleValue
-3.008

@<SCITEGIC>MOL_PROPERTY
VdW
SciTegic.value.DoubleValue
0.564

@<SCITEGIC>MOL_PROPERTY
VdW6
SciTegic.value.DoubleValue
-5.773

@<SCITEGIC>MOL_PROPERTY
VdW12
SciTegic.value.DoubleValue
6.337

@<SCITEGIC>MOL_PROPERTY
Bond
SciTegic.value.DoubleValue
0.084

@<SCITEGIC>MOL_PROPERTY
Angle
SciTegic.value.DoubleValue
2.239

@<SCITEGIC>MOL_PROPERTY
Pdih
SciTegic.value.DoubleValue
6.752

@<SCITEGIC>MOL_PROPERTY
Idih
SciTegic.value.DoubleValue
0.001

@<SCITEGIC>MOL_PROPERTY
Tether
SciTegic.value.DoubleValue
0.000

@<TRIPOS>MOLECULE
guest-s22_vm2.mol2 : vm2 ligand conformer 3
          20          19           1
SMALL
USER_CHARGES
 
@<TRIPOS>ATOM
       1    C1      19.835612   18.356913   18.256865 C.2        1 MOL1        -0.2535
       2    H1      19.562460   18.670817   17.250819 H          1 MOL1         0.0845
       3    H2      19.774160   17.293787   18.483973 H          1 MOL1         0.0845
       4    C2      20.227737   19.244779   19.174242 C.2        1 MOL1        -0.1324
       5    H3      20.281578   20.304718   18.926671 H          1 MOL1         0.0833
       6    C3      20.622575   18.883796   20.588957 C.3        1 MOL1        -0.1813
       7    H4      21.574159   19.370999   20.840485 H          1 MOL1         0.0753
       8    H5      20.789949   17.801299   20.672558 H          1 MOL1         0.0753
       9    C4      19.537516   19.315465   21.597501 C.3        1 MOL1        -0.1855
      10    H6      19.373624   20.398893   21.516697 H          1 MOL1         0.0755
      11    H7      18.586888   18.828686   21.339079 H          1 MOL1         0.0755
      12    C5      19.926298   18.956904   23.048293 C.3        1 MOL1        -0.1855
      13    H8      20.877010   19.442907   23.308216 H          1 MOL1         0.0755
      14    H9      20.088848   17.873249   23.131338 H          1 MOL1         0.0755
      15    C6      18.837262   19.389551   24.060617 C.3        1 MOL1        -0.1958
      16    H10     18.672182   20.471985   23.999892 H          1 MOL1         0.0753
      17    H11     17.884057   18.902256   23.822799 H          1 MOL1         0.0753
      18    C7      19.198307   19.045762   25.501257 C.2        1 MOL1         0.6174
      19    O1      19.821416   19.864801   26.147446 O.co2      1 MOL1        -0.6695
      20    O2      18.864277   17.960028   25.932823 O.co2      1 MOL1        -0.6695
@<TRIPOS>BOND
    1     1     2    1
    2     1     3    1
    3     1     4    2
    4     4     5    1
    5     4     6    1
    6     6     7    1
    7     6     8    1
    8     6     9    1
    9     9    10    1
   10     9    11    1
   11     9    12    1
   12    12    13    1
   13    12    14    1
   14    12    15    1
   15    15    16    1
   16    15    17    1
   17    15    18    1
   18    18    19    1
   19    18    20    2
@<TRIPOS>SUBSTRUCTURE
       1 MOL1            1 RESIDUE      1      MOL     
@<SCITEGIC>MOL_PROPERTY
VM2 Rank
SciTegic.value.IntegerValue
3

@<SCITEGIC>MOL_PROPERTY
Conf_Id
SciTegic.value.IntegerValue
549

@<SCITEGIC>MOL_PROPERTY
Probability
SciTegic.value.DoubleValue
12.47

@<SCITEGIC>MOL_PROPERTY
Sum Probability
SciTegic.value.DoubleValue
40.17

@<SCITEGIC>MOL_PROPERTY
Delta G
SciTegic.value.DoubleValue
0.066

@<SCITEGIC>MOL_PROPERTY
G
SciTegic.value.DoubleValue
-21.822

@<SCITEGIC>MOL_PROPERTY
E
SciTegic.value.DoubleValue
-36.714

@<SCITEGIC>MOL_PROPERTY
-TS
SciTegic.value.DoubleValue
14.892

@<SCITEGIC>MOL_PROPERTY
U+W
SciTegic.value.DoubleValue
-52.810

@<SCITEGIC>MOL_PROPERTY
U
SciTegic.value.DoubleValue
6.633

@<SCITEGIC>MOL_PROPERTY
W
SciTegic.value.DoubleValue
-59.443

@<SCITEGIC>MOL_PROPERTY
W(PB)
SciTegic.value.DoubleValue
-61.702

@<SCITEGIC>MOL_PROPERTY
W(SA)
SciTegic.value.DoubleValue
2.259

@<SCITEGIC>MOL_PROPERTY
Valence
SciTegic.value.DoubleValue
9.076

@<SCITEGIC>MOL_PROPERTY
Coulomb
SciTegic.value.DoubleValue
-3.007

@<SCITEGIC>MOL_PROPERTY
VdW
SciTegic.value.DoubleValue
0.564

@<SCITEGIC>MOL_PROPERTY
VdW6
SciTegic.value.DoubleValue
-5.773

@<SCITEGIC>MOL_PROPERTY
VdW12
SciTegic.value.DoubleValue
6.337

@<SCITEGIC>MOL_PROPERTY
Bond
SciTegic.value.DoubleValue
0.084

@<SCITEGIC>MOL_PROPERTY
Angle
SciTegic.value.DoubleValue
2.239

@<SCITEGIC>MOL_PROPERTY
Pdih
SciTegic.value.DoubleValue
6.752

@<SCITEGIC>MOL_PROPERTY
Idih
SciTegic.value.DoubleValue
0.001

@<SCITEGIC>MOL_PROPERTY
Tether
SciTegic.value.DoubleValue
0.000

@<TRIPOS>MOLECULE
guest-s22_vm2.mol2 : vm2 ligand conformer 4
          20          19           1
SMALL
USER_CHARGES
 
@<TRIPOS>ATOM
       1    C1      19.230902   18.403727   18.728662 C.2        1 MOL1        -0.2535
       2    H1      18.250518   18.255599   18.279105 H          1 MOL1         0.0845
       3    H2      20.063101   17.836925   18.314312 H          1 MOL1         0.0845
       4    C2      19.401291   19.246421   19.750675 C.2        1 MOL1        -0.1324
       5    H3      18.555167   19.806189   20.148197 H          1 MOL1         0.0833
       6    C3      20.733421   19.507532   20.420781 C.3        1 MOL1        -0.1813
       7    H4      20.863557   20.585200   20.587388 H          1 MOL1         0.0753
       8    H5      21.550041   19.198879   19.754135 H          1 MOL1         0.0753
       9    C4      20.875828   18.751550   21.761031 C.3        1 MOL1        -0.1855
      10    H6      20.729191   17.676034   21.590525 H          1 MOL1         0.0755
      11    H7      21.903715   18.874369   22.128782 H          1 MOL1         0.0755
      12    C5      19.887873   19.250355   22.840467 C.3        1 MOL1        -0.1855
      13    H8      18.854044   19.097189   22.502209 H          1 MOL1         0.0755
      14    H9      20.017953   20.330982   22.991073 H          1 MOL1         0.0755
      15    C6      20.091746   18.517793   24.189485 C.3        1 MOL1        -0.1958
      16    H10     19.953330   17.437876   24.058220 H          1 MOL1         0.0753
      17    H11     21.114471   18.671963   24.553903 H          1 MOL1         0.0753
      18    C7      19.127586   18.991008   25.271387 C.2        1 MOL1         0.6174
      19    O1      19.462137   19.929507   25.967085 O.co2      1 MOL1        -0.6695
      20    O2      18.060217   18.420109   25.378428 O.co2      1 MOL1        -0.6695
@<TRIPOS>BOND
    1     1     2    1
    2     1     3    1
    3     1     4    2
    4     4     5    1
    5     4     6    1
    6     6     7    1
    7     6     8    1
    8     6     9    1
    9     9    10    1
   10     9    11    1
   11     9    12    1
   12    12    13    1
   13    12    14    1
   14    12    15    1
   15    15    16    1
   16    15    17    1
   17    15    18    1
   18    18    19    1
   19    18    20    2
@<TRIPOS>SUBSTRUCTURE
       1 MOL1            1 RESIDUE      1      MOL     
@<SCITEGIC>MOL_PROPERTY
VM2 Rank
SciTegic.value.IntegerValue
4

@<SCITEGIC>MOL_PROPERTY
Conf_Id
SciTegic.value.IntegerValue
516

@<SCITEGIC>MOL_PROPERTY
Probability
SciTegic.value.DoubleValue
4.98

@<SCITEGIC>MOL_PROPERTY
Sum Probability
SciTegic.value.DoubleValue
45.15

@<SCITEGIC>MOL_PROPERTY
Delta G
SciTegic.value.DoubleValue
0.613

@<SCITEGIC>MOL_PROPERTY
G
SciTegic.value.DoubleValue
-21.275

@<SCITEGIC>MOL_PROPERTY
E
SciTegic.value.DoubleValue
-36.308

@<SCITEGIC>MOL_PROPERTY
-TS
SciTegic.value.DoubleValue
15.032

@<SCITEGIC>MOL_PROPERTY
U+W
SciTegic.value.DoubleValue
-52.404

@<SCITEGIC>MOL_PROPERTY
U
SciTegic.value.DoubleValue
7.828

@<SCITEGIC>MOL_PROPERTY
W
SciTegic.value.DoubleValue
-60.232

@<SCITEGIC>MOL_PROPERTY
W(PB)
SciTegic.value.DoubleValue
-62.486

@<SCITEGIC>MOL_PROPERTY
W(SA)
SciTegic.value.DoubleValue
2.254

@<SCITEGIC>MOL_PROPERTY
Valence
SciTegic.value.DoubleValue
9.301

@<SCITEGIC>MOL_PROPERTY
Coulomb
SciTegic.value.DoubleValue
-2.080

@<SCITEGIC>MOL_PROPERTY
VdW
SciTegic.value.DoubleValue
0.608

@<SCITEGIC>MOL_PROPERTY
VdW6
SciTegic.value.DoubleValue
-6.341

@<SCITEGIC>MOL_PROPERTY
VdW12
SciTegic.value.DoubleValue
6.949

@<SCITEGIC>MOL_PROPERTY
Bond
SciTegic.value.DoubleValue
0.103

@<SCITEGIC>MOL_PROPERTY
Angle
SciTegic.value.DoubleValue
2.334

@<SCITEGIC>MOL_PROPERTY
Pdih
SciTegic.value.DoubleValue
6.862

@<SCITEGIC>MOL_PROPERTY
Idih
SciTegic.value.DoubleValue
0.001

@<SCITEGIC>MOL_PROPERTY
Tether
SciTegic.value.DoubleValue
0.000

@<TRIPOS>MOLECULE
guest-s22_vm2.mol2 : vm2 ligand conformer 5
          20          19           1
SMALL
USER_CHARGES
 
@<TRIPOS>ATOM
       1    C1      21.242819   19.010502   18.987969 C.2        1 MOL1        -0.2535
       2    H1      20.977291   18.112859   18.431878 H          1 MOL1         0.0845
       3    H2      22.218141   19.452097   18.790643 H          1 MOL1         0.0845
       4    C2      20.408765   19.550113   19.880635 C.2        1 MOL1        -0.1324
       5    H3      20.693226   20.450699   20.424065 H          1 MOL1         0.0833
       6    C3      19.037104   18.995976   20.201995 C.3        1 MOL1        -0.1813
       7    H4      18.702407   18.340170   19.386857 H          1 MOL1         0.0753
       8    H5      18.306661   19.814158   20.257612 H          1 MOL1         0.0753
       9    C4      19.021834   18.192455   21.521909 C.3        1 MOL1        -0.1855
      10    H6      18.041082   17.709545   21.630557 H          1 MOL1         0.0755
      11    H7      19.765368   17.385382   21.466233 H          1 MOL1         0.0755
      12    C5      19.294822   19.071523   22.763989 C.3        1 MOL1        -0.1855
      13    H8      18.566500   19.893299   22.803848 H          1 MOL1         0.0755
      14    H9      20.290026   19.530213   22.687470 H          1 MOL1         0.0755
      15    C6      19.215203   18.253492   24.076445 C.3        1 MOL1        -0.1958
      16    H10     18.222303   17.799860   24.180853 H          1 MOL1         0.0753
      17    H11     19.945345   17.435488   24.057225 H          1 MOL1         0.0753
      18    C7      19.482378   19.098020   25.317185 C.2        1 MOL1         0.6174
      19    O1      20.628326   19.194413   25.709835 O.co2      1 MOL1        -0.6695
      20    O2      18.539750   19.651506   25.848038 O.co2      1 MOL1        -0.6695
@<TRIPOS>BOND
    1     1     2    1
    2     1     3    1
    3     1     4    2
    4     4     5    1
    5     4     6    1
    6     6     7    1
    7     6     8    1
    8     6     9    1
    9     9    10    1
   10     9    11    1
   11     9    12    1
   12    12    13    1
   13    12    14    1
   14    12    15    1
   15    15    16    1
   16    15    17    1
   17    15    18    1
   18    18    19    1
   19    18    20    2
@<TRIPOS>SUBSTRUCTURE
       1 MOL1            1 RESIDUE      1      MOL     
@<SCITEGIC>MOL_PROPERTY
VM2 Rank
SciTegic.value.IntegerValue
5

@<SCITEGIC>MOL_PROPERTY
Conf_Id
SciTegic.value.IntegerValue
132

@<SCITEGIC>MOL_PROPERTY
Probability
SciTegic.value.DoubleValue
4.79

@<SCITEGIC>MOL_PROPERTY
Sum Probability
SciTegic.value.DoubleValue
49.94

@<SCITEGIC>MOL_PROPERTY
Delta G
SciTegic.value.DoubleValue
0.636

@<SCITEGIC>MOL_PROPERTY
G
SciTegic.value.DoubleValue
-21.252

@<SCITEGIC>MOL_PROPERTY
E
SciTegic.value.DoubleValue
-36.284

@<SCITEGIC>MOL_PROPERTY
-TS
SciTegic.value.DoubleValue
15.032

@<SCITEGIC>MOL_PROPERTY
U+W
SciTegic.value.DoubleValue
-52.381

@<SCITEGIC>MOL_PROPERTY
U
SciTegic.value.DoubleValue
7.828

@<SCITEGIC>MOL_PROPERTY
W
SciTegic.value.DoubleValue
-60.209

@<SCITEGIC>MOL_PROPERTY
W(PB)
SciTegic.value.DoubleValue
-62.451

@<SCITEGIC>MOL_PROPERTY
W(SA)
SciTegic.value.DoubleValue
2.242

@<SCITEGIC>MOL_PROPERTY
Valence
SciTegic.value.DoubleValue
9.300

@<SCITEGIC>MOL_PROPERTY
Coulomb
SciTegic.value.DoubleValue
-2.080

@<SCITEGIC>MOL_PROPERTY
VdW
SciTegic.value.DoubleValue
0.608

@<SCITEGIC>MOL_PROPERTY
VdW6
SciTegic.value.DoubleValue
-6.341

@<SCITEGIC>MOL_PROPERTY
VdW12
SciTegic.value.DoubleValue
6.949

@<SCITEGIC>MOL_PROPERTY
Bond
SciTegic.value.DoubleValue
0.103

@<SCITEGIC>MOL_PROPERTY
Angle
SciTegic.value.DoubleValue
2.334

@<SCITEGIC>MOL_PROPERTY
Pdih
SciTegic.value.DoubleValue
6.862

@<SCITEGIC>MOL_PROPERTY
Idih
SciTegic.value.DoubleValue
0.001

@<SCITEGIC>MOL_PROPERTY
Tether
SciTegic.value.DoubleValue
0.000

@<TRIPOS>MOLECULE
guest-s22_vm2.mol2 : vm2 ligand conformer 6
          20          19           1
SMALL
USER_CHARGES
 
@<TRIPOS>ATOM
       1    C1      19.721637   18.915815   18.306299 C.2        1 MOL1        -0.2535
       2    H1      18.742907   19.392635   18.323888 H          1 MOL1         0.0845
       3    H2      20.215338   18.820896   17.340633 H          1 MOL1         0.0845
       4    C2      20.298532   18.465634   19.423529 C.2        1 MOL1        -0.1324
       5    H3      21.279260   17.992069   19.384283 H          1 MOL1         0.0833
       6    C3      19.674454   18.561447   20.797963 C.3        1 MOL1        -0.1813
       7    H4      19.737350   17.583040   21.290723 H          1 MOL1         0.0753
       8    H5      18.607085   18.806935   20.713966 H          1 MOL1         0.0753
       9    C4      20.383145   19.633941   21.655474 C.3        1 MOL1        -0.1855
      10    H6      21.437332   19.358050   21.795348 H          1 MOL1         0.0755
      11    H7      20.381904   20.584578   21.104450 H          1 MOL1         0.0755
      12    C5      19.717214   19.861557   23.033482 C.3        1 MOL1        -0.1855
      13    H8      18.666195   20.150560   22.894809 H          1 MOL1         0.0755
      14    H9      20.209728   20.711113   23.526615 H          1 MOL1         0.0755
      15    C6      19.795904   18.628158   23.970235 C.3        1 MOL1        -0.1958
      16    H10     19.236034   17.785906   23.548451 H          1 MOL1         0.0753
      17    H11     20.837347   18.303845   24.082487 H          1 MOL1         0.0753
      18    C7      19.235325   18.907448   25.360096 C.2        1 MOL1         0.6174
      19    O1      19.994747   19.326117   26.211406 O.co2      1 MOL1        -0.6695
      20    O2      18.050043   18.717883   25.549518 O.co2      1 MOL1        -0.6695
@<TRIPOS>BOND
    1     1     2    1
    2     1     3    1
    3     1     4    2
    4     4     5    1
    5     4     6    1
    6     6     7    1
    7     6     8    1
    8     6     9    1
    9     9    10    1
   10     9    11    1
   11     9    12    1
   12    12    13    1
   13    12    14    1
   14    12    15    1
   15    15    16    1
   16    15    17    1
   17    15    18    1
   18    18    19    1
   19    18    20    2
@<TRIPOS>SUBSTRUCTURE
       1 MOL1            1 RESIDUE      1      MOL     
@<SCITEGIC>MOL_PROPERTY
VM2 Rank
SciTegic.value.IntegerValue
6

@<SCITEGIC>MOL_PROPERTY
Conf_Id
SciTegic.value.IntegerValue
559

@<SCITEGIC>MOL_PROPERTY
Probability
SciTegic.value.DoubleValue
4.05

@<SCITEGIC>MOL_PROPERTY
Sum Probability
SciTegic.value.DoubleValue
53.99

@<SCITEGIC>MOL_PROPERTY
Delta G
SciTegic.value.DoubleValue
0.736

@<SCITEGIC>MOL_PROPERTY
G
SciTegic.value.DoubleValue
-21.152

@<SCITEGIC>MOL_PROPERTY
E
SciTegic.value.DoubleValue
-36.159

@<SCITEGIC>MOL_PROPERTY
-TS
SciTegic.value.DoubleValue
15.007

@<SCITEGIC>MOL_PROPERTY
U+W
SciTegic.value.DoubleValue
-52.255

@<SCITEGIC>MOL_PROPERTY
U
SciTegic.value.DoubleValue
7.491

@<SCITEGIC>MOL_PROPERTY
W
SciTegic.value.DoubleValue
-59.747

@<SCITEGIC>MOL_PROPERTY
W(PB)
SciTegic.value.DoubleValue
-61.973

@<SCITEGIC>MOL_PROPERTY
W(SA)
SciTegic.value.DoubleValue
2.226

@<SCITEGIC>MOL_PROPERTY
Valence
SciTegic.value.DoubleValue
9.604

@<SCITEGIC>MOL_PROPERTY
Coulomb
SciTegic.value.DoubleValue
-2.799

@<SCITEGIC>MOL_PROPERTY
VdW
SciTegic.value.DoubleValue
0.686

@<SCITEGIC>MOL_PROPERTY
VdW6
SciTegic.value.DoubleValue
-6.435

@<SCITEGIC>MOL_PROPERTY
VdW12
SciTegic.value.DoubleValue
7.121

@<SCITEGIC>MOL_PROPERTY
Bond
SciTegic.value.DoubleValue
0.124

@<SCITEGIC>MOL_PROPERTY
Angle
SciTegic.value.DoubleValue
2.493

@<SCITEGIC>MOL_PROPERTY
Pdih
SciTegic.value.DoubleValue
6.986

@<SCITEGIC>MOL_PROPERTY
Idih
SciTegic.value.DoubleValue
0.001

@<SCITEGIC>MOL_PROPERTY
Tether
SciTegic.value.DoubleValue
0.000

@<TRIPOS>MOLECULE
guest-s22_vm2.mol2 : vm2 ligand conformer 7
          20          19           1
SMALL
USER_CHARGES
 
@<TRIPOS>ATOM
       1    C1      18.639343   19.560586   19.394270 C.2        1 MOL1        -0.2535
       2    H1      17.730781   19.223331   18.898408 H          1 MOL1         0.0845
       3    H2      18.704124   20.614675   19.659065 H          1 MOL1         0.0845
       4    C2      19.632175   18.710348   19.668847 C.2        1 MOL1        -0.1324
       5    H3      19.546369   17.658504   19.397455 H          1 MOL1         0.0833
       6    C3      20.922701   19.104612   20.355198 C.3        1 MOL1        -0.1813
       7    H4      21.014151   20.198011   20.408030 H          1 MOL1         0.0753
       8    H5      21.771099   18.751690   19.753939 H          1 MOL1         0.0753
       9    C4      21.036426   18.508160   21.776202 C.3        1 MOL1        -0.1855
      10    H6      20.944240   17.414638   21.723327 H          1 MOL1         0.0755
      11    H7      22.039453   18.720601   22.170774 H          1 MOL1         0.0755
      12    C5      19.977278   19.076649   22.748112 C.3        1 MOL1        -0.1855
      13    H8      18.968528   18.847136   22.378008 H          1 MOL1         0.0755
      14    H9      20.060069   20.171624   22.786376 H          1 MOL1         0.0755
      15    C6      20.137614   18.500456   24.176506 C.3        1 MOL1        -0.1958
      16    H10     20.044773   17.407956   24.156293 H          1 MOL1         0.0753
      17    H11     21.134141   18.734316   24.569863 H          1 MOL1         0.0753
      18    C7      19.103207   19.046207   25.154388 C.2        1 MOL1         0.6174
      19    O1      19.362945   20.073098   25.750021 O.co2      1 MOL1        -0.6695
      20    O2      18.059312   18.437884   25.284457 O.co2      1 MOL1        -0.6695
@<TRIPOS>BOND
    1     1     2    1
    2     1     3    1
    3     1     4    2
    4     4     5    1
    5     4     6    1
    6     6     7    1
    7     6     8    1
    8     6     9    1
    9     9    10    1
   10     9    11    1
   11     9    12    1
   12    12    13    1
   13    12    14    1
   14    12    15    1
   15    15    16    1
   16    15    17    1
   17    15    18    1
   18    18    19    1
   19    18    20    2
@<TRIPOS>SUBSTRUCTURE
       1 MOL1            1 RESIDUE      1      MOL     
@<SCITEGIC>MOL_PROPERTY
VM2 Rank
SciTegic.value.IntegerValue
7

@<SCITEGIC>MOL_PROPERTY
Conf_Id
SciTegic.value.IntegerValue
233

@<SCITEGIC>MOL_PROPERTY
Probability
SciTegic.value.DoubleValue
3.96

@<SCITEGIC>MOL_PROPERTY
Sum Probability
SciTegic.value.DoubleValue
57.96

@<SCITEGIC>MOL_PROPERTY
Delta G
SciTegic.value.DoubleValue
0.749

@<SCITEGIC>MOL_PROPERTY
G
SciTegic.value.DoubleValue
-21.139

@<SCITEGIC>MOL_PROPERTY
E
SciTegic.value.DoubleValue
-36.251

@<SCITEGIC>MOL_PROPERTY
-TS
SciTegic.value.DoubleValue
15.112

@<SCITEGIC>MOL_PROPERTY
U+W
SciTegic.value.DoubleValue
-52.347

@<SCITEGIC>MOL_PROPERTY
U
SciTegic.value.DoubleValue
8.428

@<SCITEGIC>MOL_PROPERTY
W
SciTegic.value.DoubleValue
-60.775

@<SCITEGIC>MOL_PROPERTY
W(PB)
SciTegic.value.DoubleValue
-62.983

@<SCITEGIC>MOL_PROPERTY
W(SA)
SciTegic.value.DoubleValue
2.208

@<SCITEGIC>MOL_PROPERTY
Valence
SciTegic.value.DoubleValue
9.231

@<SCITEGIC>MOL_PROPERTY
Coulomb
SciTegic.value.DoubleValue
-1.304

@<SCITEGIC>MOL_PROPERTY
VdW
SciTegic.value.DoubleValue
0.501

@<SCITEGIC>MOL_PROPERTY
VdW6
SciTegic.value.DoubleValue
-6.515

@<SCITEGIC>MOL_PROPERTY
VdW12
SciTegic.value.DoubleValue
7.016

@<SCITEGIC>MOL_PROPERTY
Bond
SciTegic.value.DoubleValue
0.103

@<SCITEGIC>MOL_PROPERTY
Angle
SciTegic.value.DoubleValue
2.328

@<SCITEGIC>MOL_PROPERTY
Pdih
SciTegic.value.DoubleValue
6.799

@<SCITEGIC>MOL_PROPERTY
Idih
SciTegic.value.DoubleValue
0.001

@<SCITEGIC>MOL_PROPERTY
Tether
SciTegic.value.DoubleValue
0.000

@<TRIPOS>MOLECULE
guest-s22_vm2.mol2 : vm2 ligand conformer 8
          20          19           1
SMALL
USER_CHARGES
 
@<TRIPOS>ATOM
       1    C1      20.396878   17.503687   19.623193 C.2        1 MOL1        -0.2535
       2    H1      19.972972   16.599090   19.190628 H          1 MOL1         0.0845
       3    H2      21.412252   17.445245   20.011805 H          1 MOL1         0.0845
       4    C2      19.693903   18.638126   19.676920 C.2        1 MOL1        -0.1324
       5    H3      18.677969   18.674722   19.284578 H          1 MOL1         0.0833
       6    C3      20.214741   19.933178   20.263046 C.3        1 MOL1        -0.1813
       7    H4      20.071695   20.740604   19.532673 H          1 MOL1         0.0753
       8    H5      21.296125   19.868009   20.444811 H          1 MOL1         0.0753
       9    C4      19.493110   20.314351   21.575257 C.3        1 MOL1        -0.1855
      10    H6      19.820893   21.317054   21.881898 H          1 MOL1         0.0755
      11    H7      18.411491   20.378805   21.393517 H          1 MOL1         0.0755
      12    C5      19.772986   19.315714   22.721546 C.3        1 MOL1        -0.1855
      13    H8      20.856106   19.239924   22.890054 H          1 MOL1         0.0755
      14    H9      19.424818   18.313058   22.437489 H          1 MOL1         0.0755
      15    C6      19.078042   19.740582   24.038573 C.3        1 MOL1        -0.1958
      16    H10     19.425991   20.733558   24.347467 H          1 MOL1         0.0753
      17    H11     17.993753   19.808494   23.889272 H          1 MOL1         0.0753
      18    C7      19.338940   18.770305   25.185127 C.2        1 MOL1         0.6174
      19    O1      20.323403   18.949000   25.874801 O.co2      1 MOL1        -0.6695
      20    O2      18.558995   17.853055   25.349537 O.co2      1 MOL1        -0.6695
@<TRIPOS>BOND
    1     1     2    1
    2     1     3    1
    3     1     4    2
    4     4     5    1
    5     4     6    1
    6     6     7    1
    7     6     8    1
    8     6     9    1
    9     9    10    1
   10     9    11    1
   11     9    12    1
   12    12    13    1
   13    12    14    1
   14    12    15    1
   15    15    16    1
   16    15    17    1
   17    15    18    1
   18    18    19    1
   19    18    20    2
@<TRIPOS>SUBSTRUCTURE
       1 MOL1            1 RESIDUE      1      MOL     
@<SCITEGIC>MOL_PROPERTY
VM2 Rank
SciTegic.value.IntegerValue
8

@<SCITEGIC>MOL_PROPERTY
Conf_Id
SciTegic.value.IntegerValue
120

@<SCITEGIC>MOL_PROPERTY
Probability
SciTegic.value.DoubleValue
3.90

@<SCITEGIC>MOL_PROPERTY
Sum Probability
SciTegic.value.DoubleValue
61.85

@<SCITEGIC>MOL_PROPERTY
Delta G
SciTegic.value.DoubleValue
0.760

@<SCITEGIC>MOL_PROPERTY
G
SciTegic.value.DoubleValue
-21.129

@<SCITEGIC>MOL_PROPERTY
E
SciTegic.value.DoubleValue
-36.241

@<SCITEGIC>MOL_PROPERTY
-TS
SciTegic.value.DoubleValue
15.112

@<SCITEGIC>MOL_PROPERTY
U+W
SciTegic.value.DoubleValue
-52.337

@<SCITEGIC>MOL_PROPERTY
U
SciTegic.value.DoubleValue
8.428

@<SCITEGIC>MOL_PROPERTY
W
SciTegic.value.DoubleValue
-60.765

@<SCITEGIC>MOL_PROPERTY
W(PB)
SciTegic.value.DoubleValue
-62.976

@<SCITEGIC>MOL_PROPERTY
W(SA)
SciTegic.value.DoubleValue
2.211

@<SCITEGIC>MOL_PROPERTY
Valence
SciTegic.value.DoubleValue
9.230

@<SCITEGIC>MOL_PROPERTY
Coulomb
SciTegic.value.DoubleValue
-1.304

@<SCITEGIC>MOL_PROPERTY
VdW
SciTegic.value.DoubleValue
0.501

@<SCITEGIC>MOL_PROPERTY
VdW6
SciTegic.value.DoubleValue
-6.515

@<SCITEGIC>MOL_PROPERTY
VdW12
SciTegic.value.DoubleValue
7.017

@<SCITEGIC>MOL_PROPERTY
Bond
SciTegic.value.DoubleValue
0.103

@<SCITEGIC>MOL_PROPERTY
Angle
SciTegic.value.DoubleValue
2.328

@<SCITEGIC>MOL_PROPERTY
Pdih
SciTegic.value.DoubleValue
6.799

@<SCITEGIC>MOL_PROPERTY
Idih
SciTegic.value.DoubleValue
0.000

@<SCITEGIC>MOL_PROPERTY
Tether
SciTegic.value.DoubleValue
0.000

@<TRIPOS>MOLECULE
guest-s22_vm2.mol2 : vm2 ligand conformer 9
          20          19           1
SMALL
USER_CHARGES
 
@<TRIPOS>ATOM
       1    C1      19.831314   18.536382   18.333260 C.2        1 MOL1        -0.2535
       2    H1      19.254345   17.620365   18.449863 H          1 MOL1         0.0845
       3    H2      20.235797   18.751342   17.345613 H          1 MOL1         0.0845
       4    C2      20.039223   19.365339   19.359553 C.2        1 MOL1        -0.1324
       5    H3      20.620427   20.276858   19.221844 H          1 MOL1         0.0833
       6    C3      19.509301   19.133962   20.757184 C.3        1 MOL1        -0.1813
       7    H4      18.738207   18.351729   20.746157 H          1 MOL1         0.0753
       8    H5      19.025573   20.051543   21.115097 H          1 MOL1         0.0753
       9    C4      20.645595   18.722793   21.720297 C.3        1 MOL1        -0.1855
      10    H6      21.168932   17.853430   21.298793 H          1 MOL1         0.0755
      11    H7      21.387389   19.530750   21.783063 H          1 MOL1         0.0755
      12    C5      20.149950   18.359508   23.140347 C.3        1 MOL1        -0.1855
      13    H8      20.998712   17.972956   23.721445 H          1 MOL1         0.0755
      14    H9      19.417709   17.542428   23.080383 H          1 MOL1         0.0755
      15    C6      19.527958   19.557334   23.904094 C.3        1 MOL1        -0.1958
      16    H10     20.234328   20.395523   23.933499 H          1 MOL1         0.0753
      17    H11     18.623226   19.911337   23.397256 H          1 MOL1         0.0753
      18    C7      19.148688   19.208184   25.338742 C.2        1 MOL1         0.6174
      19    O1      19.981842   19.371354   26.208204 O.co2      1 MOL1        -0.6695
      20    O2      18.037130   18.763143   25.546319 O.co2      1 MOL1        -0.6695
@<TRIPOS>BOND
    1     1     2    1
    2     1     3    1
    3     1     4    2
    4     4     5    1
    5     4     6    1
    6     6     7    1
    7     6     8    1
    8     6     9    1
    9     9    10    1
   10     9    11    1
   11     9    12    1
   12    12    13    1
   13    12    14    1
   14    12    15    1
   15    15    16    1
   16    15    17    1
   17    15    18    1
   18    18    19    1
   19    18    20    2
@<TRIPOS>SUBSTRUCTURE
       1 MOL1            1 RESIDUE      1      MOL     
@<SCITEGIC>MOL_PROPERTY
VM2 Rank
SciTegic.value.IntegerValue
9

@<SCITEGIC>MOL_PROPERTY
Conf_Id
SciTegic.value.IntegerValue
152

@<SCITEGIC>MOL_PROPERTY
Probability
SciTegic.value.DoubleValue
3.83

@<SCITEGIC>MOL_PROPERTY
Sum Probability
SciTegic.value.DoubleValue
65.69

@<SCITEGIC>MOL_PROPERTY
Delta G
SciTegic.value.DoubleValue
0.770

@<SCITEGIC>MOL_PROPERTY
G
SciTegic.value.DoubleValue
-21.119

@<SCITEGIC>MOL_PROPERTY
E
SciTegic.value.DoubleValue
-36.125

@<SCITEGIC>MOL_PROPERTY
-TS
SciTegic.value.DoubleValue
15.007

@<SCITEGIC>MOL_PROPERTY
U+W
SciTegic.value.DoubleValue
-52.222

@<SCITEGIC>MOL_PROPERTY
U
SciTegic.value.DoubleValue
7.491

@<SCITEGIC>MOL_PROPERTY
W
SciTegic.value.DoubleValue
-59.713

@<SCITEGIC>MOL_PROPERTY
W(PB)
SciTegic.value.DoubleValue
-61.947

@<SCITEGIC>MOL_PROPERTY
W(SA)
SciTegic.value.DoubleValue
2.234

@<SCITEGIC>MOL_PROPERTY
Valence
SciTegic.value.DoubleValue
9.604

@<SCITEGIC>MOL_PROPERTY
Coulomb
SciTegic.value.DoubleValue
-2.798

@<SCITEGIC>MOL_PROPERTY
VdW
SciTegic.value.DoubleValue
0.686

@<SCITEGIC>MOL_PROPERTY
VdW6
SciTegic.value.DoubleValue
-6.435

@<SCITEGIC>MOL_PROPERTY
VdW12
SciTegic.value.DoubleValue
7.121

@<SCITEGIC>MOL_PROPERTY
Bond
SciTegic.value.DoubleValue
0.124

@<SCITEGIC>MOL_PROPERTY
Angle
SciTegic.value.DoubleValue
2.493

@<SCITEGIC>MOL_PROPERTY
Pdih
SciTegic.value.DoubleValue
6.986

@<SCITEGIC>MOL_PROPERTY
Idih
SciTegic.value.DoubleValue
0.001

@<SCITEGIC>MOL_PROPERTY
Tether
SciTegic.value.DoubleValue
0.000

@<TRIPOS>MOLECULE
guest-s22_vm2.mol2 : vm2 ligand conformer 10
          20          19           1
SMALL
USER_CHARGES
 
@<TRIPOS>ATOM
       1    C1      20.749842   18.724966   18.701363 C.2        1 MOL1        -0.2535
       2    H1      20.879326   18.515358   17.640950 H          1 MOL1         0.0845
       3    H2      21.642127   18.999496   19.259894 H          1 MOL1         0.0845
       4    C2      19.542708   18.640525   19.272013 C.2        1 MOL1        -0.1324
       5    H3      18.686097   18.358853   18.660061 H          1 MOL1         0.0833
       6    C3      19.206268   18.902788   20.730544 C.3        1 MOL1        -0.1813
       7    H4      18.796790   17.981015   21.162268 H          1 MOL1         0.0753
       8    H5      18.393391   19.639742   20.776133 H          1 MOL1         0.0753
       9    C4      20.390020   19.406202   21.593395 C.3        1 MOL1        -0.1855
      10    H6      21.183201   18.646427   21.615224 H          1 MOL1         0.0755
      11    H7      20.820785   20.299733   21.121215 H          1 MOL1         0.0755
      12    C5      19.985252   19.769900   23.042148 C.3        1 MOL1        -0.1855
      13    H8      19.195807   20.534041   23.027002 H          1 MOL1         0.0755
      14    H9      20.849157   20.227269   23.544137 H          1 MOL1         0.0755
      15    C6      19.512137   18.552418   23.878276 C.3        1 MOL1        -0.1958
      16    H10     18.594716   18.126449   23.456985 H          1 MOL1         0.0753
      17    H11     20.274194   17.764098   23.863790 H          1 MOL1         0.0753
      18    C7      19.230480   18.910819   25.332991 C.2        1 MOL1         0.6174
      19    O1      20.142198   18.824867   26.131816 O.co2      1 MOL1        -0.6695
      20    O2      18.112094   19.285514   25.625454 O.co2      1 MOL1        -0.6695
@<TRIPOS>BOND
    1     1     2    1
    2     1     3    1
    3     1     4    2
    4     4     5    1
    5     4     6    1
    6     6     7    1
    7     6     8    1
    8     6     9    1
    9     9    10    1
   10     9    11    1
   11     9    12    1
   12    12    13    1
   13    12    14    1
   14    12    15    1
   15    15    16    1
   16    15    17    1
   17    15    18    1
   18    18    19    1
   19    18    20    2
@<TRIPOS>SUBSTRUCTURE
       1 MOL1            1 RESIDUE      1      MOL     
@<SCITEGIC>MOL_PROPERTY
VM2 Rank
SciTegic.value.IntegerValue
10

@<SCITEGIC>MOL_PROPERTY
Conf_Id
SciTegic.value.IntegerValue
527

@<SCITEGIC>MOL_PROPERTY
Probability
SciTegic.value.DoubleValue
3.72

@<SCITEGIC>MOL_PROPERTY
Sum Probability
SciTegic.value.DoubleValue
69.41

@<SCITEGIC>MOL_PROPERTY
Delta G
SciTegic.value.DoubleValue
0.787

@<SCITEGIC>MOL_PROPERTY
G
SciTegic.value.DoubleValue
-21.102

@<SCITEGIC>MOL_PROPERTY
E
SciTegic.value.DoubleValue
-36.458

@<SCITEGIC>MOL_PROPERTY
-TS
SciTegic.value.DoubleValue
15.356

@<SCITEGIC>MOL_PROPERTY
U+W
SciTegic.value.DoubleValue
-52.554

@<SCITEGIC>MOL_PROPERTY
U
SciTegic.value.DoubleValue
7.428

@<SCITEGIC>MOL_PROPERTY
W
SciTegic.value.DoubleValue
-59.982

@<SCITEGIC>MOL_PROPERTY
W(PB)
SciTegic.value.DoubleValue
-62.180

@<SCITEGIC>MOL_PROPERTY
W(SA)
SciTegic.value.DoubleValue
2.198

@<SCITEGIC>MOL_PROPERTY
Valence
SciTegic.value.DoubleValue
8.548

@<SCITEGIC>MOL_PROPERTY
Coulomb
SciTegic.value.DoubleValue
-2.540

@<SCITEGIC>MOL_PROPERTY
VdW
SciTegic.value.DoubleValue
1.420

@<SCITEGIC>MOL_PROPERTY
VdW6
SciTegic.value.DoubleValue
-7.116

@<SCITEGIC>MOL_PROPERTY
VdW12
SciTegic.value.DoubleValue
8.535

@<SCITEGIC>MOL_PROPERTY
Bond
SciTegic.value.DoubleValue
0.184

@<SCITEGIC>MOL_PROPERTY
Angle
SciTegic.value.DoubleValue
3.112

@<SCITEGIC>MOL_PROPERTY
Pdih
SciTegic.value.DoubleValue
5.252

@<SCITEGIC>MOL_PROPERTY
Idih
SciTegic.value.DoubleValue
0.001

@<SCITEGIC>MOL_PROPERTY
Tether
SciTegic.value.DoubleValue
0.000

@<TRIPOS>MOLECULE
guest-s22_vm2.mol2 : vm2 ligand conformer 11
          20          19           1
SMALL
USER_CHARGES
 
@<TRIPOS>ATOM
       1    C1      20.552809   17.981492   18.723206 C.2        1 MOL1        -0.2535
       2    H1      20.487591   17.898255   17.639660 H          1 MOL1         0.0845
       3    H2      20.851732   17.092839   19.276848 H          1 MOL1         0.0845
       4    C2      20.273579   19.129919   19.345189 C.2        1 MOL1        -0.1324
       5    H3      19.975505   20.007716   18.772251 H          1 MOL1         0.0833
       6    C3      20.343248   19.321108   20.844018 C.3        1 MOL1        -0.1813
       7    H4      20.898563   20.240948   21.070845 H          1 MOL1         0.0753
       8    H5      20.901262   18.493161   21.299782 H          1 MOL1         0.0753
       9    C4      18.928179   19.404854   21.459266 C.3        1 MOL1        -0.1855
      10    H6      18.360311   20.188646   20.939381 H          1 MOL1         0.0755
      11    H7      18.392507   18.462710   21.278678 H          1 MOL1         0.0755
      12    C5      18.930925   19.720787   22.974028 C.3        1 MOL1        -0.1855
      13    H8      17.893995   19.875433   23.303209 H          1 MOL1         0.0755
      14    H9      19.458061   20.667723   23.155168 H          1 MOL1         0.0755
      15    C6      19.565678   18.600899   23.838899 C.3        1 MOL1        -0.1958
      16    H10     19.076373   17.641203   23.634054 H          1 MOL1         0.0753
      17    H11     20.628319   18.482413   23.599204 H          1 MOL1         0.0753
      18    C7      19.456244   18.877788   25.333986 C.2        1 MOL1         0.6174
      19    O1      20.346013   19.511056   25.866900 O.co2      1 MOL1        -0.6695
      20    O2      18.474325   18.470098   25.922508 O.co2      1 MOL1        -0.6695
@<TRIPOS>BOND
    1     1     2    1
    2     1     3    1
    3     1     4    2
    4     4     5    1
    5     4     6    1
    6     6     7    1
    7     6     8    1
    8     6     9    1
    9     9    10    1
   10     9    11    1
   11     9    12    1
   12    12    13    1
   13    12    14    1
   14    12    15    1
   15    15    16    1
   16    15    17    1
   17    15    18    1
   18    18    19    1
   19    18    20    2
@<TRIPOS>SUBSTRUCTURE
       1 MOL1            1 RESIDUE      1      MOL     
@<SCITEGIC>MOL_PROPERTY
VM2 Rank
SciTegic.value.IntegerValue
11

@<SCITEGIC>MOL_PROPERTY
Conf_Id
SciTegic.value.IntegerValue
275

@<SCITEGIC>MOL_PROPERTY
Probability
SciTegic.value.DoubleValue
3.50

@<SCITEGIC>MOL_PROPERTY
Sum Probability
SciTegic.value.DoubleValue
72.91

@<SCITEGIC>MOL_PROPERTY
Delta G
SciTegic.value.DoubleValue
0.823

@<SCITEGIC>MOL_PROPERTY
G
SciTegic.value.DoubleValue
-21.065

@<SCITEGIC>MOL_PROPERTY
E
SciTegic.value.DoubleValue
-36.061

@<SCITEGIC>MOL_PROPERTY
-TS
SciTegic.value.DoubleValue
14.996

@<SCITEGIC>MOL_PROPERTY
U+W
SciTegic.value.DoubleValue
-52.158

@<SCITEGIC>MOL_PROPERTY
U
SciTegic.value.DoubleValue
7.601

@<SCITEGIC>MOL_PROPERTY
W
SciTegic.value.DoubleValue
-59.759

@<SCITEGIC>MOL_PROPERTY
W(PB)
SciTegic.value.DoubleValue
-62.007

@<SCITEGIC>MOL_PROPERTY
W(SA)
SciTegic.value.DoubleValue
2.248

@<SCITEGIC>MOL_PROPERTY
Valence
SciTegic.value.DoubleValue
9.602

@<SCITEGIC>MOL_PROPERTY
Coulomb
SciTegic.value.DoubleValue
-2.686

@<SCITEGIC>MOL_PROPERTY
VdW
SciTegic.value.DoubleValue
0.685

@<SCITEGIC>MOL_PROPERTY
VdW6
SciTegic.value.DoubleValue
-6.453

@<SCITEGIC>MOL_PROPERTY
VdW12
SciTegic.value.DoubleValue
7.139

@<SCITEGIC>MOL_PROPERTY
Bond
SciTegic.value.DoubleValue
0.125

@<SCITEGIC>MOL_PROPERTY
Angle
SciTegic.value.DoubleValue
2.485

@<SCITEGIC>MOL_PROPERTY
Pdih
SciTegic.value.DoubleValue
6.991

@<SCITEGIC>MOL_PROPERTY
Idih
SciTegic.value.DoubleValue
0.001

@<SCITEGIC>MOL_PROPERTY
Tether
SciTegic.value.DoubleValue
0.000

@<TRIPOS>MOLECULE
guest-s22_vm2.mol2 : vm2 ligand conformer 12
          20          19           1
SMALL
USER_CHARGES
 
@<TRIPOS>ATOM
       1    C1      20.750350   18.726812   18.701380 C.2        1 MOL1        -0.2535
       2    H1      21.366195   18.018844   19.251845 H          1 MOL1         0.0845
       3    H2      20.974636   18.854221   17.643722 H          1 MOL1         0.0845
       4    C2      19.761933   19.419631   19.278424 C.2        1 MOL1        -0.1324
       5    H3      19.180410   20.115826   18.674478 H          1 MOL1         0.0833
       6    C3      19.331849   19.349103   20.734218 C.3        1 MOL1        -0.1813
       7    H4      18.253790   19.143418   20.772076 H          1 MOL1         0.0753
       8    H5      19.461139   20.342496   21.181631 H          1 MOL1         0.0753
       9    C4      20.075854   18.289356   21.584276 C.3        1 MOL1        -0.1855
      10    H6      19.979630   17.309566   21.096769 H          1 MOL1         0.0755
      11    H7      21.148714   18.523766   21.614244 H          1 MOL1         0.0755
      12    C5      19.534660   18.168095   23.029062 C.3        1 MOL1        -0.1855
      13    H8      20.031435   17.319992   23.520434 H          1 MOL1         0.0755
      14    H9      18.462733   17.927705   23.005696 H          1 MOL1         0.0755
      15    C6      19.761810   19.440954   23.885476 C.3        1 MOL1        -0.1958
      16    H10     20.823056   19.716832   23.879524 H          1 MOL1         0.0753
      17    H11     19.202478   20.288872   23.474649 H          1 MOL1         0.0753
      18    C7      19.328669   19.259900   25.335850 C.2        1 MOL1         0.6174
      19    O1      20.148415   18.846434   26.131966 O.co2      1 MOL1        -0.6695
      20    O2      18.177461   19.517716   25.627346 O.co2      1 MOL1        -0.6695
@<TRIPOS>BOND
    1     1     2    1
    2     1     3    1
    3     1     4    2
    4     4     5    1
    5     4     6    1
    6     6     7    1
    7     6     8    1
    8     6     9    1
    9     9    10    1
   10     9    11    1
   11     9    12    1
   12    12    13    1
   13    12    14    1
   14    12    15    1
   15    15    16    1
   16    15    17    1
   17    15    18    1
   18    18    19    1
   19    18    20    2
@<TRIPOS>SUBSTRUCTURE
       1 MOL1            1 RESIDUE      1      MOL     
@<SCITEGIC>MOL_PROPERTY
VM2 Rank
SciTegic.value.IntegerValue
12

@<SCITEGIC>MOL_PROPERTY
Conf_Id
SciTegic.value.IntegerValue
369

@<SCITEGIC>MOL_PROPERTY
Probability
SciTegic.value.DoubleValue
3.45

@<SCITEGIC>MOL_PROPERTY
Sum Probability
SciTegic.value.DoubleValue
76.36

@<SCITEGIC>MOL_PROPERTY
Delta G
SciTegic.value.DoubleValue
0.833

@<SCITEGIC>MOL_PROPERTY
G
SciTegic.value.DoubleValue
-21.055

@<SCITEGIC>MOL_PROPERTY
E
SciTegic.value.DoubleValue
-36.413

@<SCITEGIC>MOL_PROPERTY
-TS
SciTegic.value.DoubleValue
15.358

@<SCITEGIC>MOL_PROPERTY
U+W
SciTegic.value.DoubleValue
-52.509

@<SCITEGIC>MOL_PROPERTY
U
SciTegic.value.DoubleValue
7.428

@<SCITEGIC>MOL_PROPERTY
W
SciTegic.value.DoubleValue
-59.937

@<SCITEGIC>MOL_PROPERTY
W(PB)
SciTegic.value.DoubleValue
-62.138

@<SCITEGIC>MOL_PROPERTY
W(SA)
SciTegic.value.DoubleValue
2.200

@<SCITEGIC>MOL_PROPERTY
Valence
SciTegic.value.DoubleValue
8.548

@<SCITEGIC>MOL_PROPERTY
Coulomb
SciTegic.value.DoubleValue
-2.540

@<SCITEGIC>MOL_PROPERTY
VdW
SciTegic.value.DoubleValue
1.420

@<SCITEGIC>MOL_PROPERTY
VdW6
SciTegic.value.DoubleValue
-7.116

@<SCITEGIC>MOL_PROPERTY
VdW12
SciTegic.value.DoubleValue
8.536

@<SCITEGIC>MOL_PROPERTY
Bond
SciTegic.value.DoubleValue
0.184

@<SCITEGIC>MOL_PROPERTY
Angle
SciTegic.value.DoubleValue
3.112

@<SCITEGIC>MOL_PROPERTY
Pdih
SciTegic.value.DoubleValue
5.251

@<SCITEGIC>MOL_PROPERTY
Idih
SciTegic.value.DoubleValue
0.001

@<SCITEGIC>MOL_PROPERTY
Tether
SciTegic.value.DoubleValue
0.000

@<TRIPOS>MOLECULE
guest-s22_vm2.mol2 : vm2 ligand conformer 13
          20          19           1
SMALL
USER_CHARGES
 
@<TRIPOS>ATOM
       1    C1      20.408788   17.938106   18.704555 C.2        1 MOL1        -0.2535
       2    H1      20.758878   17.980117   17.674542 H          1 MOL1         0.0845
       3    H2      20.522636   16.993632   19.234259 H          1 MOL1         0.0845
       4    C2      19.863801   19.006392   19.292325 C.2        1 MOL1        -0.1324
       5    H3      19.759483   19.942622   18.744396 H          1 MOL1         0.0833
       6    C3      19.354445   19.022969   20.716466 C.3        1 MOL1        -0.1813
       7    H4      19.249373   17.995105   21.086672 H          1 MOL1         0.0753
       8    H5      18.353345   19.473581   20.742542 H          1 MOL1         0.0753
       9    C4      20.305825   19.820136   21.636988 C.3        1 MOL1        -0.1855
      10    H6      21.292456   19.336915   21.652798 H          1 MOL1         0.0755
      11    H7      20.457852   20.820944   21.209955 H          1 MOL1         0.0755
      12    C5      19.778730   19.976368   23.083393 C.3        1 MOL1        -0.1855
      13    H8      18.796246   20.468213   23.069768 H          1 MOL1         0.0755
      14    H9      20.453446   20.647022   23.633378 H          1 MOL1         0.0755
      15    C6      19.675395   18.633986   23.853065 C.3        1 MOL1        -0.1958
      16    H10     18.939403   17.973296   23.381361 H          1 MOL1         0.0753
      17    H11     20.639853   18.112530   23.835746 H          1 MOL1         0.0753
      18    C7      19.264591   18.820026   25.309279 C.2        1 MOL1         0.6174
      19    O1      20.140719   18.972602   26.137441 O.co2      1 MOL1        -0.6695
      20    O2      18.078706   18.827416   25.574488 O.co2      1 MOL1        -0.6695
@<TRIPOS>BOND
    1     1     2    1
    2     1     3    1
    3     1     4    2
    4     4     5    1
    5     4     6    1
    6     6     7    1
    7     6     8    1
    8     6     9    1
    9     9    10    1
   10     9    11    1
   11     9    12    1
   12    12    13    1
   13    12    14    1
   14    12    15    1
   15    15    16    1
   16    15    17    1
   17    15    18    1
   18    18    19    1
   19    18    20    2
@<TRIPOS>SUBSTRUCTURE
       1 MOL1            1 RESIDUE      1      MOL     
@<SCITEGIC>MOL_PROPERTY
VM2 Rank
SciTegic.value.IntegerValue
13

@<SCITEGIC>MOL_PROPERTY
Conf_Id
SciTegic.value.IntegerValue
350

@<SCITEGIC>MOL_PROPERTY
Probability
SciTegic.value.DoubleValue
3.32

@<SCITEGIC>MOL_PROPERTY
Sum Probability
SciTegic.value.DoubleValue
79.68

@<SCITEGIC>MOL_PROPERTY
Delta G
SciTegic.value.DoubleValue
0.855

@<SCITEGIC>MOL_PROPERTY
G
SciTegic.value.DoubleValue
-21.034

@<SCITEGIC>MOL_PROPERTY
E
SciTegic.value.DoubleValue
-36.029

@<SCITEGIC>MOL_PROPERTY
-TS
SciTegic.value.DoubleValue
14.996

@<SCITEGIC>MOL_PROPERTY
U+W
SciTegic.value.DoubleValue
-52.126

@<SCITEGIC>MOL_PROPERTY
U
SciTegic.value.DoubleValue
7.601

@<SCITEGIC>MOL_PROPERTY
W
SciTegic.value.DoubleValue
-59.727

@<SCITEGIC>MOL_PROPERTY
W(PB)
SciTegic.value.DoubleValue
-61.964

@<SCITEGIC>MOL_PROPERTY
W(SA)
SciTegic.value.DoubleValue
2.236

@<SCITEGIC>MOL_PROPERTY
Valence
SciTegic.value.DoubleValue
9.602

@<SCITEGIC>MOL_PROPERTY
Coulomb
SciTegic.value.DoubleValue
-2.686

@<SCITEGIC>MOL_PROPERTY
VdW
SciTegic.value.DoubleValue
0.685

@<SCITEGIC>MOL_PROPERTY
VdW6
SciTegic.value.DoubleValue
-6.453

@<SCITEGIC>MOL_PROPERTY
VdW12
SciTegic.value.DoubleValue
7.139

@<SCITEGIC>MOL_PROPERTY
Bond
SciTegic.value.DoubleValue
0.125

@<SCITEGIC>MOL_PROPERTY
Angle
SciTegic.value.DoubleValue
2.485

@<SCITEGIC>MOL_PROPERTY
Pdih
SciTegic.value.DoubleValue
6.991

@<SCITEGIC>MOL_PROPERTY
Idih
SciTegic.value.DoubleValue
0.001

@<SCITEGIC>MOL_PROPERTY
Tether
SciTegic.value.DoubleValue
0.000

@<TRIPOS>MOLECULE
guest-s22_vm2.mol2 : vm2 ligand conformer 14
          20          19           1
SMALL
USER_CHARGES
 
@<TRIPOS>ATOM
       1    C1      19.856053   17.566512   19.830172 C.2        1 MOL1        -0.2535
       2    H1      18.962916   17.494276   20.446769 H          1 MOL1         0.0845
       3    H2      20.196535   16.651859   19.348027 H          1 MOL1         0.0845
       4    C2      20.516042   18.717239   19.657787 C.2        1 MOL1        -0.1324
       5    H3      21.404060   18.728027   19.026323 H          1 MOL1         0.0833
       6    C3      20.167182   20.067537   20.264190 C.3        1 MOL1        -0.1813
       7    H4      19.757320   20.710259   19.473822 H          1 MOL1         0.0753
       8    H5      21.093973   20.561666   20.585232 H          1 MOL1         0.0753
       9    C4      19.183741   20.045044   21.460596 C.3        1 MOL1        -0.1855
      10    H6      18.901585   21.079831   21.698112 H          1 MOL1         0.0755
      11    H7      18.254448   19.534357   21.175579 H          1 MOL1         0.0755
      12    C5      19.791619   19.395389   22.725668 C.3        1 MOL1        -0.1855
      13    H8      20.703383   19.935459   23.015857 H          1 MOL1         0.0755
      14    H9      20.092409   18.360881   22.513187 H          1 MOL1         0.0755
      15    C6      18.795013   19.401126   23.910851 C.3        1 MOL1        -0.1958
      16    H10     18.497762   20.428898   24.151247 H          1 MOL1         0.0753
      17    H11     17.883613   18.854253   23.640929 H          1 MOL1         0.0753
      18    C7      19.371545   18.768095   25.172190 C.2        1 MOL1         0.6174
      19    O1      19.989286   19.479332   25.939855 O.co2      1 MOL1        -0.6695
      20    O2      19.200519   17.577725   25.346692 O.co2      1 MOL1        -0.6695
@<TRIPOS>BOND
    1     1     2    1
    2     1     3    1
    3     1     4    2
    4     4     5    1
    5     4     6    1
    6     6     7    1
    7     6     8    1
    8     6     9    1
    9     9    10    1
   10     9    11    1
   11     9    12    1
   12    12    13    1
   13    12    14    1
   14    12    15    1
   15    15    16    1
   16    15    17    1
   17    15    18    1
   18    18    19    1
   19    18    20    2
@<TRIPOS>SUBSTRUCTURE
       1 MOL1            1 RESIDUE      1      MOL     
@<SCITEGIC>MOL_PROPERTY
VM2 Rank
SciTegic.value.IntegerValue
14

@<SCITEGIC>MOL_PROPERTY
Conf_Id
SciTegic.value.IntegerValue
55

@<SCITEGIC>MOL_PROPERTY
Probability
SciTegic.value.DoubleValue
1.72

@<SCITEGIC>MOL_PROPERTY
Sum Probability
SciTegic.value.DoubleValue
81.40

@<SCITEGIC>MOL_PROPERTY
Delta G
SciTegic.value.DoubleValue
1.245

@<SCITEGIC>MOL_PROPERTY
G
SciTegic.value.DoubleValue
-20.643

@<SCITEGIC>MOL_PROPERTY
E
SciTegic.value.DoubleValue
-36.098

@<SCITEGIC>MOL_PROPERTY
-TS
SciTegic.value.DoubleValue
15.455

@<SCITEGIC>MOL_PROPERTY
U+W
SciTegic.value.DoubleValue
-52.194

@<SCITEGIC>MOL_PROPERTY
U
SciTegic.value.DoubleValue
8.773

@<SCITEGIC>MOL_PROPERTY
W
SciTegic.value.DoubleValue
-60.967

@<SCITEGIC>MOL_PROPERTY
W(PB)
SciTegic.value.DoubleValue
-63.158

@<SCITEGIC>MOL_PROPERTY
W(SA)
SciTegic.value.DoubleValue
2.191

@<SCITEGIC>MOL_PROPERTY
Valence
SciTegic.value.DoubleValue
8.762

@<SCITEGIC>MOL_PROPERTY
Coulomb
SciTegic.value.DoubleValue
-1.079

@<SCITEGIC>MOL_PROPERTY
VdW
SciTegic.value.DoubleValue
1.090

@<SCITEGIC>MOL_PROPERTY
VdW6
SciTegic.value.DoubleValue
-7.279

@<SCITEGIC>MOL_PROPERTY
VdW12
SciTegic.value.DoubleValue
8.369

@<SCITEGIC>MOL_PROPERTY
Bond
SciTegic.value.DoubleValue
0.166

@<SCITEGIC>MOL_PROPERTY
Angle
SciTegic.value.DoubleValue
3.199

@<SCITEGIC>MOL_PROPERTY
Pdih
SciTegic.value.DoubleValue
5.396

@<SCITEGIC>MOL_PROPERTY
Idih
SciTegic.value.DoubleValue
0.001

@<SCITEGIC>MOL_PROPERTY
Tether
SciTegic.value.DoubleValue
0.000

@<TRIPOS>MOLECULE
guest-s22_vm2.mol2 : vm2 ligand conformer 15
          20          19           1
SMALL
USER_CHARGES
 
@<TRIPOS>ATOM
       1    C1      20.938509   17.892881   19.969907 C.2        1 MOL1        -0.2535
       2    H1      21.553807   18.275493   20.781155 H          1 MOL1         0.0845
       3    H2      21.274592   16.976939   19.487126 H          1 MOL1         0.0845
       4    C2      19.820394   18.507496   19.567980 C.2        1 MOL1        -0.1324
       5    H3      19.246148   18.077355   18.747822 H          1 MOL1         0.0833
       6    C3      19.224894   19.783393   20.142612 C.3        1 MOL1        -0.1813
       7    H4      18.134285   19.669133   20.203380 H          1 MOL1         0.0753
       8    H5      19.389255   20.599306   19.426350 H          1 MOL1         0.0753
       9    C4      19.750819   20.216054   21.533748 C.3        1 MOL1        -0.1855
      10    H6      20.844065   20.315307   21.509651 H          1 MOL1         0.0755
      11    H7      19.359335   21.217870   21.757167 H          1 MOL1         0.0755
      12    C5      19.320117   19.253185   22.664833 C.3        1 MOL1        -0.1855
      13    H8      19.690668   18.239713   22.461376 H          1 MOL1         0.0755
      14    H9      18.223791   19.187606   22.695927 H          1 MOL1         0.0755
      15    C6      19.843829   19.717484   24.046163 C.3        1 MOL1        -0.1958
      16    H10     20.938842   19.775808   24.035095 H          1 MOL1         0.0753
      17    H11     19.467540   20.721416   24.276364 H          1 MOL1         0.0753
      18    C7      19.430286   18.785809   25.179766 C.2        1 MOL1         0.6174
      19    O1      20.175570   17.871645   25.472232 O.co2      1 MOL1        -0.6695
      20    O2      18.366583   18.990054   25.730758 O.co2      1 MOL1        -0.6695
@<TRIPOS>BOND
    1     1     2    1
    2     1     3    1
    3     1     4    2
    4     4     5    1
    5     4     6    1
    6     6     7    1
    7     6     8    1
    8     6     9    1
    9     9    10    1
   10     9    11    1
   11     9    12    1
   12    12    13    1
   13    12    14    1
   14    12    15    1
   15    15    16    1
   16    15    17    1
   17    15    18    1
   18    18    19    1
   19    18    20    2
@<TRIPOS>SUBSTRUCTURE
       1 MOL1            1 RESIDUE      1      MOL     
@<SCITEGIC>MOL_PROPERTY
VM2 Rank
SciTegic.value.IntegerValue
15

@<SCITEGIC>MOL_PROPERTY
Conf_Id
SciTegic.value.IntegerValue
297

@<SCITEGIC>MOL_PROPERTY
Probability
SciTegic.value.DoubleValue
1.56

@<SCITEGIC>MOL_PROPERTY
Sum Probability
SciTegic.value.DoubleValue
82.97

@<SCITEGIC>MOL_PROPERTY
Delta G
SciTegic.value.DoubleValue
1.303

@<SCITEGIC>MOL_PROPERTY
G
SciTegic.value.DoubleValue
-20.585

@<SCITEGIC>MOL_PROPERTY
E
SciTegic.value.DoubleValue
-36.041

@<SCITEGIC>MOL_PROPERTY
-TS
SciTegic.value.DoubleValue
15.456

@<SCITEGIC>MOL_PROPERTY
U+W
SciTegic.value.DoubleValue
-52.137

@<SCITEGIC>MOL_PROPERTY
U
SciTegic.value.DoubleValue
8.773

@<SCITEGIC>MOL_PROPERTY
W
SciTegic.value.DoubleValue
-60.910

@<SCITEGIC>MOL_PROPERTY
W(PB)
SciTegic.value.DoubleValue
-63.120

@<SCITEGIC>MOL_PROPERTY
W(SA)
SciTegic.value.DoubleValue
2.210

@<SCITEGIC>MOL_PROPERTY
Valence
SciTegic.value.DoubleValue
8.762

@<SCITEGIC>MOL_PROPERTY
Coulomb
SciTegic.value.DoubleValue
-1.079

@<SCITEGIC>MOL_PROPERTY
VdW
SciTegic.value.DoubleValue
1.090

@<SCITEGIC>MOL_PROPERTY
VdW6
SciTegic.value.DoubleValue
-7.279

@<SCITEGIC>MOL_PROPERTY
VdW12
SciTegic.value.DoubleValue
8.369

@<SCITEGIC>MOL_PROPERTY
Bond
SciTegic.value.DoubleValue
0.166

@<SCITEGIC>MOL_PROPERTY
Angle
SciTegic.value.DoubleValue
3.199

@<SCITEGIC>MOL_PROPERTY
Pdih
SciTegic.value.DoubleValue
5.396

@<SCITEGIC>MOL_PROPERTY
Idih
SciTegic.value.DoubleValue
0.000

@<SCITEGIC>MOL_PROPERTY
Tether
SciTegic.value.DoubleValue
0.000

@<TRIPOS>MOLECULE
guest-s22_vm2.mol2 : vm2 ligand conformer 16
          20          19           1
SMALL
USER_CHARGES
 
@<TRIPOS>ATOM
       1    C1      19.529717   18.519031   18.556535 C.2        1 MOL1        -0.2535
       2    H1      18.784412   18.531454   17.763039 H          1 MOL1         0.0845
       3    H2      20.334573   17.790073   18.476517 H          1 MOL1         0.0845
       4    C2      19.454434   19.364898   19.587315 C.2        1 MOL1        -0.1324
       5    H3      18.639931   20.086311   19.648999 H          1 MOL1         0.0833
       6    C3      20.451109   19.406784   20.724209 C.3        1 MOL1        -0.1813
       7    H4      20.766495   20.444273   20.898206 H          1 MOL1         0.0753
       8    H5      21.354958   18.841807   20.458506 H          1 MOL1         0.0753
       9    C4      19.844045   18.827020   22.018951 C.3        1 MOL1        -0.1855
      10    H6      18.941577   19.395239   22.283735 H          1 MOL1         0.0755
      11    H7      19.525470   17.790861   21.839628 H          1 MOL1         0.0755
      12    C5      20.849170   18.865159   23.192236 C.3        1 MOL1        -0.1855
      13    H8      21.161695   19.901633   23.381296 H          1 MOL1         0.0755
      14    H9      21.753714   18.308267   22.912496 H          1 MOL1         0.0755
      15    C6      20.267673   18.258316   24.495497 C.3        1 MOL1        -0.1958
      16    H10     19.925357   17.231973   24.315778 H          1 MOL1         0.0753
      17    H11     21.054825   18.201806   25.256532 H          1 MOL1         0.0753
      18    C7      19.113602   19.059491   25.091397 C.2        1 MOL1         0.6174
      19    O1      19.375778   20.091766   25.676861 O.co2      1 MOL1        -0.6695
      20    O2      17.985472   18.625535   24.964999 O.co2      1 MOL1        -0.6695
@<TRIPOS>BOND
    1     1     2    1
    2     1     3    1
    3     1     4    2
    4     4     5    1
    5     4     6    1
    6     6     7    1
    7     6     8    1
    8     6     9    1
    9     9    10    1
   10     9    11    1
   11     9    12    1
   12    12    13    1
   13    12    14    1
   14    12    15    1
   15    15    16    1
   16    15    17    1
   17    15    18    1
   18    18    19    1
   19    18    20    2
@<TRIPOS>SUBSTRUCTURE
       1 MOL1            1 RESIDUE      1      MOL     
@<SCITEGIC>MOL_PROPERTY
VM2 Rank
SciTegic.value.IntegerValue
16

@<SCITEGIC>MOL_PROPERTY
Conf_Id
SciTegic.value.IntegerValue
412

@<SCITEGIC>MOL_PROPERTY
Probability
SciTegic.value.DoubleValue
1.48

@<SCITEGIC>MOL_PROPERTY
Sum Probability
SciTegic.value.DoubleValue
84.45

@<SCITEGIC>MOL_PROPERTY
Delta G
SciTegic.value.DoubleValue
1.336

@<SCITEGIC>MOL_PROPERTY
G
SciTegic.value.DoubleValue
-20.552

@<SCITEGIC>MOL_PROPERTY
E
SciTegic.value.DoubleValue
-35.756

@<SCITEGIC>MOL_PROPERTY
-TS
SciTegic.value.DoubleValue
15.204

@<SCITEGIC>MOL_PROPERTY
U+W
SciTegic.value.DoubleValue
-51.853

@<SCITEGIC>MOL_PROPERTY
U
SciTegic.value.DoubleValue
8.963

@<SCITEGIC>MOL_PROPERTY
W
SciTegic.value.DoubleValue
-60.816

@<SCITEGIC>MOL_PROPERTY
W(PB)
SciTegic.value.DoubleValue
-63.056

@<SCITEGIC>MOL_PROPERTY
W(SA)
SciTegic.value.DoubleValue
2.240

@<SCITEGIC>MOL_PROPERTY
Valence
SciTegic.value.DoubleValue
9.327

@<SCITEGIC>MOL_PROPERTY
Coulomb
SciTegic.value.DoubleValue
-0.780

@<SCITEGIC>MOL_PROPERTY
VdW
SciTegic.value.DoubleValue
0.417

@<SCITEGIC>MOL_PROPERTY
VdW6
SciTegic.value.DoubleValue
-6.635

@<SCITEGIC>MOL_PROPERTY
VdW12
SciTegic.value.DoubleValue
7.052

@<SCITEGIC>MOL_PROPERTY
Bond
SciTegic.value.DoubleValue
0.105

@<SCITEGIC>MOL_PROPERTY
Angle
SciTegic.value.DoubleValue
2.399

@<SCITEGIC>MOL_PROPERTY
Pdih
SciTegic.value.DoubleValue
6.822

@<SCITEGIC>MOL_PROPERTY
Idih
SciTegic.value.DoubleValue
0.000

@<SCITEGIC>MOL_PROPERTY
Tether
SciTegic.value.DoubleValue
0.000

@<TRIPOS>MOLECULE
guest-s22_vm2.mol2 : vm2 ligand conformer 17
          20          19           1
SMALL
USER_CHARGES
 
@<TRIPOS>ATOM
       1    C1      19.106062   19.795352   18.881932 C.2        1 MOL1        -0.2535
       2    H1      18.427844   19.631867   18.046137 H          1 MOL1         0.0845
       3    H2      19.308865   20.826090   19.168342 H          1 MOL1         0.0845
       4    C2      19.663374   18.768804   19.529438 C.2        1 MOL1        -0.1324
       5    H3      19.446482   17.744436   19.227337 H          1 MOL1         0.0833
       6    C3      20.613828   18.917996   20.696505 C.3        1 MOL1        -0.1813
       7    H4      20.971940   19.954246   20.765274 H          1 MOL1         0.0753
       8    H5      21.498345   18.288053   20.532545 H          1 MOL1         0.0753
       9    C4      19.933815   18.520727   22.023465 C.3        1 MOL1        -0.1855
      10    H6      19.046407   19.150291   22.177846 H          1 MOL1         0.0755
      11    H7      19.579109   17.483035   21.956933 H          1 MOL1         0.0755
      12    C5      20.893383   18.664505   23.226334 C.3        1 MOL1        -0.1855
      13    H8      21.238991   19.704775   23.304473 H          1 MOL1         0.0755
      14    H9      21.785427   18.047148   23.054005 H          1 MOL1         0.0755
      15    C6      20.238316   18.239097   24.566033 C.3        1 MOL1        -0.1958
      16    H10     19.863748   17.210746   24.495009 H          1 MOL1         0.0753
      17    H11     20.992399   18.248061   25.361806 H          1 MOL1         0.0753
      18    C7      19.093811   19.144746   25.011903 C.2        1 MOL1         0.6174
      19    O1      19.372725   20.231128   25.479969 O.co2      1 MOL1        -0.6695
      20    O2      17.955685   18.735645   24.892421 O.co2      1 MOL1        -0.6695
@<TRIPOS>BOND
    1     1     2    1
    2     1     3    1
    3     1     4    2
    4     4     5    1
    5     4     6    1
    6     6     7    1
    7     6     8    1
    8     6     9    1
    9     9    10    1
   10     9    11    1
   11     9    12    1
   12    12    13    1
   13    12    14    1
   14    12    15    1
   15    15    16    1
   16    15    17    1
   17    15    18    1
   18    18    19    1
   19    18    20    2
@<TRIPOS>SUBSTRUCTURE
       1 MOL1            1 RESIDUE      1      MOL     
@<SCITEGIC>MOL_PROPERTY
VM2 Rank
SciTegic.value.IntegerValue
17

@<SCITEGIC>MOL_PROPERTY
Conf_Id
SciTegic.value.IntegerValue
232

@<SCITEGIC>MOL_PROPERTY
Probability
SciTegic.value.DoubleValue
1.35

@<SCITEGIC>MOL_PROPERTY
Sum Probability
SciTegic.value.DoubleValue
85.80

@<SCITEGIC>MOL_PROPERTY
Delta G
SciTegic.value.DoubleValue
1.391

@<SCITEGIC>MOL_PROPERTY
G
SciTegic.value.DoubleValue
-20.498

@<SCITEGIC>MOL_PROPERTY
E
SciTegic.value.DoubleValue
-35.704

@<SCITEGIC>MOL_PROPERTY
-TS
SciTegic.value.DoubleValue
15.207

@<SCITEGIC>MOL_PROPERTY
U+W
SciTegic.value.DoubleValue
-51.801

@<SCITEGIC>MOL_PROPERTY
U
SciTegic.value.DoubleValue
9.411

@<SCITEGIC>MOL_PROPERTY
W
SciTegic.value.DoubleValue
-61.212

@<SCITEGIC>MOL_PROPERTY
W(PB)
SciTegic.value.DoubleValue
-63.461

@<SCITEGIC>MOL_PROPERTY
W(SA)
SciTegic.value.DoubleValue
2.249

@<SCITEGIC>MOL_PROPERTY
Valence
SciTegic.value.DoubleValue
9.329

@<SCITEGIC>MOL_PROPERTY
Coulomb
SciTegic.value.DoubleValue
-0.325

@<SCITEGIC>MOL_PROPERTY
VdW
SciTegic.value.DoubleValue
0.406

@<SCITEGIC>MOL_PROPERTY
VdW6
SciTegic.value.DoubleValue
-6.640

@<SCITEGIC>MOL_PROPERTY
VdW12
SciTegic.value.DoubleValue
7.046

@<SCITEGIC>MOL_PROPERTY
Bond
SciTegic.value.DoubleValue
0.105

@<SCITEGIC>MOL_PROPERTY
Angle
SciTegic.value.DoubleValue
2.401

@<SCITEGIC>MOL_PROPERTY
Pdih
SciTegic.value.DoubleValue
6.823

@<SCITEGIC>MOL_PROPERTY
Idih
SciTegic.value.DoubleValue
0.000

@<SCITEGIC>MOL_PROPERTY
Tether
SciTegic.value.DoubleValue
0.000

@<TRIPOS>MOLECULE
guest-s22_vm2.mol2 : vm2 ligand conformer 18
          20          19           1
SMALL
USER_CHARGES
 
@<TRIPOS>ATOM
       1    C1      19.949104   18.191946   18.616881 C.2        1 MOL1        -0.2535
       2    H1      19.081493   18.766650   18.296659 H          1 MOL1         0.0845
       3    H2      20.271137   17.372355   17.976700 H          1 MOL1         0.0845
       4    C2      20.594359   18.476199   19.751127 C.2        1 MOL1        -0.1324
       5    H3      21.460248   17.887887   20.054085 H          1 MOL1         0.0833
       6    C3      20.206441   19.597553   20.689066 C.3        1 MOL1        -0.1813
       7    H4      19.506108   20.283174   20.192884 H          1 MOL1         0.0753
       8    H5      21.097164   20.186522   20.945689 H          1 MOL1         0.0753
       9    C4      19.561397   19.047447   21.978375 C.3        1 MOL1        -0.1855
      10    H6      18.673576   18.455087   21.717308 H          1 MOL1         0.0755
      11    H7      20.264656   18.363795   22.473836 H          1 MOL1         0.0755
      12    C5      19.161619   20.180940   22.949818 C.3        1 MOL1        -0.1855
      13    H8      18.471435   20.867442   22.440951 H          1 MOL1         0.0755
      14    H9      20.049421   20.768873   23.221549 H          1 MOL1         0.0755
      15    C6      18.483208   19.649632   24.239145 C.3        1 MOL1        -0.1958
      16    H10     18.115287   20.493719   24.834233 H          1 MOL1         0.0753
      17    H11     17.610241   19.037043   23.983168 H          1 MOL1         0.0753
      18    C7      19.408394   18.829575   25.133798 C.2        1 MOL1         0.6174
      19    O1      20.233957   19.422714   25.799926 O.co2      1 MOL1        -0.6695
      20    O2      19.272520   17.621994   25.149865 O.co2      1 MOL1        -0.6695
@<TRIPOS>BOND
    1     1     2    1
    2     1     3    1
    3     1     4    2
    4     4     5    1
    5     4     6    1
    6     6     7    1
    7     6     8    1
    8     6     9    1
    9     9    10    1
   10     9    11    1
   11     9    12    1
   12    12    13    1
   13    12    14    1
   14    12    15    1
   15    15    16    1
   16    15    17    1
   17    15    18    1
   18    18    19    1
   19    18    20    2
@<TRIPOS>SUBSTRUCTURE
       1 MOL1            1 RESIDUE      1      MOL     
@<SCITEGIC>MOL_PROPERTY
VM2 Rank
SciTegic.value.IntegerValue
18

@<SCITEGIC>MOL_PROPERTY
Conf_Id
SciTegic.value.IntegerValue
40

@<SCITEGIC>MOL_PROPERTY
Probability
SciTegic.value.DoubleValue
1.34

@<SCITEGIC>MOL_PROPERTY
Sum Probability
SciTegic.value.DoubleValue
87.14

@<SCITEGIC>MOL_PROPERTY
Delta G
SciTegic.value.DoubleValue
1.398

@<SCITEGIC>MOL_PROPERTY
G
SciTegic.value.DoubleValue
-20.491

@<SCITEGIC>MOL_PROPERTY
E
SciTegic.value.DoubleValue
-35.696

@<SCITEGIC>MOL_PROPERTY
-TS
SciTegic.value.DoubleValue
15.205

@<SCITEGIC>MOL_PROPERTY
U+W
SciTegic.value.DoubleValue
-51.793

@<SCITEGIC>MOL_PROPERTY
U
SciTegic.value.DoubleValue
8.964

@<SCITEGIC>MOL_PROPERTY
W
SciTegic.value.DoubleValue
-60.756

@<SCITEGIC>MOL_PROPERTY
W(PB)
SciTegic.value.DoubleValue
-63.007

@<SCITEGIC>MOL_PROPERTY
W(SA)
SciTegic.value.DoubleValue
2.251

@<SCITEGIC>MOL_PROPERTY
Valence
SciTegic.value.DoubleValue
9.327

@<SCITEGIC>MOL_PROPERTY
Coulomb
SciTegic.value.DoubleValue
-0.779

@<SCITEGIC>MOL_PROPERTY
VdW
SciTegic.value.DoubleValue
0.417

@<SCITEGIC>MOL_PROPERTY
VdW6
SciTegic.value.DoubleValue
-6.635

@<SCITEGIC>MOL_PROPERTY
VdW12
SciTegic.value.DoubleValue
7.052

@<SCITEGIC>MOL_PROPERTY
Bond
SciTegic.value.DoubleValue
0.105

@<SCITEGIC>MOL_PROPERTY
Angle
SciTegic.value.DoubleValue
2.400

@<SCITEGIC>MOL_PROPERTY
Pdih
SciTegic.value.DoubleValue
6.822

@<SCITEGIC>MOL_PROPERTY
Idih
SciTegic.value.DoubleValue
0.000

@<SCITEGIC>MOL_PROPERTY
Tether
SciTegic.value.DoubleValue
0.000

@<TRIPOS>MOLECULE
guest-s22_vm2.mol2 : vm2 ligand conformer 19
          20          19           1
SMALL
USER_CHARGES
 
@<TRIPOS>ATOM
       1    C1      20.614561   17.727822   19.100969 C.2        1 MOL1        -0.2535
       2    H1      20.333224   17.020456   18.322673 H          1 MOL1         0.0845
       3    H2      21.623038   17.653540   19.504750 H          1 MOL1         0.0845
       4    C2      19.752364   18.647356   19.542256 C.2        1 MOL1        -0.1324
       5    H3      18.747037   18.704141   19.125448 H          1 MOL1         0.0833
       6    C3      20.071421   19.661572   20.618003 C.3        1 MOL1        -0.1813
       7    H4      19.766636   20.661647   20.281793 H          1 MOL1         0.0753
       8    H5      21.155287   19.703148   20.792059 H          1 MOL1         0.0753
       9    C4      19.352160   19.317734   21.939176 C.3        1 MOL1        -0.1855
      10    H6      18.267771   19.279971   21.766769 H          1 MOL1         0.0755
      11    H7      19.656781   18.313779   22.266223 H          1 MOL1         0.0755
      12    C5      19.665187   20.347148   23.048525 C.3        1 MOL1        -0.1855
      13    H8      19.375128   21.349386   22.705081 H          1 MOL1         0.0755
      14    H9      20.748050   20.377311   23.233485 H          1 MOL1         0.0755
      15    C6      18.926023   20.036744   24.375990 C.3        1 MOL1        -0.1958
      16    H10     19.088486   20.856043   25.086153 H          1 MOL1         0.0753
      17    H11     17.844754   19.976507   24.202542 H          1 MOL1         0.0753
      18    C7      19.383225   18.748158   25.053786 C.2        1 MOL1         0.6174
      19    O1      20.450180   18.755063   25.635737 O.co2      1 MOL1        -0.6695
      20    O2      18.655879   17.776402   24.993557 O.co2      1 MOL1        -0.6695
@<TRIPOS>BOND
    1     1     2    1
    2     1     3    1
    3     1     4    2
    4     4     5    1
    5     4     6    1
    6     6     7    1
    7     6     8    1
    8     6     9    1
    9     9    10    1
   10     9    11    1
   11     9    12    1
   12    12    13    1
   13    12    14    1
   14    12    15    1
   15    15    16    1
   16    15    17    1
   17    15    18    1
   18    18    19    1
   19    18    20    2
@<TRIPOS>SUBSTRUCTURE
       1 MOL1            1 RESIDUE      1      MOL     
@<SCITEGIC>MOL_PROPERTY
VM2 Rank
SciTegic.value.IntegerValue
19

@<SCITEGIC>MOL_PROPERTY
Conf_Id
SciTegic.value.IntegerValue
558

@<SCITEGIC>MOL_PROPERTY
Probability
SciTegic.value.DoubleValue
1.32

@<SCITEGIC>MOL_PROPERTY
Sum Probability
SciTegic.value.DoubleValue
88.45

@<SCITEGIC>MOL_PROPERTY
Delta G
SciTegic.value.DoubleValue
1.407

@<SCITEGIC>MOL_PROPERTY
G
SciTegic.value.DoubleValue
-20.482

@<SCITEGIC>MOL_PROPERTY
E
SciTegic.value.DoubleValue
-35.688

@<SCITEGIC>MOL_PROPERTY
-TS
SciTegic.value.DoubleValue
15.207

@<SCITEGIC>MOL_PROPERTY
U+W
SciTegic.value.DoubleValue
-51.785

@<SCITEGIC>MOL_PROPERTY
U
SciTegic.value.DoubleValue
9.412

@<SCITEGIC>MOL_PROPERTY
W
SciTegic.value.DoubleValue
-61.197

@<SCITEGIC>MOL_PROPERTY
W(PB)
SciTegic.value.DoubleValue
-63.440

@<SCITEGIC>MOL_PROPERTY
W(SA)
SciTegic.value.DoubleValue
2.243

@<SCITEGIC>MOL_PROPERTY
Valence
SciTegic.value.DoubleValue
9.329

@<SCITEGIC>MOL_PROPERTY
Coulomb
SciTegic.value.DoubleValue
-0.323

@<SCITEGIC>MOL_PROPERTY
VdW
SciTegic.value.DoubleValue
0.406

@<SCITEGIC>MOL_PROPERTY
VdW6
SciTegic.value.DoubleValue
-6.640

@<SCITEGIC>MOL_PROPERTY
VdW12
SciTegic.value.DoubleValue
7.047

@<SCITEGIC>MOL_PROPERTY
Bond
SciTegic.value.DoubleValue
0.105

@<SCITEGIC>MOL_PROPERTY
Angle
SciTegic.value.DoubleValue
2.401

@<SCITEGIC>MOL_PROPERTY
Pdih
SciTegic.value.DoubleValue
6.823

@<SCITEGIC>MOL_PROPERTY
Idih
SciTegic.value.DoubleValue
0.000

@<SCITEGIC>MOL_PROPERTY
Tether
SciTegic.value.DoubleValue
0.000

@<TRIPOS>MOLECULE
guest-s22_vm2.mol2 : vm2 ligand conformer 20
          20          19           1
SMALL
USER_CHARGES
 
@<TRIPOS>ATOM
       1    C1      20.785625   17.753785   19.583368 C.2        1 MOL1        -0.2535
       2    H1      21.126322   17.167994   18.731348 H          1 MOL1         0.0845
       3    H2      21.209721   17.502191   20.553203 H          1 MOL1         0.0845
       4    C2      19.886993   18.732123   19.424500 C.2        1 MOL1        -0.1324
       5    H3      19.497773   18.937405   18.427519 H          1 MOL1         0.0833
       6    C3      19.319538   19.629567   20.511538 C.3        1 MOL1        -0.1813
       7    H4      18.226031   19.527995   20.518039 H          1 MOL1         0.0753
       8    H5      19.518234   20.676044   20.244184 H          1 MOL1         0.0753
       9    C4      19.862218   19.357520   21.934078 C.3        1 MOL1        -0.1855
      10    H6      19.648900   18.316478   22.213471 H          1 MOL1         0.0755
      11    H7      20.954307   19.476848   21.940038 H          1 MOL1         0.0755
      12    C5      19.236983   20.310899   22.977593 C.3        1 MOL1        -0.1855
      13    H8      18.145036   20.187465   22.987642 H          1 MOL1         0.0755
      14    H9      19.435033   21.350528   22.683475 H          1 MOL1         0.0755
      15    C6      19.793123   20.077925   24.406380 C.3        1 MOL1        -0.1958
      16    H10     20.885734   20.173066   24.407839 H          1 MOL1         0.0753
      17    H11     19.406233   20.850818   25.080863 H          1 MOL1         0.0753
      18    C7      19.421526   18.723512   25.003357 C.2        1 MOL1         0.6174
      19    O1      20.278301   17.863262   25.056990 O.co2      1 MOL1        -0.6695
      20    O2      18.286694   18.569405   25.410195 O.co2      1 MOL1        -0.6695
@<TRIPOS>BOND
    1     1     2    1
    2     1     3    1
    3     1     4    2
    4     4     5    1
    5     4     6    1
    6     6     7    1
    7     6     8    1
    8     6     9    1
    9     9    10    1
   10     9    11    1
   11     9    12    1
   12    12    13    1
   13    12    14    1
   14    12    15    1
   15    15    16    1
   16    15    17    1
   17    15    18    1
   18    18    19    1
   19    18    20    2
@<TRIPOS>SUBSTRUCTURE
       1 MOL1            1 RESIDUE      1      MOL     
@<SCITEGIC>MOL_PROPERTY
VM2 Rank
SciTegic.value.IntegerValue
20

@<SCITEGIC>MOL_PROPERTY
Conf_Id
SciTegic.value.IntegerValue
332

@<SCITEGIC>MOL_PROPERTY
Probability
SciTegic.value.DoubleValue
1.18

@<SCITEGIC>MOL_PROPERTY
Sum Probability
SciTegic.value.DoubleValue
89.63

@<SCITEGIC>MOL_PROPERTY
Delta G
SciTegic.value.DoubleValue
1.471

@<SCITEGIC>MOL_PROPERTY
G
SciTegic.value.DoubleValue
-20.417

@<SCITEGIC>MOL_PROPERTY
E
SciTegic.value.DoubleValue
-35.990

@<SCITEGIC>MOL_PROPERTY
-TS
SciTegic.value.DoubleValue
15.572

@<SCITEGIC>MOL_PROPERTY
U+W
SciTegic.value.DoubleValue
-52.086

@<SCITEGIC>MOL_PROPERTY
U
SciTegic.value.DoubleValue
9.323

@<SCITEGIC>MOL_PROPERTY
W
SciTegic.value.DoubleValue
-61.409

@<SCITEGIC>MOL_PROPERTY
W(PB)
SciTegic.value.DoubleValue
-63.641

@<SCITEGIC>MOL_PROPERTY
W(SA)
SciTegic.value.DoubleValue
2.232

@<SCITEGIC>MOL_PROPERTY
Valence
SciTegic.value.DoubleValue
8.234

@<SCITEGIC>MOL_PROPERTY
Coulomb
SciTegic.value.DoubleValue
-0.022

@<SCITEGIC>MOL_PROPERTY
VdW
SciTegic.value.DoubleValue
1.111

@<SCITEGIC>MOL_PROPERTY
VdW6
SciTegic.value.DoubleValue
-7.367

@<SCITEGIC>MOL_PROPERTY
VdW12
SciTegic.value.DoubleValue
8.478

@<SCITEGIC>MOL_PROPERTY
Bond
SciTegic.value.DoubleValue
0.158

@<SCITEGIC>MOL_PROPERTY
Angle
SciTegic.value.DoubleValue
3.010

@<SCITEGIC>MOL_PROPERTY
Pdih
SciTegic.value.DoubleValue
5.066

@<SCITEGIC>MOL_PROPERTY
Idih
SciTegic.value.DoubleValue
0.000

@<SCITEGIC>MOL_PROPERTY
Tether
SciTegic.value.DoubleValue
0.000

@<TRIPOS>MOLECULE
guest-s22_vm2.mol2 : vm2 ligand conformer 21
          20          19           1
SMALL
USER_CHARGES
 
@<TRIPOS>ATOM
       1    C1      21.101084   18.480808   19.143067 C.2        1 MOL1        -0.2535
       2    H1      20.425269   18.488369   18.289437 H          1 MOL1         0.0845
       3    H2      22.071178   18.005001   19.010086 H          1 MOL1         0.0845
       4    C2      20.756047   19.029896   20.310600 C.2        1 MOL1        -0.1324
       5    H3      21.448305   19.013544   21.152048 H          1 MOL1         0.0833
       6    C3      19.429506   19.712199   20.567944 C.3        1 MOL1        -0.1813
       7    H4      18.961591   19.983254   19.611918 H          1 MOL1         0.0753
       8    H5      19.591642   20.657684   21.100689 H          1 MOL1         0.0753
       9    C4      18.447377   18.814293   21.358280 C.3        1 MOL1        -0.1855
      10    H6      17.488652   19.339903   21.464460 H          1 MOL1         0.0755
      11    H7      18.238114   17.913184   20.765625 H          1 MOL1         0.0755
      12    C5      18.947990   18.384633   22.760104 C.3        1 MOL1        -0.1855
      13    H8      19.870742   17.796217   22.665743 H          1 MOL1         0.0755
      14    H9      18.202142   17.713532   23.208015 H          1 MOL1         0.0755
      15    C6      19.189575   19.574807   23.724337 C.3        1 MOL1        -0.1958
      16    H10     19.994926   20.216730   23.349930 H          1 MOL1         0.0753
      17    H11     18.286637   20.192564   23.797372 H          1 MOL1         0.0753
      18    C7      19.571222   19.125750   25.130207 C.2        1 MOL1         0.6174
      19    O1      20.748807   18.959080   25.379725 O.co2      1 MOL1        -0.6695
      20    O2      18.679394   18.936533   25.933736 O.co2      1 MOL1        -0.6695
@<TRIPOS>BOND
    1     1     2    1
    2     1     3    1
    3     1     4    2
    4     4     5    1
    5     4     6    1
    6     6     7    1
    7     6     8    1
    8     6     9    1
    9     9    10    1
   10     9    11    1
   11     9    12    1
   12    12    13    1
   13    12    14    1
   14    12    15    1
   15    15    16    1
   16    15    17    1
   17    15    18    1
   18    18    19    1
   19    18    20    2
@<TRIPOS>SUBSTRUCTURE
       1 MOL1            1 RESIDUE      1      MOL     
@<SCITEGIC>MOL_PROPERTY
VM2 Rank
SciTegic.value.IntegerValue
21

@<SCITEGIC>MOL_PROPERTY
Conf_Id
SciTegic.value.IntegerValue
528

@<SCITEGIC>MOL_PROPERTY
Probability
SciTegic.value.DoubleValue
1.05

@<SCITEGIC>MOL_PROPERTY
Sum Probability
SciTegic.value.DoubleValue
90.68

@<SCITEGIC>MOL_PROPERTY
Delta G
SciTegic.value.DoubleValue
1.542

@<SCITEGIC>MOL_PROPERTY
G
SciTegic.value.DoubleValue
-20.346

@<SCITEGIC>MOL_PROPERTY
E
SciTegic.value.DoubleValue
-35.613

@<SCITEGIC>MOL_PROPERTY
-TS
SciTegic.value.DoubleValue
15.267

@<SCITEGIC>MOL_PROPERTY
U+W
SciTegic.value.DoubleValue
-51.709

@<SCITEGIC>MOL_PROPERTY
U
SciTegic.value.DoubleValue
8.691

@<SCITEGIC>MOL_PROPERTY
W
SciTegic.value.DoubleValue
-60.400

@<SCITEGIC>MOL_PROPERTY
W(PB)
SciTegic.value.DoubleValue
-62.593

@<SCITEGIC>MOL_PROPERTY
W(SA)
SciTegic.value.DoubleValue
2.193

@<SCITEGIC>MOL_PROPERTY
Valence
SciTegic.value.DoubleValue
9.775

@<SCITEGIC>MOL_PROPERTY
Coulomb
SciTegic.value.DoubleValue
-1.698

@<SCITEGIC>MOL_PROPERTY
VdW
SciTegic.value.DoubleValue
0.614

@<SCITEGIC>MOL_PROPERTY
VdW6
SciTegic.value.DoubleValue
-7.233

@<SCITEGIC>MOL_PROPERTY
VdW12
SciTegic.value.DoubleValue
7.847

@<SCITEGIC>MOL_PROPERTY
Bond
SciTegic.value.DoubleValue
0.151

@<SCITEGIC>MOL_PROPERTY
Angle
SciTegic.value.DoubleValue
2.692

@<SCITEGIC>MOL_PROPERTY
Pdih
SciTegic.value.DoubleValue
6.931

@<SCITEGIC>MOL_PROPERTY
Idih
SciTegic.value.DoubleValue
0.001

@<SCITEGIC>MOL_PROPERTY
Tether
SciTegic.value.DoubleValue
0.000

@<TRIPOS>MOLECULE
guest-s22_vm2.mol2 : vm2 ligand conformer 22
          20          19           1
SMALL
USER_CHARGES
 
@<TRIPOS>ATOM
       1    C1      19.597035   18.027682   18.949039 C.2        1 MOL1        -0.2535
       2    H1      20.336300   18.461795   18.277848 H          1 MOL1         0.0845
       3    H2      19.105004   17.111361   18.627448 H          1 MOL1         0.0845
       4    C2      19.304430   18.592504   20.123364 C.2        1 MOL1        -0.1324
       5    H3      18.559526   18.142946   20.779518 H          1 MOL1         0.0833
       6    C3      19.942420   19.866700   20.634121 C.3        1 MOL1        -0.1813
       7    H4      19.173158   20.531565   21.046721 H          1 MOL1         0.0753
       8    H5      20.394794   20.415026   19.796806 H          1 MOL1         0.0753
       9    C4      21.038490   19.594940   21.692525 C.3        1 MOL1        -0.1855
      10    H6      21.835530   18.997000   21.229681 H          1 MOL1         0.0755
      11    H7      21.500512   20.548602   21.981936 H          1 MOL1         0.0755
      12    C5      20.542221   18.864969   22.965786 C.3        1 MOL1        -0.1855
      13    H8      21.404195   18.678374   23.621129 H          1 MOL1         0.0755
      14    H9      20.140702   17.877504   22.700635 H          1 MOL1         0.0755
      15    C6      19.475188   19.660861   23.761160 C.3        1 MOL1        -0.1958
      16    H10     19.849740   20.663563   23.998969 H          1 MOL1         0.0753
      17    H11     18.564012   19.785536   23.165299 H          1 MOL1         0.0753
      18    C7      19.084397   18.979096   25.067396 C.2        1 MOL1         0.6174
      19    O1      19.718663   19.250161   26.067922 O.co2      1 MOL1        -0.6695
      20    O2      18.168156   18.181088   25.046687 O.co2      1 MOL1        -0.6695
@<TRIPOS>BOND
    1     1     2    1
    2     1     3    1
    3     1     4    2
    4     4     5    1
    5     4     6    1
    6     6     7    1
    7     6     8    1
    8     6     9    1
    9     9    10    1
   10     9    11    1
   11     9    12    1
   12    12    13    1
   13    12    14    1
   14    12    15    1
   15    15    16    1
   16    15    17    1
   17    15    18    1
   18    18    19    1
   19    18    20    2
@<TRIPOS>SUBSTRUCTURE
       1 MOL1            1 RESIDUE      1      MOL     
@<SCITEGIC>MOL_PROPERTY
VM2 Rank
SciTegic.value.IntegerValue
22

@<SCITEGIC>MOL_PROPERTY
Conf_Id
SciTegic.value.IntegerValue
168

@<SCITEGIC>MOL_PROPERTY
Probability
SciTegic.value.DoubleValue
1.00

@<SCITEGIC>MOL_PROPERTY
Sum Probability
SciTegic.value.DoubleValue
91.68

@<SCITEGIC>MOL_PROPERTY
Delta G
SciTegic.value.DoubleValue
1.569

@<SCITEGIC>MOL_PROPERTY
G
SciTegic.value.DoubleValue
-20.320

@<SCITEGIC>MOL_PROPERTY
E
SciTegic.value.DoubleValue
-35.586

@<SCITEGIC>MOL_PROPERTY
-TS
SciTegic.value.DoubleValue
15.267

@<SCITEGIC>MOL_PROPERTY
U+W
SciTegic.value.DoubleValue
-51.683

@<SCITEGIC>MOL_PROPERTY
U
SciTegic.value.DoubleValue
8.691

@<SCITEGIC>MOL_PROPERTY
W
SciTegic.value.DoubleValue
-60.374

@<SCITEGIC>MOL_PROPERTY
W(PB)
SciTegic.value.DoubleValue
-62.581

@<SCITEGIC>MOL_PROPERTY
W(SA)
SciTegic.value.DoubleValue
2.207

@<SCITEGIC>MOL_PROPERTY
Valence
SciTegic.value.DoubleValue
9.775

@<SCITEGIC>MOL_PROPERTY
Coulomb
SciTegic.value.DoubleValue
-1.698

@<SCITEGIC>MOL_PROPERTY
VdW
SciTegic.value.DoubleValue
0.614

@<SCITEGIC>MOL_PROPERTY
VdW6
SciTegic.value.DoubleValue
-7.233

@<SCITEGIC>MOL_PROPERTY
VdW12
SciTegic.value.DoubleValue
7.847

@<SCITEGIC>MOL_PROPERTY
Bond
SciTegic.value.DoubleValue
0.151

@<SCITEGIC>MOL_PROPERTY
Angle
SciTegic.value.DoubleValue
2.692

@<SCITEGIC>MOL_PROPERTY
Pdih
SciTegic.value.DoubleValue
6.931

@<SCITEGIC>MOL_PROPERTY
Idih
SciTegic.value.DoubleValue
0.001

@<SCITEGIC>MOL_PROPERTY
Tether
SciTegic.value.DoubleValue
0.000

@<TRIPOS>MOLECULE
guest-s22_vm2.mol2 : vm2 ligand conformer 23
          20          19           1
SMALL
USER_CHARGES
 
@<TRIPOS>ATOM
       1    C1      20.257515   18.201953   18.303881 C.2        1 MOL1        -0.2535
       2    H1      19.654017   17.308794   18.457658 H          1 MOL1         0.0845
       3    H2      20.905584   18.224155   17.429358 H          1 MOL1         0.0845
       4    C2      20.209621   19.231152   19.153650 C.2        1 MOL1        -0.1324
       5    H3      20.822488   20.115761   18.981840 H          1 MOL1         0.0833
       6    C3      19.334671   19.272384   20.386697 C.3        1 MOL1        -0.1813
       7    H4      18.576165   18.479017   20.341522 H          1 MOL1         0.0753
       8    H5      18.792022   20.226602   20.420518 H          1 MOL1         0.0753
       9    C4      20.173925   19.108383   21.671076 C.3        1 MOL1        -0.1855
      10    H6      20.717840   18.154509   21.630269 H          1 MOL1         0.0755
      11    H7      20.929393   19.904761   21.718100 H          1 MOL1         0.0755
      12    C5      19.295807   19.151101   22.940801 C.3        1 MOL1        -0.1855
      13    H8      18.540239   18.354523   22.894722 H          1 MOL1         0.0755
      14    H9      18.750624   20.104327   22.981544 H          1 MOL1         0.0755
      15    C6      20.140190   18.985395   24.232295 C.3        1 MOL1        -0.1958
      16    H10     20.682102   18.032883   24.201220 H          1 MOL1         0.0753
      17    H11     20.892376   19.781014   24.288100 H          1 MOL1         0.0753
      18    C7      19.346273   19.015926   25.539231 C.2        1 MOL1         0.6174
      19    O1      19.973618   18.890533   26.572116 O.co2      1 MOL1        -0.6695
      20    O2      18.139380   19.161173   25.508254 O.co2      1 MOL1        -0.6695
@<TRIPOS>BOND
    1     1     2    1
    2     1     3    1
    3     1     4    2
    4     4     5    1
    5     4     6    1
    6     6     7    1
    7     6     8    1
    8     6     9    1
    9     9    10    1
   10     9    11    1
   11     9    12    1
   12    12    13    1
   13    12    14    1
   14    12    15    1
   15    15    16    1
   16    15    17    1
   17    15    18    1
   18    18    19    1
   19    18    20    2
@<TRIPOS>SUBSTRUCTURE
       1 MOL1            1 RESIDUE      1      MOL     
@<SCITEGIC>MOL_PROPERTY
VM2 Rank
SciTegic.value.IntegerValue
23

@<SCITEGIC>MOL_PROPERTY
Conf_Id
SciTegic.value.IntegerValue
33

@<SCITEGIC>MOL_PROPERTY
Probability
SciTegic.value.DoubleValue
0.86

@<SCITEGIC>MOL_PROPERTY
Sum Probability
SciTegic.value.DoubleValue
92.55

@<SCITEGIC>MOL_PROPERTY
Delta G
SciTegic.value.DoubleValue
1.657

@<SCITEGIC>MOL_PROPERTY
G
SciTegic.value.DoubleValue
-20.231

@<SCITEGIC>MOL_PROPERTY
E
SciTegic.value.DoubleValue
-35.649

@<SCITEGIC>MOL_PROPERTY
-TS
SciTegic.value.DoubleValue
15.418

@<SCITEGIC>MOL_PROPERTY
U+W
SciTegic.value.DoubleValue
-51.745

@<SCITEGIC>MOL_PROPERTY
U
SciTegic.value.DoubleValue
7.593

@<SCITEGIC>MOL_PROPERTY
W
SciTegic.value.DoubleValue
-59.338

@<SCITEGIC>MOL_PROPERTY
W(PB)
SciTegic.value.DoubleValue
-61.574

@<SCITEGIC>MOL_PROPERTY
W(SA)
SciTegic.value.DoubleValue
2.236

@<SCITEGIC>MOL_PROPERTY
Valence
SciTegic.value.DoubleValue
9.570

@<SCITEGIC>MOL_PROPERTY
Coulomb
SciTegic.value.DoubleValue
-3.091

@<SCITEGIC>MOL_PROPERTY
VdW
SciTegic.value.DoubleValue
1.114

@<SCITEGIC>MOL_PROPERTY
VdW6
SciTegic.value.DoubleValue
-6.064

@<SCITEGIC>MOL_PROPERTY
VdW12
SciTegic.value.DoubleValue
7.178

@<SCITEGIC>MOL_PROPERTY
Bond
SciTegic.value.DoubleValue
0.117

@<SCITEGIC>MOL_PROPERTY
Angle
SciTegic.value.DoubleValue
2.692

@<SCITEGIC>MOL_PROPERTY
Pdih
SciTegic.value.DoubleValue
6.761

@<SCITEGIC>MOL_PROPERTY
Idih
SciTegic.value.DoubleValue
0.000

@<SCITEGIC>MOL_PROPERTY
Tether
SciTegic.value.DoubleValue
0.000

@<TRIPOS>MOLECULE
guest-s22_vm2.mol2 : vm2 ligand conformer 24
          20          19           1
SMALL
USER_CHARGES
 
@<TRIPOS>ATOM
       1    C1      19.097223   17.563732   20.121292 C.2        1 MOL1        -0.2535
       2    H1      19.286765   16.569220   19.721301 H          1 MOL1         0.0845
       3    H2      18.166068   17.716376   20.664402 H          1 MOL1         0.0845
       4    C2      19.977975   18.554022   19.955232 C.2        1 MOL1        -0.1324
       5    H3      20.905830   18.379303   19.411329 H          1 MOL1         0.0833
       6    C3      19.784817   19.960024   20.482125 C.3        1 MOL1        -0.1813
       7    H4      18.749680   20.110933   20.814198 H          1 MOL1         0.0753
       8    H5      19.946022   20.673162   19.662890 H          1 MOL1         0.0753
       9    C4      20.765678   20.297306   21.630763 C.3        1 MOL1        -0.1855
      10    H6      21.794538   20.209417   21.255839 H          1 MOL1         0.0755
      11    H7      20.634002   21.349373   21.918024 H          1 MOL1         0.0755
      12    C5      20.613560   19.405019   22.887976 C.3        1 MOL1        -0.1855
      13    H8      21.402679   19.670893   23.604789 H          1 MOL1         0.0755
      14    H9      20.780219   18.351820   22.623434 H          1 MOL1         0.0755
      15    C6      19.236647   19.550162   23.586458 C.3        1 MOL1        -0.1958
      16    H10     19.036229   20.603832   23.813793 H          1 MOL1         0.0753
      17    H11     18.433288   19.199451   22.928884 H          1 MOL1         0.0753
      18    C7      19.149256   18.761740   24.888310 C.2        1 MOL1         0.6174
      19    O1      19.532729   19.297707   25.909426 O.co2      1 MOL1        -0.6695
      20    O2      18.713114   17.628288   24.846418 O.co2      1 MOL1        -0.6695
@<TRIPOS>BOND
    1     1     2    1
    2     1     3    1
    3     1     4    2
    4     4     5    1
    5     4     6    1
    6     6     7    1
    7     6     8    1
    8     6     9    1
    9     9    10    1
   10     9    11    1
   11     9    12    1
   12    12    13    1
   13    12    14    1
   14    12    15    1
   15    15    16    1
   16    15    17    1
   17    15    18    1
   18    18    19    1
   19    18    20    2
@<TRIPOS>SUBSTRUCTURE
       1 MOL1            1 RESIDUE      1      MOL     
@<SCITEGIC>MOL_PROPERTY
VM2 Rank
SciTegic.value.IntegerValue
24

@<SCITEGIC>MOL_PROPERTY
Conf_Id
SciTegic.value.IntegerValue
550

@<SCITEGIC>MOL_PROPERTY
Probability
SciTegic.value.DoubleValue
0.70

@<SCITEGIC>MOL_PROPERTY
Sum Probability
SciTegic.value.DoubleValue
93.25

@<SCITEGIC>MOL_PROPERTY
Delta G
SciTegic.value.DoubleValue
1.785

@<SCITEGIC>MOL_PROPERTY
G
SciTegic.value.DoubleValue
-20.104

@<SCITEGIC>MOL_PROPERTY
E
SciTegic.value.DoubleValue
-35.457

@<SCITEGIC>MOL_PROPERTY
-TS
SciTegic.value.DoubleValue
15.354

@<SCITEGIC>MOL_PROPERTY
U+W
SciTegic.value.DoubleValue
-51.554

@<SCITEGIC>MOL_PROPERTY
U
SciTegic.value.DoubleValue
9.796

@<SCITEGIC>MOL_PROPERTY
W
SciTegic.value.DoubleValue
-61.350

@<SCITEGIC>MOL_PROPERTY
W(PB)
SciTegic.value.DoubleValue
-63.512

@<SCITEGIC>MOL_PROPERTY
W(SA)
SciTegic.value.DoubleValue
2.162

@<SCITEGIC>MOL_PROPERTY
Valence
SciTegic.value.DoubleValue
9.746

@<SCITEGIC>MOL_PROPERTY
Coulomb
SciTegic.value.DoubleValue
-0.310

@<SCITEGIC>MOL_PROPERTY
VdW
SciTegic.value.DoubleValue
0.360

@<SCITEGIC>MOL_PROPERTY
VdW6
SciTegic.value.DoubleValue
-7.585

@<SCITEGIC>MOL_PROPERTY
VdW12
SciTegic.value.DoubleValue
7.945

@<SCITEGIC>MOL_PROPERTY
Bond
SciTegic.value.DoubleValue
0.150

@<SCITEGIC>MOL_PROPERTY
Angle
SciTegic.value.DoubleValue
2.663

@<SCITEGIC>MOL_PROPERTY
Pdih
SciTegic.value.DoubleValue
6.933

@<SCITEGIC>MOL_PROPERTY
Idih
SciTegic.value.DoubleValue
0.000

@<SCITEGIC>MOL_PROPERTY
Tether
SciTegic.value.DoubleValue
0.000

@<TRIPOS>MOLECULE
guest-s22_vm2.mol2 : vm2 ligand conformer 25
          20          19           1
SMALL
USER_CHARGES
 
@<TRIPOS>ATOM
       1    C1      19.008661   17.620215   20.111200 C.2        1 MOL1        -0.2535
       2    H1      18.103263   17.324846   19.583960 H          1 MOL1         0.0845
       3    H2      19.435996   16.905443   20.812487 H          1 MOL1         0.0845
       4    C2      19.567075   18.816318   19.907516 C.2        1 MOL1        -0.1324
       5    H3      19.121250   19.518705   19.203839 H          1 MOL1         0.0833
       6    C3      20.822803   19.297200   20.602979 C.3        1 MOL1        -0.1813
       7    H4      21.532119   19.660247   19.847489 H          1 MOL1         0.0753
       8    H5      21.325490   18.466176   21.114119 H          1 MOL1         0.0753
       9    C4      20.538404   20.442544   21.604239 C.3        1 MOL1        -0.1855
      10    H6      21.490311   20.802631   22.017654 H          1 MOL1         0.0755
      11    H7      20.102042   21.290354   21.058662 H          1 MOL1         0.0755
      12    C5      19.592547   20.057209   22.769045 C.3        1 MOL1        -0.1855
      13    H8      18.621629   19.730553   22.372054 H          1 MOL1         0.0755
      14    H9      19.392870   20.954607   23.370731 H          1 MOL1         0.0755
      15    C6      20.168949   18.954808   23.694952 C.3        1 MOL1        -0.1958
      16    H10     20.288525   18.014682   23.144814 H          1 MOL1         0.0753
      17    H11     21.160103   19.247449   24.061069 H          1 MOL1         0.0753
      18    C7      19.282714   18.676511   24.903755 C.2        1 MOL1         0.6174
      19    O1      19.441054   19.356165   25.898736 O.co2      1 MOL1        -0.6695
      20    O2      18.448793   17.797030   24.815578 O.co2      1 MOL1        -0.6695
@<TRIPOS>BOND
    1     1     2    1
    2     1     3    1
    3     1     4    2
    4     4     5    1
    5     4     6    1
    6     6     7    1
    7     6     8    1
    8     6     9    1
    9     9    10    1
   10     9    11    1
   11     9    12    1
   12    12    13    1
   13    12    14    1
   14    12    15    1
   15    15    16    1
   16    15    17    1
   17    15    18    1
   18    18    19    1
   19    18    20    2
@<TRIPOS>SUBSTRUCTURE
       1 MOL1            1 RESIDUE      1      MOL     
@<SCITEGIC>MOL_PROPERTY
VM2 Rank
SciTegic.value.IntegerValue
25

@<SCITEGIC>MOL_PROPERTY
Conf_Id
SciTegic.value.IntegerValue
565

@<SCITEGIC>MOL_PROPERTY
Probability
SciTegic.value.DoubleValue
0.66

@<SCITEGIC>MOL_PROPERTY
Sum Probability
SciTegic.value.DoubleValue
93.91

@<SCITEGIC>MOL_PROPERTY
Delta G
SciTegic.value.DoubleValue
1.814

@<SCITEGIC>MOL_PROPERTY
G
SciTegic.value.DoubleValue
-20.074

@<SCITEGIC>MOL_PROPERTY
E
SciTegic.value.DoubleValue
-35.428

@<SCITEGIC>MOL_PROPERTY
-TS
SciTegic.value.DoubleValue
15.354

@<SCITEGIC>MOL_PROPERTY
U+W
SciTegic.value.DoubleValue
-51.524

@<SCITEGIC>MOL_PROPERTY
U
SciTegic.value.DoubleValue
9.796

@<SCITEGIC>MOL_PROPERTY
W
SciTegic.value.DoubleValue
-61.320

@<SCITEGIC>MOL_PROPERTY
W(PB)
SciTegic.value.DoubleValue
-63.481

@<SCITEGIC>MOL_PROPERTY
W(SA)
SciTegic.value.DoubleValue
2.161

@<SCITEGIC>MOL_PROPERTY
Valence
SciTegic.value.DoubleValue
9.746

@<SCITEGIC>MOL_PROPERTY
Coulomb
SciTegic.value.DoubleValue
-0.310

@<SCITEGIC>MOL_PROPERTY
VdW
SciTegic.value.DoubleValue
0.360

@<SCITEGIC>MOL_PROPERTY
VdW6
SciTegic.value.DoubleValue
-7.585

@<SCITEGIC>MOL_PROPERTY
VdW12
SciTegic.value.DoubleValue
7.945

@<SCITEGIC>MOL_PROPERTY
Bond
SciTegic.value.DoubleValue
0.150

@<SCITEGIC>MOL_PROPERTY
Angle
SciTegic.value.DoubleValue
2.663

@<SCITEGIC>MOL_PROPERTY
Pdih
SciTegic.value.DoubleValue
6.933

@<SCITEGIC>MOL_PROPERTY
Idih
SciTegic.value.DoubleValue
0.000

@<SCITEGIC>MOL_PROPERTY
Tether
SciTegic.value.DoubleValue
0.000

@<TRIPOS>MOLECULE
guest-s22_vm2.mol2 : vm2 ligand conformer 26
          20          19           1
SMALL
USER_CHARGES
 
@<TRIPOS>ATOM
       1    C1      20.690715   17.697370   19.498877 C.2        1 MOL1        -0.2535
       2    H1      19.837886   17.076432   19.229421 H          1 MOL1         0.0845
       3    H2      21.683442   17.307013   19.281407 H          1 MOL1         0.0845
       4    C2      20.529708   18.890466   20.077059 C.2        1 MOL1        -0.1324
       5    H3      21.397055   19.496983   20.336084 H          1 MOL1         0.0833
       6    C3      19.182642   19.499238   20.403539 C.3        1 MOL1        -0.1813
       7    H4      18.399670   19.005037   19.812573 H          1 MOL1         0.0753
       8    H5      19.168762   20.556945   20.108481 H          1 MOL1         0.0753
       9    C4      18.827017   19.370906   21.901952 C.3        1 MOL1        -0.1855
      10    H6      17.792644   19.709525   22.050800 H          1 MOL1         0.0755
      11    H7      18.854097   18.311402   22.192328 H          1 MOL1         0.0755
      12    C5      19.766662   20.193025   22.815691 C.3        1 MOL1        -0.1855
      13    H8      19.768982   21.240286   22.484710 H          1 MOL1         0.0755
      14    H9      20.798457   19.828195   22.720228 H          1 MOL1         0.0755
      15    C6      19.344549   20.137503   24.306860 C.3        1 MOL1        -0.1958
      16    H10     19.968470   20.825017   24.890000 H          1 MOL1         0.0753
      17    H11     18.307596   20.475984   24.420534 H          1 MOL1         0.0753
      18    C7      19.476859   18.754041   24.937231 C.2        1 MOL1         0.6174
      19    O1      20.586176   18.375012   25.257943 O.co2      1 MOL1        -0.6695
      20    O2      18.466672   18.100439   25.108848 O.co2      1 MOL1        -0.6695
@<TRIPOS>BOND
    1     1     2    1
    2     1     3    1
    3     1     4    2
    4     4     5    1
    5     4     6    1
    6     6     7    1
    7     6     8    1
    8     6     9    1
    9     9    10    1
   10     9    11    1
   11     9    12    1
   12    12    13    1
   13    12    14    1
   14    12    15    1
   15    15    16    1
   16    15    17    1
   17    15    18    1
   18    18    19    1
   19    18    20    2
@<TRIPOS>SUBSTRUCTURE
       1 MOL1            1 RESIDUE      1      MOL     
@<SCITEGIC>MOL_PROPERTY
VM2 Rank
SciTegic.value.IntegerValue
26

@<SCITEGIC>MOL_PROPERTY
Conf_Id
SciTegic.value.IntegerValue
526

@<SCITEGIC>MOL_PROPERTY
Probability
SciTegic.value.DoubleValue
0.53

@<SCITEGIC>MOL_PROPERTY
Sum Probability
SciTegic.value.DoubleValue
94.44

@<SCITEGIC>MOL_PROPERTY
Delta G
SciTegic.value.DoubleValue
1.946

@<SCITEGIC>MOL_PROPERTY
G
SciTegic.value.DoubleValue
-19.942

@<SCITEGIC>MOL_PROPERTY
E
SciTegic.value.DoubleValue
-35.310

@<SCITEGIC>MOL_PROPERTY
-TS
SciTegic.value.DoubleValue
15.368

@<SCITEGIC>MOL_PROPERTY
U+W
SciTegic.value.DoubleValue
-51.407

@<SCITEGIC>MOL_PROPERTY
U
SciTegic.value.DoubleValue
10.461

@<SCITEGIC>MOL_PROPERTY
W
SciTegic.value.DoubleValue
-61.868

@<SCITEGIC>MOL_PROPERTY
W(PB)
SciTegic.value.DoubleValue
-64.045

@<SCITEGIC>MOL_PROPERTY
W(SA)
SciTegic.value.DoubleValue
2.178

@<SCITEGIC>MOL_PROPERTY
Valence
SciTegic.value.DoubleValue
9.554

@<SCITEGIC>MOL_PROPERTY
Coulomb
SciTegic.value.DoubleValue
0.484

@<SCITEGIC>MOL_PROPERTY
VdW
SciTegic.value.DoubleValue
0.423

@<SCITEGIC>MOL_PROPERTY
VdW6
SciTegic.value.DoubleValue
-7.224

@<SCITEGIC>MOL_PROPERTY
VdW12
SciTegic.value.DoubleValue
7.647

@<SCITEGIC>MOL_PROPERTY
Bond
SciTegic.value.DoubleValue
0.126

@<SCITEGIC>MOL_PROPERTY
Angle
SciTegic.value.DoubleValue
2.492

@<SCITEGIC>MOL_PROPERTY
Pdih
SciTegic.value.DoubleValue
6.936

@<SCITEGIC>MOL_PROPERTY
Idih
SciTegic.value.DoubleValue
0.001

@<SCITEGIC>MOL_PROPERTY
Tether
SciTegic.value.DoubleValue
0.000

@<TRIPOS>MOLECULE
guest-s22_vm2.mol2 : vm2 ligand conformer 27
          20          19           1
SMALL
USER_CHARGES
 
@<TRIPOS>ATOM
       1    C1      19.907296   18.362001   18.677506 C.2        1 MOL1        -0.2535
       2    H1      20.547735   17.759457   18.035660 H          1 MOL1         0.0845
       3    H2      18.849961   18.414855   18.423030 H          1 MOL1         0.0845
       4    C2      20.402684   19.007268   19.736702 C.2        1 MOL1        -0.1324
       5    H3      21.464799   18.943691   19.971479 H          1 MOL1         0.0833
       6    C3      19.575400   19.867484   20.668087 C.3        1 MOL1        -0.1813
       7    H4      18.643613   20.164066   20.167742 H          1 MOL1         0.0753
       8    H5      20.112399   20.798439   20.893922 H          1 MOL1         0.0753
       9    C4      19.219955   19.138375   21.983481 C.3        1 MOL1        -0.1855
      10    H6      18.510220   19.758487   22.548033 H          1 MOL1         0.0755
      11    H7      18.698872   18.199352   21.751438 H          1 MOL1         0.0755
      12    C5      20.458661   18.846741   22.863632 C.3        1 MOL1        -0.1855
      13    H8      20.988156   19.784074   23.083811 H          1 MOL1         0.0755
      14    H9      21.160379   18.209611   22.309420 H          1 MOL1         0.0755
      15    C6      20.090789   18.139814   24.194085 C.3        1 MOL1        -0.1958
      16    H10     19.531659   17.218370   23.991239 H          1 MOL1         0.0753
      17    H11     21.007703   17.845880   24.718327 H          1 MOL1         0.0753
      18    C7      19.275359   19.004085   25.151657 C.2        1 MOL1         0.6174
      19    O1      19.853664   19.877355   25.768159 O.co2      1 MOL1        -0.6695
      20    O2      18.087194   18.774877   25.264691 O.co2      1 MOL1        -0.6695
@<TRIPOS>BOND
    1     1     2    1
    2     1     3    1
    3     1     4    2
    4     4     5    1
    5     4     6    1
    6     6     7    1
    7     6     8    1
    8     6     9    1
    9     9    10    1
   10     9    11    1
   11     9    12    1
   12    12    13    1
   13    12    14    1
   14    12    15    1
   15    15    16    1
   16    15    17    1
   17    15    18    1
   18    18    19    1
   19    18    20    2
@<TRIPOS>SUBSTRUCTURE
       1 MOL1            1 RESIDUE      1      MOL     
@<SCITEGIC>MOL_PROPERTY
VM2 Rank
SciTegic.value.IntegerValue
27

@<SCITEGIC>MOL_PROPERTY
Conf_Id
SciTegic.value.IntegerValue
220

@<SCITEGIC>MOL_PROPERTY
Probability
SciTegic.value.DoubleValue
0.50

@<SCITEGIC>MOL_PROPERTY
Sum Probability
SciTegic.value.DoubleValue
94.94

@<SCITEGIC>MOL_PROPERTY
Delta G
SciTegic.value.DoubleValue
1.984

@<SCITEGIC>MOL_PROPERTY
G
SciTegic.value.DoubleValue
-19.904

@<SCITEGIC>MOL_PROPERTY
E
SciTegic.value.DoubleValue
-35.247

@<SCITEGIC>MOL_PROPERTY
-TS
SciTegic.value.DoubleValue
15.343

@<SCITEGIC>MOL_PROPERTY
U+W
SciTegic.value.DoubleValue
-51.343

@<SCITEGIC>MOL_PROPERTY
U
SciTegic.value.DoubleValue
9.191

@<SCITEGIC>MOL_PROPERTY
W
SciTegic.value.DoubleValue
-60.535

@<SCITEGIC>MOL_PROPERTY
W(PB)
SciTegic.value.DoubleValue
-62.743

@<SCITEGIC>MOL_PROPERTY
W(SA)
SciTegic.value.DoubleValue
2.208

@<SCITEGIC>MOL_PROPERTY
Valence
SciTegic.value.DoubleValue
9.572

@<SCITEGIC>MOL_PROPERTY
Coulomb
SciTegic.value.DoubleValue
-0.885

@<SCITEGIC>MOL_PROPERTY
VdW
SciTegic.value.DoubleValue
0.504

@<SCITEGIC>MOL_PROPERTY
VdW6
SciTegic.value.DoubleValue
-7.168

@<SCITEGIC>MOL_PROPERTY
VdW12
SciTegic.value.DoubleValue
7.672

@<SCITEGIC>MOL_PROPERTY
Bond
SciTegic.value.DoubleValue
0.127

@<SCITEGIC>MOL_PROPERTY
Angle
SciTegic.value.DoubleValue
2.504

@<SCITEGIC>MOL_PROPERTY
Pdih
SciTegic.value.DoubleValue
6.941

@<SCITEGIC>MOL_PROPERTY
Idih
SciTegic.value.DoubleValue
0.001

@<SCITEGIC>MOL_PROPERTY
Tether
SciTegic.value.DoubleValue
0.000

@<TRIPOS>MOLECULE
guest-s22_vm2.mol2 : vm2 ligand conformer 28
          20          19           1
SMALL
USER_CHARGES
 
@<TRIPOS>ATOM
       1    C1      21.223469   19.660903   19.931393 C.2        1 MOL1        -0.2535
       2    H1      22.267695   19.731171   19.632076 H          1 MOL1         0.0845
       3    H2      20.693172   20.596461   20.094794 H          1 MOL1         0.0845
       4    C2      20.632533   18.470492   20.081706 C.2        1 MOL1        -0.1324
       5    H3      21.210601   17.564342   19.902626 H          1 MOL1         0.0833
       6    C3      19.191989   18.221895   20.498384 C.3        1 MOL1        -0.1813
       7    H4      19.149761   17.306477   21.101605 H          1 MOL1         0.0753
       8    H5      18.602394   17.993480   19.600726 H          1 MOL1         0.0753
       9    C4      18.503746   19.371862   21.279546 C.3        1 MOL1        -0.1855
      10    H6      18.490097   20.277253   20.658600 H          1 MOL1         0.0755
      11    H7      17.449800   19.106822   21.439490 H          1 MOL1         0.0755
      12    C5      19.146943   19.698911   22.651420 C.3        1 MOL1        -0.1855
      13    H8      18.638982   20.575976   23.075583 H          1 MOL1         0.0755
      14    H9      20.198107   19.987228   22.519025 H          1 MOL1         0.0755
      15    C6      19.059544   18.533330   23.670587 C.3        1 MOL1        -0.1958
      16    H10     18.020652   18.199200   23.776480 H          1 MOL1         0.0753
      17    H11     19.645404   17.674586   23.323930 H          1 MOL1         0.0753
      18    C7      19.574287   18.918897   25.052840 C.2        1 MOL1         0.6174
      19    O1      20.747129   18.724512   25.304646 O.co2      1 MOL1        -0.6695
      20    O2      18.791361   19.417198   25.837479 O.co2      1 MOL1        -0.6695
@<TRIPOS>BOND
    1     1     2    1
    2     1     3    1
    3     1     4    2
    4     4     5    1
    5     4     6    1
    6     6     7    1
    7     6     8    1
    8     6     9    1
    9     9    10    1
   10     9    11    1
   11     9    12    1
   12    12    13    1
   13    12    14    1
   14    12    15    1
   15    15    16    1
   16    15    17    1
   17    15    18    1
   18    18    19    1
   19    18    20    2
@<TRIPOS>SUBSTRUCTURE
       1 MOL1            1 RESIDUE      1      MOL     
@<SCITEGIC>MOL_PROPERTY
VM2 Rank
SciTegic.value.IntegerValue
28

@<SCITEGIC>MOL_PROPERTY
Conf_Id
SciTegic.value.IntegerValue
147

@<SCITEGIC>MOL_PROPERTY
Probability
SciTegic.value.DoubleValue
0.45

@<SCITEGIC>MOL_PROPERTY
Sum Probability
SciTegic.value.DoubleValue
95.39

@<SCITEGIC>MOL_PROPERTY
Delta G
SciTegic.value.DoubleValue
2.048

@<SCITEGIC>MOL_PROPERTY
G
SciTegic.value.DoubleValue
-19.841

@<SCITEGIC>MOL_PROPERTY
E
SciTegic.value.DoubleValue
-35.284

@<SCITEGIC>MOL_PROPERTY
-TS
SciTegic.value.DoubleValue
15.444

@<SCITEGIC>MOL_PROPERTY
U+W
SciTegic.value.DoubleValue
-51.381

@<SCITEGIC>MOL_PROPERTY
U
SciTegic.value.DoubleValue
10.000

@<SCITEGIC>MOL_PROPERTY
W
SciTegic.value.DoubleValue
-61.381

@<SCITEGIC>MOL_PROPERTY
W(PB)
SciTegic.value.DoubleValue
-63.541

@<SCITEGIC>MOL_PROPERTY
W(SA)
SciTegic.value.DoubleValue
2.161

@<SCITEGIC>MOL_PROPERTY
Valence
SciTegic.value.DoubleValue
9.399

@<SCITEGIC>MOL_PROPERTY
Coulomb
SciTegic.value.DoubleValue
-0.504

@<SCITEGIC>MOL_PROPERTY
VdW
SciTegic.value.DoubleValue
1.105

@<SCITEGIC>MOL_PROPERTY
VdW6
SciTegic.value.DoubleValue
-7.975

@<SCITEGIC>MOL_PROPERTY
VdW12
SciTegic.value.DoubleValue
9.080

@<SCITEGIC>MOL_PROPERTY
Bond
SciTegic.value.DoubleValue
0.216

@<SCITEGIC>MOL_PROPERTY
Angle
SciTegic.value.DoubleValue
3.417

@<SCITEGIC>MOL_PROPERTY
Pdih
SciTegic.value.DoubleValue
5.765

@<SCITEGIC>MOL_PROPERTY
Idih
SciTegic.value.DoubleValue
0.001

@<SCITEGIC>MOL_PROPERTY
Tether
SciTegic.value.DoubleValue
0.000

@<TRIPOS>MOLECULE
guest-s22_vm2.mol2 : vm2 ligand conformer 29
          20          19           1
SMALL
USER_CHARGES
 
@<TRIPOS>ATOM
       1    C1      18.672671   18.889717   19.602616 C.2        1 MOL1        -0.2535
       2    H1      17.863474   18.399605   19.064167 H          1 MOL1         0.0845
       3    H2      18.550927   19.948802   19.818722 H          1 MOL1         0.0845
       4    C2      19.763076   18.207680   19.969659 C.2        1 MOL1        -0.1324
       5    H3      19.834057   17.148228   19.724986 H          1 MOL1         0.0833
       6    C3      20.961388   18.756975   20.726568 C.3        1 MOL1        -0.1813
       7    H4      21.769547   18.951235   20.009124 H          1 MOL1         0.0753
       8    H5      21.354627   17.973205   21.385900 H          1 MOL1         0.0753
       9    C4      20.705994   20.037792   21.563585 C.3        1 MOL1        -0.1855
      10    H6      21.661809   20.380390   21.982719 H          1 MOL1         0.0755
      11    H7      20.367420   20.844954   20.900750 H          1 MOL1         0.0755
      12    C5      19.690410   19.863298   22.721534 C.3        1 MOL1        -0.1855
      13    H8      18.717671   19.539884   22.328112 H          1 MOL1         0.0755
      14    H9      19.522062   20.842968   23.189600 H          1 MOL1         0.0755
      15    C6      20.159493   18.865803   23.812350 C.3        1 MOL1        -0.1958
      16    H10     20.237045   17.853464   23.400042 H          1 MOL1         0.0753
      17    H11     21.153532   19.146105   24.180408 H          1 MOL1         0.0753
      18    C7      19.212982   18.809558   25.006167 C.2        1 MOL1         0.6174
      19    O1      19.389178   19.597124   25.914808 O.co2      1 MOL1        -0.6695
      20    O2      18.315808   17.990052   24.990714 O.co2      1 MOL1        -0.6695
@<TRIPOS>BOND
    1     1     2    1
    2     1     3    1
    3     1     4    2
    4     4     5    1
    5     4     6    1
    6     6     7    1
    7     6     8    1
    8     6     9    1
    9     9    10    1
   10     9    11    1
   11     9    12    1
   12    12    13    1
   13    12    14    1
   14    12    15    1
   15    15    16    1
   16    15    17    1
   17    15    18    1
   18    18    19    1
   19    18    20    2
@<TRIPOS>SUBSTRUCTURE
       1 MOL1            1 RESIDUE      1      MOL     
@<SCITEGIC>MOL_PROPERTY
VM2 Rank
SciTegic.value.IntegerValue
29

@<SCITEGIC>MOL_PROPERTY
Conf_Id
SciTegic.value.IntegerValue
372

@<SCITEGIC>MOL_PROPERTY
Probability
SciTegic.value.DoubleValue
0.44

@<SCITEGIC>MOL_PROPERTY
Sum Probability
SciTegic.value.DoubleValue
95.83

@<SCITEGIC>MOL_PROPERTY
Delta G
SciTegic.value.DoubleValue
2.062

@<SCITEGIC>MOL_PROPERTY
G
SciTegic.value.DoubleValue
-19.826

@<SCITEGIC>MOL_PROPERTY
E
SciTegic.value.DoubleValue
-35.269

@<SCITEGIC>MOL_PROPERTY
-TS
SciTegic.value.DoubleValue
15.443

@<SCITEGIC>MOL_PROPERTY
U+W
SciTegic.value.DoubleValue
-51.366

@<SCITEGIC>MOL_PROPERTY
U
SciTegic.value.DoubleValue
10.000

@<SCITEGIC>MOL_PROPERTY
W
SciTegic.value.DoubleValue
-61.366

@<SCITEGIC>MOL_PROPERTY
W(PB)
SciTegic.value.DoubleValue
-63.511

@<SCITEGIC>MOL_PROPERTY
W(SA)
SciTegic.value.DoubleValue
2.145

@<SCITEGIC>MOL_PROPERTY
Valence
SciTegic.value.DoubleValue
9.399

@<SCITEGIC>MOL_PROPERTY
Coulomb
SciTegic.value.DoubleValue
-0.503

@<SCITEGIC>MOL_PROPERTY
VdW
SciTegic.value.DoubleValue
1.105

@<SCITEGIC>MOL_PROPERTY
VdW6
SciTegic.value.DoubleValue
-7.975

@<SCITEGIC>MOL_PROPERTY
VdW12
SciTegic.value.DoubleValue
9.080

@<SCITEGIC>MOL_PROPERTY
Bond
SciTegic.value.DoubleValue
0.216

@<SCITEGIC>MOL_PROPERTY
Angle
SciTegic.value.DoubleValue
3.417

@<SCITEGIC>MOL_PROPERTY
Pdih
SciTegic.value.DoubleValue
5.765

@<SCITEGIC>MOL_PROPERTY
Idih
SciTegic.value.DoubleValue
0.001

@<SCITEGIC>MOL_PROPERTY
Tether
SciTegic.value.DoubleValue
0.000

@<TRIPOS>MOLECULE
guest-s22_vm2.mol2 : vm2 ligand conformer 30
          20          19           1
SMALL
USER_CHARGES
 
@<TRIPOS>ATOM
       1    C1      19.680048   18.146855   18.985266 C.2        1 MOL1        -0.2535
       2    H1      20.184102   17.475727   18.291997 H          1 MOL1         0.0845
       3    H2      18.600366   18.047045   19.083997 H          1 MOL1         0.0845
       4    C2      20.363645   19.053752   19.688299 C.2        1 MOL1        -0.1324
       5    H3      21.444443   19.135871   19.576399 H          1 MOL1         0.0833
       6    C3      19.733487   20.019014   20.669738 C.3        1 MOL1        -0.1813
       7    H4      18.639283   20.009656   20.573344 H          1 MOL1         0.0753
       8    H5      20.056969   21.039793   20.426449 H          1 MOL1         0.0753
       9    C4      20.124845   19.707802   22.131944 C.3        1 MOL1        -0.1855
      10    H6      21.219196   19.712972   22.228329 H          1 MOL1         0.0755
      11    H7      19.750273   20.514848   22.776445 H          1 MOL1         0.0755
      12    C5      19.561720   18.353916   22.625387 C.3        1 MOL1        -0.1855
      13    H8      19.940686   17.545421   21.986020 H          1 MOL1         0.0755
      14    H9      18.467496   18.347787   22.525445 H          1 MOL1         0.0755
      15    C6      19.945817   18.048647   24.096548 C.3        1 MOL1        -0.1958
      16    H10     19.628882   17.031225   24.354122 H          1 MOL1         0.0753
      17    H11     21.035232   18.082346   24.218272 H          1 MOL1         0.0753
      18    C7      19.312282   18.994796   25.112500 C.2        1 MOL1         0.6174
      19    O1      20.010893   19.854268   25.612838 O.co2      1 MOL1        -0.6695
      20    O2      18.138263   18.838952   25.385482 O.co2      1 MOL1        -0.6695
@<TRIPOS>BOND
    1     1     2    1
    2     1     3    1
    3     1     4    2
    4     4     5    1
    5     4     6    1
    6     6     7    1
    7     6     8    1
    8     6     9    1
    9     9    10    1
   10     9    11    1
   11     9    12    1
   12    12    13    1
   13    12    14    1
   14    12    15    1
   15    15    16    1
   16    15    17    1
   17    15    18    1
   18    18    19    1
   19    18    20    2
@<TRIPOS>SUBSTRUCTURE
       1 MOL1            1 RESIDUE      1      MOL     
@<SCITEGIC>MOL_PROPERTY
VM2 Rank
SciTegic.value.IntegerValue
30

@<SCITEGIC>MOL_PROPERTY
Conf_Id
SciTegic.value.IntegerValue
192

@<SCITEGIC>MOL_PROPERTY
Probability
SciTegic.value.DoubleValue
0.42

@<SCITEGIC>MOL_PROPERTY
Sum Probability
SciTegic.value.DoubleValue
96.25

@<SCITEGIC>MOL_PROPERTY
Delta G
SciTegic.value.DoubleValue
2.085

@<SCITEGIC>MOL_PROPERTY
G
SciTegic.value.DoubleValue
-19.804

@<SCITEGIC>MOL_PROPERTY
E
SciTegic.value.DoubleValue
-35.222

@<SCITEGIC>MOL_PROPERTY
-TS
SciTegic.value.DoubleValue
15.419

@<SCITEGIC>MOL_PROPERTY
U+W
SciTegic.value.DoubleValue
-51.319

@<SCITEGIC>MOL_PROPERTY
U
SciTegic.value.DoubleValue
9.294

@<SCITEGIC>MOL_PROPERTY
W
SciTegic.value.DoubleValue
-60.613

@<SCITEGIC>MOL_PROPERTY
W(PB)
SciTegic.value.DoubleValue
-62.807

@<SCITEGIC>MOL_PROPERTY
W(SA)
SciTegic.value.DoubleValue
2.194

@<SCITEGIC>MOL_PROPERTY
Valence
SciTegic.value.DoubleValue
9.495

@<SCITEGIC>MOL_PROPERTY
Coulomb
SciTegic.value.DoubleValue
-0.611

@<SCITEGIC>MOL_PROPERTY
VdW
SciTegic.value.DoubleValue
0.409

@<SCITEGIC>MOL_PROPERTY
VdW6
SciTegic.value.DoubleValue
-7.332

@<SCITEGIC>MOL_PROPERTY
VdW12
SciTegic.value.DoubleValue
7.741

@<SCITEGIC>MOL_PROPERTY
Bond
SciTegic.value.DoubleValue
0.126

@<SCITEGIC>MOL_PROPERTY
Angle
SciTegic.value.DoubleValue
2.497

@<SCITEGIC>MOL_PROPERTY
Pdih
SciTegic.value.DoubleValue
6.872

@<SCITEGIC>MOL_PROPERTY
Idih
SciTegic.value.DoubleValue
0.000

@<SCITEGIC>MOL_PROPERTY
Tether
SciTegic.value.DoubleValue
0.000

@<TRIPOS>MOLECULE
guest-s22_vm2.mol2 : vm2 ligand conformer 31
          20          19           1
SMALL
USER_CHARGES
 
@<TRIPOS>ATOM
       1    C1      20.961107   18.533091   19.150533 C.2        1 MOL1        -0.2535
       2    H1      21.862447   19.030615   19.504763 H          1 MOL1         0.0845
       3    H2      21.081838   17.746340   18.407868 H          1 MOL1         0.0845
       4    C2      19.752738   18.869566   19.609497 C.2        1 MOL1        -0.1324
       5    H3      18.863203   18.357502   19.243560 H          1 MOL1         0.0833
       6    C3      19.506368   19.950538   20.640445 C.3        1 MOL1        -0.1813
       7    H4      18.746628   20.644730   20.257415 H          1 MOL1         0.0753
       8    H5      20.415632   20.545214   20.802496 H          1 MOL1         0.0753
       9    C4      19.019828   19.374655   21.989407 C.3        1 MOL1        -0.1855
      10    H6      18.732168   20.207902   22.645123 H          1 MOL1         0.0755
      11    H7      18.112707   18.776425   21.827621 H          1 MOL1         0.0755
      12    C5      20.095745   18.514900   22.694265 C.3        1 MOL1        -0.1855
      13    H8      21.004123   19.112500   22.852620 H          1 MOL1         0.0755
      14    H9      20.379434   17.677680   22.042611 H          1 MOL1         0.0755
      15    C6      19.609753   17.947328   24.053200 C.3        1 MOL1        -0.1958
      16    H10     18.685178   17.373848   23.915146 H          1 MOL1         0.0753
      17    H11     20.359055   17.251355   24.448308 H          1 MOL1         0.0753
      18    C7      19.368521   19.011757   25.119747 C.2        1 MOL1         0.6174
      19    O1      20.335834   19.501477   25.668935 O.co2      1 MOL1        -0.6695
      20    O2      18.221106   19.314688   25.381971 O.co2      1 MOL1        -0.6695
@<TRIPOS>BOND
    1     1     2    1
    2     1     3    1
    3     1     4    2
    4     4     5    1
    5     4     6    1
    6     6     7    1
    7     6     8    1
    8     6     9    1
    9     9    10    1
   10     9    11    1
   11     9    12    1
   12    12    13    1
   13    12    14    1
   14    12    15    1
   15    15    16    1
   16    15    17    1
   17    15    18    1
   18    18    19    1
   19    18    20    2
@<TRIPOS>SUBSTRUCTURE
       1 MOL1            1 RESIDUE      1      MOL     
@<SCITEGIC>MOL_PROPERTY
VM2 Rank
SciTegic.value.IntegerValue
31

@<SCITEGIC>MOL_PROPERTY
Conf_Id
SciTegic.value.IntegerValue
545

@<SCITEGIC>MOL_PROPERTY
Probability
SciTegic.value.DoubleValue
0.40

@<SCITEGIC>MOL_PROPERTY
Sum Probability
SciTegic.value.DoubleValue
96.65

@<SCITEGIC>MOL_PROPERTY
Delta G
SciTegic.value.DoubleValue
2.114

@<SCITEGIC>MOL_PROPERTY
G
SciTegic.value.DoubleValue
-19.774

@<SCITEGIC>MOL_PROPERTY
E
SciTegic.value.DoubleValue
-35.193

@<SCITEGIC>MOL_PROPERTY
-TS
SciTegic.value.DoubleValue
15.419

@<SCITEGIC>MOL_PROPERTY
U+W
SciTegic.value.DoubleValue
-51.290

@<SCITEGIC>MOL_PROPERTY
U
SciTegic.value.DoubleValue
9.294

@<SCITEGIC>MOL_PROPERTY
W
SciTegic.value.DoubleValue
-60.584

@<SCITEGIC>MOL_PROPERTY
W(PB)
SciTegic.value.DoubleValue
-62.766

@<SCITEGIC>MOL_PROPERTY
W(SA)
SciTegic.value.DoubleValue
2.182

@<SCITEGIC>MOL_PROPERTY
Valence
SciTegic.value.DoubleValue
9.495

@<SCITEGIC>MOL_PROPERTY
Coulomb
SciTegic.value.DoubleValue
-0.611

@<SCITEGIC>MOL_PROPERTY
VdW
SciTegic.value.DoubleValue
0.409

@<SCITEGIC>MOL_PROPERTY
VdW6
SciTegic.value.DoubleValue
-7.332

@<SCITEGIC>MOL_PROPERTY
VdW12
SciTegic.value.DoubleValue
7.741

@<SCITEGIC>MOL_PROPERTY
Bond
SciTegic.value.DoubleValue
0.126

@<SCITEGIC>MOL_PROPERTY
Angle
SciTegic.value.DoubleValue
2.497

@<SCITEGIC>MOL_PROPERTY
Pdih
SciTegic.value.DoubleValue
6.872

@<SCITEGIC>MOL_PROPERTY
Idih
SciTegic.value.DoubleValue
0.000

@<SCITEGIC>MOL_PROPERTY
Tether
SciTegic.value.DoubleValue
0.000

@<TRIPOS>MOLECULE
guest-s22_vm2.mol2 : vm2 ligand conformer 32
          20          19           1
SMALL
USER_CHARGES
 
@<TRIPOS>ATOM
       1    C1      19.668328   17.824331   19.358343 C.2        1 MOL1        -0.2535
       2    H1      19.861942   16.795210   19.060822 H          1 MOL1         0.0845
       3    H2      18.745120   18.282379   19.007236 H          1 MOL1         0.0845
       4    C2      20.530622   18.494320   20.127489 C.2        1 MOL1        -0.1324
       5    H3      21.447845   18.016463   20.470651 H          1 MOL1         0.0833
       6    C3      20.329736   19.924298   20.582146 C.3        1 MOL1        -0.1813
       7    H4      19.494699   20.388741   20.040284 H          1 MOL1         0.0753
       8    H5      21.224731   20.509401   20.332250 H          1 MOL1         0.0753
       9    C4      20.077707   20.024846   22.103438 C.3        1 MOL1        -0.1855
      10    H6      20.917269   19.565730   22.643519 H          1 MOL1         0.0755
      11    H7      20.062368   21.084694   22.391934 H          1 MOL1         0.0755
      12    C5      18.747763   19.361603   22.533125 C.3        1 MOL1        -0.1855
      13    H8      18.765985   18.290655   22.287989 H          1 MOL1         0.0755
      14    H9      17.921746   19.802183   21.958829 H          1 MOL1         0.0755
      15    C6      18.457839   19.533599   24.046790 C.3        1 MOL1        -0.1958
      16    H10     18.459473   20.597009   24.314901 H          1 MOL1         0.0753
      17    H11     17.455909   19.150588   24.273573 H          1 MOL1         0.0753
      18    C7      19.443181   18.801545   24.953439 C.2        1 MOL1         0.6174
      19    O1      20.304160   19.452295   25.512369 O.co2      1 MOL1        -0.6695
      20    O2      19.311664   17.601163   25.090860 O.co2      1 MOL1        -0.6695
@<TRIPOS>BOND
    1     1     2    1
    2     1     3    1
    3     1     4    2
    4     4     5    1
    5     4     6    1
    6     6     7    1
    7     6     8    1
    8     6     9    1
    9     9    10    1
   10     9    11    1
   11     9    12    1
   12    12    13    1
   13    12    14    1
   14    12    15    1
   15    15    16    1
   16    15    17    1
   17    15    18    1
   18    18    19    1
   19    18    20    2
@<TRIPOS>SUBSTRUCTURE
       1 MOL1            1 RESIDUE      1      MOL     
@<SCITEGIC>MOL_PROPERTY
VM2 Rank
SciTegic.value.IntegerValue
32

@<SCITEGIC>MOL_PROPERTY
Conf_Id
SciTegic.value.IntegerValue
300

@<SCITEGIC>MOL_PROPERTY
Probability
SciTegic.value.DoubleValue
0.37

@<SCITEGIC>MOL_PROPERTY
Sum Probability
SciTegic.value.DoubleValue
97.03

@<SCITEGIC>MOL_PROPERTY
Delta G
SciTegic.value.DoubleValue
2.155

@<SCITEGIC>MOL_PROPERTY
G
SciTegic.value.DoubleValue
-19.733

@<SCITEGIC>MOL_PROPERTY
E
SciTegic.value.DoubleValue
-35.159

@<SCITEGIC>MOL_PROPERTY
-TS
SciTegic.value.DoubleValue
15.426

@<SCITEGIC>MOL_PROPERTY
U+W
SciTegic.value.DoubleValue
-51.255

@<SCITEGIC>MOL_PROPERTY
U
SciTegic.value.DoubleValue
10.179

@<SCITEGIC>MOL_PROPERTY
W
SciTegic.value.DoubleValue
-61.434

@<SCITEGIC>MOL_PROPERTY
W(PB)
SciTegic.value.DoubleValue
-63.629

@<SCITEGIC>MOL_PROPERTY
W(SA)
SciTegic.value.DoubleValue
2.195

@<SCITEGIC>MOL_PROPERTY
Valence
SciTegic.value.DoubleValue
9.483

@<SCITEGIC>MOL_PROPERTY
Coulomb
SciTegic.value.DoubleValue
0.361

@<SCITEGIC>MOL_PROPERTY
VdW
SciTegic.value.DoubleValue
0.335

@<SCITEGIC>MOL_PROPERTY
VdW6
SciTegic.value.DoubleValue
-7.385

@<SCITEGIC>MOL_PROPERTY
VdW12
SciTegic.value.DoubleValue
7.720

@<SCITEGIC>MOL_PROPERTY
Bond
SciTegic.value.DoubleValue
0.125

@<SCITEGIC>MOL_PROPERTY
Angle
SciTegic.value.DoubleValue
2.487

@<SCITEGIC>MOL_PROPERTY
Pdih
SciTegic.value.DoubleValue
6.870

@<SCITEGIC>MOL_PROPERTY
Idih
SciTegic.value.DoubleValue
0.001

@<SCITEGIC>MOL_PROPERTY
Tether
SciTegic.value.DoubleValue
0.000

@<TRIPOS>MOLECULE
guest-s22_vm2.mol2 : vm2 ligand conformer 33
          20          19           1
SMALL
USER_CHARGES
 
@<TRIPOS>ATOM
       1    C1      21.059276   18.244110   19.537315 C.2        1 MOL1        -0.2535
       2    H1      21.635172   19.154476   19.379288 H          1 MOL1         0.0845
       3    H2      21.533186   17.299552   19.275942 H          1 MOL1         0.0845
       4    C2      19.820633   18.280206   20.035798 C.2        1 MOL1        -0.1324
       5    H3      19.262240   17.357096   20.188999 H          1 MOL1         0.0833
       6    C3      19.097704   19.552659   20.423278 C.3        1 MOL1        -0.1813
       7    H4      18.116108   19.571716   19.931428 H          1 MOL1         0.0753
       8    H5      19.643633   20.433730   20.059567 H          1 MOL1         0.0753
       9    C4      18.891808   19.666980   21.950530 C.3        1 MOL1        -0.1855
      10    H6      18.259885   20.540883   22.159593 H          1 MOL1         0.0755
      11    H7      18.339546   18.788144   22.311074 H          1 MOL1         0.0755
      12    C5      20.224544   19.806569   22.723573 C.3        1 MOL1        -0.1855
      13    H8      20.784065   20.664807   22.327852 H          1 MOL1         0.0755
      14    H9      20.849985   18.918661   22.556845 H          1 MOL1         0.0755
      15    C6      20.012038   20.002090   24.247198 C.3        1 MOL1        -0.1958
      16    H10     20.975151   20.211450   24.727377 H          1 MOL1         0.0753
      17    H11     19.369425   20.871333   24.432107 H          1 MOL1         0.0753
      18    C7      19.405284   18.790238   24.948681 C.2        1 MOL1         0.6174
      19    O1      20.132653   17.848740   25.196895 O.co2      1 MOL1        -0.6695
      20    O2      18.227061   18.826409   25.244732 O.co2      1 MOL1        -0.6695
@<TRIPOS>BOND
    1     1     2    1
    2     1     3    1
    3     1     4    2
    4     4     5    1
    5     4     6    1
    6     6     7    1
    7     6     8    1
    8     6     9    1
    9     9    10    1
   10     9    11    1
   11     9    12    1
   12    12    13    1
   13    12    14    1
   14    12    15    1
   15    15    16    1
   16    15    17    1
   17    15    18    1
   18    18    19    1
   19    18    20    2
@<TRIPOS>SUBSTRUCTURE
       1 MOL1            1 RESIDUE      1      MOL     
@<SCITEGIC>MOL_PROPERTY
VM2 Rank
SciTegic.value.IntegerValue
33

@<SCITEGIC>MOL_PROPERTY
Conf_Id
SciTegic.value.IntegerValue
555

@<SCITEGIC>MOL_PROPERTY
Probability
SciTegic.value.DoubleValue
0.37

@<SCITEGIC>MOL_PROPERTY
Sum Probability
SciTegic.value.DoubleValue
97.39

@<SCITEGIC>MOL_PROPERTY
Delta G
SciTegic.value.DoubleValue
2.169

@<SCITEGIC>MOL_PROPERTY
G
SciTegic.value.DoubleValue
-19.719

@<SCITEGIC>MOL_PROPERTY
E
SciTegic.value.DoubleValue
-35.145

@<SCITEGIC>MOL_PROPERTY
-TS
SciTegic.value.DoubleValue
15.425

@<SCITEGIC>MOL_PROPERTY
U+W
SciTegic.value.DoubleValue
-51.241

@<SCITEGIC>MOL_PROPERTY
U
SciTegic.value.DoubleValue
10.178

@<SCITEGIC>MOL_PROPERTY
W
SciTegic.value.DoubleValue
-61.419

@<SCITEGIC>MOL_PROPERTY
W(PB)
SciTegic.value.DoubleValue
-63.641

@<SCITEGIC>MOL_PROPERTY
W(SA)
SciTegic.value.DoubleValue
2.222

@<SCITEGIC>MOL_PROPERTY
Valence
SciTegic.value.DoubleValue
9.483

@<SCITEGIC>MOL_PROPERTY
Coulomb
SciTegic.value.DoubleValue
0.360

@<SCITEGIC>MOL_PROPERTY
VdW
SciTegic.value.DoubleValue
0.335

@<SCITEGIC>MOL_PROPERTY
VdW6
SciTegic.value.DoubleValue
-7.385

@<SCITEGIC>MOL_PROPERTY
VdW12
SciTegic.value.DoubleValue
7.720

@<SCITEGIC>MOL_PROPERTY
Bond
SciTegic.value.DoubleValue
0.125

@<SCITEGIC>MOL_PROPERTY
Angle
SciTegic.value.DoubleValue
2.487

@<SCITEGIC>MOL_PROPERTY
Pdih
SciTegic.value.DoubleValue
6.870

@<SCITEGIC>MOL_PROPERTY
Idih
SciTegic.value.DoubleValue
0.001

@<SCITEGIC>MOL_PROPERTY
Tether
SciTegic.value.DoubleValue
0.000

@<TRIPOS>MOLECULE
guest-s22_vm2.mol2 : vm2 ligand conformer 34
          20          19           1
SMALL
USER_CHARGES
 
@<TRIPOS>ATOM
       1    C1      20.499128   17.662779   19.678607 C.2        1 MOL1        -0.2535
       2    H1      20.496412   16.578491   19.582011 H          1 MOL1         0.0845
       3    H2      21.362464   18.199634   19.288928 H          1 MOL1         0.0845
       4    C2      19.482071   18.307682   20.256022 C.2        1 MOL1        -0.1324
       5    H3      18.622749   17.753570   20.631949 H          1 MOL1         0.0833
       6    C3      19.413911   19.811833   20.412501 C.3        1 MOL1        -0.1813
       7    H4      18.376966   20.129808   20.584468 H          1 MOL1         0.0753
       8    H5      19.713444   20.274242   19.462310 H          1 MOL1         0.0753
       9    C4      20.329616   20.360053   21.535050 C.3        1 MOL1        -0.1855
      10    H6      21.322545   19.894305   21.470993 H          1 MOL1         0.0755
      11    H7      20.486982   21.431127   21.348580 H          1 MOL1         0.0755
      12    C5      19.763554   20.211265   22.969811 C.3        1 MOL1        -0.1855
      13    H8      18.764845   20.665599   23.026375 H          1 MOL1         0.0755
      14    H9      20.402353   20.787462   23.653494 H          1 MOL1         0.0755
      15    C6      19.697581   18.748922   23.480171 C.3        1 MOL1        -0.1958
      16    H10     18.955206   18.177023   22.914580 H          1 MOL1         0.0753
      17    H11     20.666526   18.254510   23.342235 H          1 MOL1         0.0753
      18    C7      19.322707   18.655138   24.954720 C.2        1 MOL1         0.6174
      19    O1      20.218568   18.658267   25.775882 O.co2      1 MOL1        -0.6695
      20    O2      18.143864   18.602061   25.245236 O.co2      1 MOL1        -0.6695
@<TRIPOS>BOND
    1     1     2    1
    2     1     3    1
    3     1     4    2
    4     4     5    1
    5     4     6    1
    6     6     7    1
    7     6     8    1
    8     6     9    1
    9     9    10    1
   10     9    11    1
   11     9    12    1
   12    12    13    1
   13    12    14    1
   14    12    15    1
   15    15    16    1
   16    15    17    1
   17    15    18    1
   18    18    19    1
   19    18    20    2
@<TRIPOS>SUBSTRUCTURE
       1 MOL1            1 RESIDUE      1      MOL     
@<SCITEGIC>MOL_PROPERTY
VM2 Rank
SciTegic.value.IntegerValue
34

@<SCITEGIC>MOL_PROPERTY
Conf_Id
SciTegic.value.IntegerValue
157

@<SCITEGIC>MOL_PROPERTY
Probability
SciTegic.value.DoubleValue
0.23

@<SCITEGIC>MOL_PROPERTY
Sum Probability
SciTegic.value.DoubleValue
97.62

@<SCITEGIC>MOL_PROPERTY
Delta G
SciTegic.value.DoubleValue
2.456

@<SCITEGIC>MOL_PROPERTY
G
SciTegic.value.DoubleValue
-19.432

@<SCITEGIC>MOL_PROPERTY
E
SciTegic.value.DoubleValue
-34.093

@<SCITEGIC>MOL_PROPERTY
-TS
SciTegic.value.DoubleValue
14.661

@<SCITEGIC>MOL_PROPERTY
U+W
SciTegic.value.DoubleValue
-50.190

@<SCITEGIC>MOL_PROPERTY
U
SciTegic.value.DoubleValue
10.645

@<SCITEGIC>MOL_PROPERTY
W
SciTegic.value.DoubleValue
-60.834

@<SCITEGIC>MOL_PROPERTY
W(PB)
SciTegic.value.DoubleValue
-62.994

@<SCITEGIC>MOL_PROPERTY
W(SA)
SciTegic.value.DoubleValue
2.160

@<SCITEGIC>MOL_PROPERTY
Valence
SciTegic.value.DoubleValue
11.230

@<SCITEGIC>MOL_PROPERTY
Coulomb
SciTegic.value.DoubleValue
-1.075

@<SCITEGIC>MOL_PROPERTY
VdW
SciTegic.value.DoubleValue
0.490

@<SCITEGIC>MOL_PROPERTY
VdW6
SciTegic.value.DoubleValue
-7.547

@<SCITEGIC>MOL_PROPERTY
VdW12
SciTegic.value.DoubleValue
8.036

@<SCITEGIC>MOL_PROPERTY
Bond
SciTegic.value.DoubleValue
0.159

@<SCITEGIC>MOL_PROPERTY
Angle
SciTegic.value.DoubleValue
3.006

@<SCITEGIC>MOL_PROPERTY
Pdih
SciTegic.value.DoubleValue
8.064

@<SCITEGIC>MOL_PROPERTY
Idih
SciTegic.value.DoubleValue
0.002

@<SCITEGIC>MOL_PROPERTY
Tether
SciTegic.value.DoubleValue
0.000

@<TRIPOS>MOLECULE
guest-s22_vm2.mol2 : vm2 ligand conformer 35
          20          19           1
SMALL
USER_CHARGES
 
@<TRIPOS>ATOM
       1    C1      19.444939   19.923346   19.281929 C.2        1 MOL1        -0.2535
       2    H1      18.447555   19.762011   19.685279 H          1 MOL1         0.0845
       3    H2      19.512281   20.465373   18.340221 H          1 MOL1         0.0845
       4    C2      20.548663   19.487920   19.900130 C.2        1 MOL1        -0.1324
       5    H3      21.520819   19.682213   19.447688 H          1 MOL1         0.0833
       6    C3      20.614176   18.720805   21.210359 C.3        1 MOL1        -0.1813
       7    H4      21.175714   19.322843   21.936226 H          1 MOL1         0.0753
       8    H5      21.206858   17.809665   21.054458 H          1 MOL1         0.0753
       9    C4      19.239813   18.331238   21.808657 C.3        1 MOL1        -0.1855
      10    H6      18.672095   19.239975   22.051696 H          1 MOL1         0.0755
      11    H7      18.658911   17.791241   21.048625 H          1 MOL1         0.0755
      12    C5      19.345888   17.432202   23.065457 C.3        1 MOL1        -0.1855
      13    H8      19.870529   16.503642   22.802936 H          1 MOL1         0.0755
      14    H9      18.333683   17.136176   23.374031 H          1 MOL1         0.0755
      15    C6      20.060117   18.096109   24.274490 C.3        1 MOL1        -0.1958
      16    H10     20.097481   17.385354   25.108210 H          1 MOL1         0.0753
      17    H11     21.099987   18.336618   24.026045 H          1 MOL1         0.0753
      18    C7      19.374782   19.359594   24.787154 C.2        1 MOL1         0.6174
      19    O1      19.930929   20.426413   24.615541 O.co2      1 MOL1        -0.6695
      20    O2      18.311692   19.240373   25.364282 O.co2      1 MOL1        -0.6695
@<TRIPOS>BOND
    1     1     2    1
    2     1     3    1
    3     1     4    2
    4     4     5    1
    5     4     6    1
    6     6     7    1
    7     6     8    1
    8     6     9    1
    9     9    10    1
   10     9    11    1
   11     9    12    1
   12    12    13    1
   13    12    14    1
   14    12    15    1
   15    15    16    1
   16    15    17    1
   17    15    18    1
   18    18    19    1
   19    18    20    2
@<TRIPOS>SUBSTRUCTURE
       1 MOL1            1 RESIDUE      1      MOL     
@<SCITEGIC>MOL_PROPERTY
VM2 Rank
SciTegic.value.IntegerValue
35

@<SCITEGIC>MOL_PROPERTY
Conf_Id
SciTegic.value.IntegerValue
61

@<SCITEGIC>MOL_PROPERTY
Probability
SciTegic.value.DoubleValue
0.22

@<SCITEGIC>MOL_PROPERTY
Sum Probability
SciTegic.value.DoubleValue
97.84

@<SCITEGIC>MOL_PROPERTY
Delta G
SciTegic.value.DoubleValue
2.468

@<SCITEGIC>MOL_PROPERTY
G
SciTegic.value.DoubleValue
-19.421

@<SCITEGIC>MOL_PROPERTY
E
SciTegic.value.DoubleValue
-35.131

@<SCITEGIC>MOL_PROPERTY
-TS
SciTegic.value.DoubleValue
15.711

@<SCITEGIC>MOL_PROPERTY
U+W
SciTegic.value.DoubleValue
-51.228

@<SCITEGIC>MOL_PROPERTY
U
SciTegic.value.DoubleValue
10.870

@<SCITEGIC>MOL_PROPERTY
W
SciTegic.value.DoubleValue
-62.097

@<SCITEGIC>MOL_PROPERTY
W(PB)
SciTegic.value.DoubleValue
-64.246

@<SCITEGIC>MOL_PROPERTY
W(SA)
SciTegic.value.DoubleValue
2.149

@<SCITEGIC>MOL_PROPERTY
Valence
SciTegic.value.DoubleValue
8.803

@<SCITEGIC>MOL_PROPERTY
Coulomb
SciTegic.value.DoubleValue
1.019

@<SCITEGIC>MOL_PROPERTY
VdW
SciTegic.value.DoubleValue
1.048

@<SCITEGIC>MOL_PROPERTY
VdW6
SciTegic.value.DoubleValue
-8.312

@<SCITEGIC>MOL_PROPERTY
VdW12
SciTegic.value.DoubleValue
9.360

@<SCITEGIC>MOL_PROPERTY
Bond
SciTegic.value.DoubleValue
0.212

@<SCITEGIC>MOL_PROPERTY
Angle
SciTegic.value.DoubleValue
3.379

@<SCITEGIC>MOL_PROPERTY
Pdih
SciTegic.value.DoubleValue
5.211

@<SCITEGIC>MOL_PROPERTY
Idih
SciTegic.value.DoubleValue
0.001

@<SCITEGIC>MOL_PROPERTY
Tether
SciTegic.value.DoubleValue
0.000

@<TRIPOS>MOLECULE
guest-s22_vm2.mol2 : vm2 ligand conformer 36
          20          19           1
SMALL
USER_CHARGES
 
@<TRIPOS>ATOM
       1    C1      20.114383   20.125070   19.368211 C.2        1 MOL1        -0.2535
       2    H1      20.911879   20.504958   20.003176 H          1 MOL1         0.0845
       3    H2      19.984433   20.607590   18.401035 H          1 MOL1         0.0845
       4    C2      19.317933   19.116895   19.741341 C.2        1 MOL1        -0.1324
       5    H3      18.534261   18.781735   19.062322 H          1 MOL1         0.0833
       6    C3      19.377494   18.348049   21.050839 C.3        1 MOL1        -0.1813
       7    H4      19.432149   17.274722   20.825594 H          1 MOL1         0.0753
       8    H5      18.428163   18.494701   21.581803 H          1 MOL1         0.0753
       9    C4      20.557739   18.728559   21.978651 C.3        1 MOL1        -0.1855
      10    H6      21.496860   18.646760   21.414688 H          1 MOL1         0.0755
      11    H7      20.463937   19.780156   22.282819 H          1 MOL1         0.0755
      12    C5      20.668903   17.831062   23.236109 C.3        1 MOL1        -0.1855
      13    H8      21.573845   18.112972   23.792001 H          1 MOL1         0.0755
      14    H9      20.812775   16.787717   22.924468 H          1 MOL1         0.0755
      15    C6      19.450274   17.912297   24.195795 C.3        1 MOL1        -0.1958
      16    H10     18.539243   17.564752   23.695661 H          1 MOL1         0.0753
      17    H11     19.612839   17.239252   25.045642 H          1 MOL1         0.0753
      18    C7      19.195350   19.305503   24.764036 C.2        1 MOL1         0.6174
      19    O1      19.982475   19.743944   25.579911 O.co2      1 MOL1        -0.6695
      20    O2      18.206450   19.906621   24.393108 O.co2      1 MOL1        -0.6695
@<TRIPOS>BOND
    1     1     2    1
    2     1     3    1
    3     1     4    2
    4     4     5    1
    5     4     6    1
    6     6     7    1
    7     6     8    1
    8     6     9    1
    9     9    10    1
   10     9    11    1
   11     9    12    1
   12    12    13    1
   13    12    14    1
   14    12    15    1
   15    15    16    1
   16    15    17    1
   17    15    18    1
   18    18    19    1
   19    18    20    2
@<TRIPOS>SUBSTRUCTURE
       1 MOL1            1 RESIDUE      1      MOL     
@<SCITEGIC>MOL_PROPERTY
VM2 Rank
SciTegic.value.IntegerValue
36

@<SCITEGIC>MOL_PROPERTY
Conf_Id
SciTegic.value.IntegerValue
184

@<SCITEGIC>MOL_PROPERTY
Probability
SciTegic.value.DoubleValue
0.22

@<SCITEGIC>MOL_PROPERTY
Sum Probability
SciTegic.value.DoubleValue
98.06

@<SCITEGIC>MOL_PROPERTY
Delta G
SciTegic.value.DoubleValue
2.485

@<SCITEGIC>MOL_PROPERTY
G
SciTegic.value.DoubleValue
-19.404

@<SCITEGIC>MOL_PROPERTY
E
SciTegic.value.DoubleValue
-35.114

@<SCITEGIC>MOL_PROPERTY
-TS
SciTegic.value.DoubleValue
15.710

@<SCITEGIC>MOL_PROPERTY
U+W
SciTegic.value.DoubleValue
-51.210

@<SCITEGIC>MOL_PROPERTY
U
SciTegic.value.DoubleValue
10.869

@<SCITEGIC>MOL_PROPERTY
W
SciTegic.value.DoubleValue
-62.080

@<SCITEGIC>MOL_PROPERTY
W(PB)
SciTegic.value.DoubleValue
-64.254

@<SCITEGIC>MOL_PROPERTY
W(SA)
SciTegic.value.DoubleValue
2.174

@<SCITEGIC>MOL_PROPERTY
Valence
SciTegic.value.DoubleValue
8.803

@<SCITEGIC>MOL_PROPERTY
Coulomb
SciTegic.value.DoubleValue
1.019

@<SCITEGIC>MOL_PROPERTY
VdW
SciTegic.value.DoubleValue
1.048

@<SCITEGIC>MOL_PROPERTY
VdW6
SciTegic.value.DoubleValue
-8.312

@<SCITEGIC>MOL_PROPERTY
VdW12
SciTegic.value.DoubleValue
9.360

@<SCITEGIC>MOL_PROPERTY
Bond
SciTegic.value.DoubleValue
0.212

@<SCITEGIC>MOL_PROPERTY
Angle
SciTegic.value.DoubleValue
3.379

@<SCITEGIC>MOL_PROPERTY
Pdih
SciTegic.value.DoubleValue
5.211

@<SCITEGIC>MOL_PROPERTY
Idih
SciTegic.value.DoubleValue
0.001

@<SCITEGIC>MOL_PROPERTY
Tether
SciTegic.value.DoubleValue
0.000

@<TRIPOS>MOLECULE
guest-s22_vm2.mol2 : vm2 ligand conformer 37
          20          19           1
SMALL
USER_CHARGES
 
@<TRIPOS>ATOM
       1    C1      20.402754   17.634020   19.665196 C.2        1 MOL1        -0.2535
       2    H1      21.017372   16.735708   19.647887 H          1 MOL1         0.0845
       3    H2      19.505945   17.641036   19.047862 H          1 MOL1         0.0845
       4    C2      20.736838   18.685520   20.417822 C.2        1 MOL1        -0.1324
       5    H3      21.643126   18.662939   21.021910 H          1 MOL1         0.0833
       6    C3      19.937099   19.969316   20.480221 C.3        1 MOL1        -0.1813
       7    H4      19.665570   20.259994   19.456412 H          1 MOL1         0.0753
       8    H5      20.559898   20.787098   20.866601 H          1 MOL1         0.0753
       9    C4      18.639104   19.850527   21.317043 C.3        1 MOL1        -0.1855
      10    H6      17.972877   20.673414   21.024242 H          1 MOL1         0.0755
      11    H7      18.107256   18.925304   21.056214 H          1 MOL1         0.0755
      12    C5      18.841843   19.933467   22.851030 C.3        1 MOL1        -0.1855
      13    H8      17.854077   20.019263   23.324788 H          1 MOL1         0.0755
      14    H9      19.386057   20.852966   23.106750 H          1 MOL1         0.0755
      15    C6      19.572200   18.711196   23.464131 C.3        1 MOL1        -0.1958
      16    H10     19.092760   17.780117   23.139243 H          1 MOL1         0.0753
      17    H11     20.613563   18.677093   23.128747 H          1 MOL1         0.0753
      18    C7      19.581677   18.733257   24.988286 C.2        1 MOL1         0.6174
      19    O1      20.492588   19.310540   25.548530 O.co2      1 MOL1        -0.6695
      20    O2      18.666897   18.190158   25.575741 O.co2      1 MOL1        -0.6695
@<TRIPOS>BOND
    1     1     2    1
    2     1     3    1
    3     1     4    2
    4     4     5    1
    5     4     6    1
    6     6     7    1
    7     6     8    1
    8     6     9    1
    9     9    10    1
   10     9    11    1
   11     9    12    1
   12    12    13    1
   13    12    14    1
   14    12    15    1
   15    15    16    1
   16    15    17    1
   17    15    18    1
   18    18    19    1
   19    18    20    2
@<TRIPOS>SUBSTRUCTURE
       1 MOL1            1 RESIDUE      1      MOL     
@<SCITEGIC>MOL_PROPERTY
VM2 Rank
SciTegic.value.IntegerValue
37

@<SCITEGIC>MOL_PROPERTY
Conf_Id
SciTegic.value.IntegerValue
210

@<SCITEGIC>MOL_PROPERTY
Probability
SciTegic.value.DoubleValue
0.21

@<SCITEGIC>MOL_PROPERTY
Sum Probability
SciTegic.value.DoubleValue
98.27

@<SCITEGIC>MOL_PROPERTY
Delta G
SciTegic.value.DoubleValue
2.503

@<SCITEGIC>MOL_PROPERTY
G
SciTegic.value.DoubleValue
-19.386

@<SCITEGIC>MOL_PROPERTY
E
SciTegic.value.DoubleValue
-34.047

@<SCITEGIC>MOL_PROPERTY
-TS
SciTegic.value.DoubleValue
14.662

@<SCITEGIC>MOL_PROPERTY
U+W
SciTegic.value.DoubleValue
-50.144

@<SCITEGIC>MOL_PROPERTY
U
SciTegic.value.DoubleValue
10.644

@<SCITEGIC>MOL_PROPERTY
W
SciTegic.value.DoubleValue
-60.787

@<SCITEGIC>MOL_PROPERTY
W(PB)
SciTegic.value.DoubleValue
-62.966

@<SCITEGIC>MOL_PROPERTY
W(SA)
SciTegic.value.DoubleValue
2.179

@<SCITEGIC>MOL_PROPERTY
Valence
SciTegic.value.DoubleValue
11.231

@<SCITEGIC>MOL_PROPERTY
Coulomb
SciTegic.value.DoubleValue
-1.076

@<SCITEGIC>MOL_PROPERTY
VdW
SciTegic.value.DoubleValue
0.489

@<SCITEGIC>MOL_PROPERTY
VdW6
SciTegic.value.DoubleValue
-7.546

@<SCITEGIC>MOL_PROPERTY
VdW12
SciTegic.value.DoubleValue
8.036

@<SCITEGIC>MOL_PROPERTY
Bond
SciTegic.value.DoubleValue
0.159

@<SCITEGIC>MOL_PROPERTY
Angle
SciTegic.value.DoubleValue
3.005

@<SCITEGIC>MOL_PROPERTY
Pdih
SciTegic.value.DoubleValue
8.064

@<SCITEGIC>MOL_PROPERTY
Idih
SciTegic.value.DoubleValue
0.002

@<SCITEGIC>MOL_PROPERTY
Tether
SciTegic.value.DoubleValue
0.000

@<TRIPOS>MOLECULE
guest-s22_vm2.mol2 : vm2 ligand conformer 38
          20          19           1
SMALL
USER_CHARGES
 
@<TRIPOS>ATOM
       1    C1      19.921848   18.495783   18.706951 C.2        1 MOL1        -0.2535
       2    H1      19.991401   17.723054   17.943215 H          1 MOL1         0.0845
       3    H2      20.157479   19.516479   18.409949 H          1 MOL1         0.0845
       4    C2      19.563528   18.198596   19.958751 C.2        1 MOL1        -0.1324
       5    H3      19.332500   17.170323   20.236140 H          1 MOL1         0.0833
       6    C3      19.444517   19.216387   21.071202 C.3        1 MOL1        -0.1813
       7    H4      18.485117   19.075924   21.585767 H          1 MOL1         0.0753
       8    H5      19.439035   20.233619   20.656976 H          1 MOL1         0.0753
       9    C4      20.607383   19.075522   22.078714 C.3        1 MOL1        -0.1855
      10    H6      20.567570   18.083396   22.549200 H          1 MOL1         0.0755
      11    H7      21.558586   19.118778   21.530534 H          1 MOL1         0.0755
      12    C5      20.617131   20.174227   23.170019 C.3        1 MOL1        -0.1855
      13    H8      20.713232   21.158291   22.691699 H          1 MOL1         0.0755
      14    H9      21.513386   20.046141   23.792681 H          1 MOL1         0.0755
      15    C6      19.366494   20.175796   24.091066 C.3        1 MOL1        -0.1958
      16    H10     19.454179   20.989433   24.820457 H          1 MOL1         0.0753
      17    H11     18.458573   20.376309   23.511000 H          1 MOL1         0.0753
      18    C7      19.169209   18.882093   24.876022 C.2        1 MOL1         0.6174
      19    O1      19.930221   18.648169   25.794469 O.co2      1 MOL1        -0.6695
      20    O2      18.250668   18.151427   24.560805 O.co2      1 MOL1        -0.6695
@<TRIPOS>BOND
    1     1     2    1
    2     1     3    1
    3     1     4    2
    4     4     5    1
    5     4     6    1
    6     6     7    1
    7     6     8    1
    8     6     9    1
    9     9    10    1
   10     9    11    1
   11     9    12    1
   12    12    13    1
   13    12    14    1
   14    12    15    1
   15    15    16    1
   16    15    17    1
   17    15    18    1
   18    18    19    1
   19    18    20    2
@<TRIPOS>SUBSTRUCTURE
       1 MOL1            1 RESIDUE      1      MOL     
@<SCITEGIC>MOL_PROPERTY
VM2 Rank
SciTegic.value.IntegerValue
38

@<SCITEGIC>MOL_PROPERTY
Conf_Id
SciTegic.value.IntegerValue
245

@<SCITEGIC>MOL_PROPERTY
Probability
SciTegic.value.DoubleValue
0.20

@<SCITEGIC>MOL_PROPERTY
Sum Probability
SciTegic.value.DoubleValue
98.47

@<SCITEGIC>MOL_PROPERTY
Delta G
SciTegic.value.DoubleValue
2.520

@<SCITEGIC>MOL_PROPERTY
G
SciTegic.value.DoubleValue
-19.368

@<SCITEGIC>MOL_PROPERTY
E
SciTegic.value.DoubleValue
-34.753

@<SCITEGIC>MOL_PROPERTY
-TS
SciTegic.value.DoubleValue
15.384

@<SCITEGIC>MOL_PROPERTY
U+W
SciTegic.value.DoubleValue
-50.849

@<SCITEGIC>MOL_PROPERTY
U
SciTegic.value.DoubleValue
10.197

@<SCITEGIC>MOL_PROPERTY
W
SciTegic.value.DoubleValue
-61.045

@<SCITEGIC>MOL_PROPERTY
W(PB)
SciTegic.value.DoubleValue
-63.242

@<SCITEGIC>MOL_PROPERTY
W(SA)
SciTegic.value.DoubleValue
2.197

@<SCITEGIC>MOL_PROPERTY
Valence
SciTegic.value.DoubleValue
9.837

@<SCITEGIC>MOL_PROPERTY
Coulomb
SciTegic.value.DoubleValue
0.032

@<SCITEGIC>MOL_PROPERTY
VdW
SciTegic.value.DoubleValue
0.327

@<SCITEGIC>MOL_PROPERTY
VdW6
SciTegic.value.DoubleValue
-7.642

@<SCITEGIC>MOL_PROPERTY
VdW12
SciTegic.value.DoubleValue
7.969

@<SCITEGIC>MOL_PROPERTY
Bond
SciTegic.value.DoubleValue
0.151

@<SCITEGIC>MOL_PROPERTY
Angle
SciTegic.value.DoubleValue
2.748

@<SCITEGIC>MOL_PROPERTY
Pdih
SciTegic.value.DoubleValue
6.937

@<SCITEGIC>MOL_PROPERTY
Idih
SciTegic.value.DoubleValue
0.001

@<SCITEGIC>MOL_PROPERTY
Tether
SciTegic.value.DoubleValue
0.000

@<TRIPOS>MOLECULE
guest-s22_vm2.mol2 : vm2 ligand conformer 39
          20          19           1
SMALL
USER_CHARGES
 
@<TRIPOS>ATOM
       1    C1      19.778514   19.069793   18.668555 C.2        1 MOL1        -0.2535
       2    H1      19.501947   19.682280   17.812046 H          1 MOL1         0.0845
       3    H2      20.473818   18.250096   18.494766 H          1 MOL1         0.0845
       4    C2      19.283668   19.319025   19.883760 C.2        1 MOL1        -0.1324
       5    H3      18.589339   20.144918   20.036975 H          1 MOL1         0.0833
       6    C3      19.620214   18.512668   21.118314 C.3        1 MOL1        -0.1813
       7    H4      20.104523   17.568331   20.835386 H          1 MOL1         0.0753
       8    H5      18.691106   18.251003   21.641043 H          1 MOL1         0.0753
       9    C4      20.549691   19.306694   22.063179 C.3        1 MOL1        -0.1855
      10    H6      21.427126   19.645293   21.495182 H          1 MOL1         0.0755
      11    H7      20.035389   20.214949   22.406432 H          1 MOL1         0.0755
      12    C5      21.038442   18.487200   23.282910 C.3        1 MOL1        -0.1855
      13    H8      21.750448   19.096960   23.856171 H          1 MOL1         0.0755
      14    H9      21.598977   17.611395   22.929110 H          1 MOL1         0.0755
      15    C6      19.905868   18.015967   24.235608 C.3        1 MOL1        -0.1958
      16    H10     19.216119   17.342756   23.714035 H          1 MOL1         0.0753
      17    H11     20.341327   17.436865   25.058238 H          1 MOL1         0.0753
      18    C7      19.101439   19.153749   24.857770 C.2        1 MOL1         0.6174
      19    O1      19.635070   19.829608   25.715592 O.co2      1 MOL1        -0.6695
      20    O2      17.958093   19.323295   24.482313 O.co2      1 MOL1        -0.6695
@<TRIPOS>BOND
    1     1     2    1
    2     1     3    1
    3     1     4    2
    4     4     5    1
    5     4     6    1
    6     6     7    1
    7     6     8    1
    8     6     9    1
    9     9    10    1
   10     9    11    1
   11     9    12    1
   12    12    13    1
   13    12    14    1
   14    12    15    1
   15    15    16    1
   16    15    17    1
   17    15    18    1
   18    18    19    1
   19    18    20    2
@<TRIPOS>SUBSTRUCTURE
       1 MOL1            1 RESIDUE      1      MOL     
@<SCITEGIC>MOL_PROPERTY
VM2 Rank
SciTegic.value.IntegerValue
39

@<SCITEGIC>MOL_PROPERTY
Conf_Id
SciTegic.value.IntegerValue
217

@<SCITEGIC>MOL_PROPERTY
Probability
SciTegic.value.DoubleValue
0.19

@<SCITEGIC>MOL_PROPERTY
Sum Probability
SciTegic.value.DoubleValue
98.66

@<SCITEGIC>MOL_PROPERTY
Delta G
SciTegic.value.DoubleValue
2.566

@<SCITEGIC>MOL_PROPERTY
G
SciTegic.value.DoubleValue
-19.323

@<SCITEGIC>MOL_PROPERTY
E
SciTegic.value.DoubleValue
-34.707

@<SCITEGIC>MOL_PROPERTY
-TS
SciTegic.value.DoubleValue
15.384

@<SCITEGIC>MOL_PROPERTY
U+W
SciTegic.value.DoubleValue
-50.803

@<SCITEGIC>MOL_PROPERTY
U
SciTegic.value.DoubleValue
10.196

@<SCITEGIC>MOL_PROPERTY
W
SciTegic.value.DoubleValue
-61.000

@<SCITEGIC>MOL_PROPERTY
W(PB)
SciTegic.value.DoubleValue
-63.182

@<SCITEGIC>MOL_PROPERTY
W(SA)
SciTegic.value.DoubleValue
2.182

@<SCITEGIC>MOL_PROPERTY
Valence
SciTegic.value.DoubleValue
9.837

@<SCITEGIC>MOL_PROPERTY
Coulomb
SciTegic.value.DoubleValue
0.032

@<SCITEGIC>MOL_PROPERTY
VdW
SciTegic.value.DoubleValue
0.327

@<SCITEGIC>MOL_PROPERTY
VdW6
SciTegic.value.DoubleValue
-7.642

@<SCITEGIC>MOL_PROPERTY
VdW12
SciTegic.value.DoubleValue
7.969

@<SCITEGIC>MOL_PROPERTY
Bond
SciTegic.value.DoubleValue
0.151

@<SCITEGIC>MOL_PROPERTY
Angle
SciTegic.value.DoubleValue
2.748

@<SCITEGIC>MOL_PROPERTY
Pdih
SciTegic.value.DoubleValue
6.937

@<SCITEGIC>MOL_PROPERTY
Idih
SciTegic.value.DoubleValue
0.001

@<SCITEGIC>MOL_PROPERTY
Tether
SciTegic.value.DoubleValue
0.000

@<TRIPOS>MOLECULE
guest-s22_vm2.mol2 : vm2 ligand conformer 40
          20          19           1
SMALL
USER_CHARGES
 
@<TRIPOS>ATOM
       1    C1      20.571327   18.050156   19.487877 C.2        1 MOL1        -0.2535
       2    H1      20.630043   17.425542   18.598274 H          1 MOL1         0.0845
       3    H2      21.138772   17.723617   20.356464 H          1 MOL1         0.0845
       4    C2      19.833777   19.166172   19.492761 C.2        1 MOL1        -0.1324
       5    H3      19.288350   19.443596   18.591108 H          1 MOL1         0.0833
       6    C3      19.651552   20.132739   20.652644 C.3        1 MOL1        -0.1813
       7    H4      18.600098   20.447770   20.689585 H          1 MOL1         0.0753
       8    H5      20.218820   21.047965   20.437460 H          1 MOL1         0.0753
       9    C4      20.053737   19.603953   22.051826 C.3        1 MOL1        -0.1855
      10    H6      21.095348   19.257026   22.039917 H          1 MOL1         0.0755
      11    H7      20.022744   20.442929   22.760431 H          1 MOL1         0.0755
      12    C5      19.116168   18.483454   22.562998 C.3        1 MOL1        -0.1855
      13    H8      19.109069   17.651174   21.847490 H          1 MOL1         0.0755
      14    H9      18.084862   18.858788   22.615861 H          1 MOL1         0.0755
      15    C6      19.537718   17.942627   23.953941 C.3        1 MOL1        -0.1958
      16    H10     18.915136   17.078862   24.215129 H          1 MOL1         0.0753
      17    H11     20.575293   17.588674   23.923595 H          1 MOL1         0.0753
      18    C7      19.402949   18.960601   25.082776 C.2        1 MOL1         0.6174
      19    O1      20.413549   19.481285   25.512501 O.co2      1 MOL1        -0.6695
      20    O2      18.290223   19.197012   25.510676 O.co2      1 MOL1        -0.6695
@<TRIPOS>BOND
    1     1     2    1
    2     1     3    1
    3     1     4    2
    4     4     5    1
    5     4     6    1
    6     6     7    1
    7     6     8    1
    8     6     9    1
    9     9    10    1
   10     9    11    1
   11     9    12    1
   12    12    13    1
   13    12    14    1
   14    12    15    1
   15    15    16    1
   16    15    17    1
   17    15    18    1
   18    18    19    1
   19    18    20    2
@<TRIPOS>SUBSTRUCTURE
       1 MOL1            1 RESIDUE      1      MOL     
@<SCITEGIC>MOL_PROPERTY
VM2 Rank
SciTegic.value.IntegerValue
40

@<SCITEGIC>MOL_PROPERTY
Conf_Id
SciTegic.value.IntegerValue
484

@<SCITEGIC>MOL_PROPERTY
Probability
SciTegic.value.DoubleValue
0.18

@<SCITEGIC>MOL_PROPERTY
Sum Probability
SciTegic.value.DoubleValue
98.84

@<SCITEGIC>MOL_PROPERTY
Delta G
SciTegic.value.DoubleValue
2.594

@<SCITEGIC>MOL_PROPERTY
G
SciTegic.value.DoubleValue
-19.294

@<SCITEGIC>MOL_PROPERTY
E
SciTegic.value.DoubleValue
-35.038

@<SCITEGIC>MOL_PROPERTY
-TS
SciTegic.value.DoubleValue
15.744

@<SCITEGIC>MOL_PROPERTY
U+W
SciTegic.value.DoubleValue
-51.135

@<SCITEGIC>MOL_PROPERTY
U
SciTegic.value.DoubleValue
9.738

@<SCITEGIC>MOL_PROPERTY
W
SciTegic.value.DoubleValue
-60.873

@<SCITEGIC>MOL_PROPERTY
W(PB)
SciTegic.value.DoubleValue
-63.018

@<SCITEGIC>MOL_PROPERTY
W(SA)
SciTegic.value.DoubleValue
2.145

@<SCITEGIC>MOL_PROPERTY
Valence
SciTegic.value.DoubleValue
9.029

@<SCITEGIC>MOL_PROPERTY
Coulomb
SciTegic.value.DoubleValue
-0.281

@<SCITEGIC>MOL_PROPERTY
VdW
SciTegic.value.DoubleValue
0.990

@<SCITEGIC>MOL_PROPERTY
VdW6
SciTegic.value.DoubleValue
-8.096

@<SCITEGIC>MOL_PROPERTY
VdW12
SciTegic.value.DoubleValue
9.086

@<SCITEGIC>MOL_PROPERTY
Bond
SciTegic.value.DoubleValue
0.190

@<SCITEGIC>MOL_PROPERTY
Angle
SciTegic.value.DoubleValue
3.359

@<SCITEGIC>MOL_PROPERTY
Pdih
SciTegic.value.DoubleValue
5.480

@<SCITEGIC>MOL_PROPERTY
Idih
SciTegic.value.DoubleValue
0.000

@<SCITEGIC>MOL_PROPERTY
Tether
SciTegic.value.DoubleValue
0.000

@<TRIPOS>MOLECULE
guest-s22_vm2.mol2 : vm2 ligand conformer 41
          20          19           1
SMALL
USER_CHARGES
 
@<TRIPOS>ATOM
       1    C1      19.818633   17.413277   19.552824 C.2        1 MOL1        -0.2535
       2    H1      19.234833   16.788136   20.226784 H          1 MOL1         0.0845
       3    H2      20.256256   16.935003   18.678220 H          1 MOL1         0.0845
       4    C2      19.996192   18.715716   19.788985 C.2        1 MOL1        -0.1324
       5    H3      20.584982   19.324362   19.103098 H          1 MOL1         0.0833
       6    C3      19.418324   19.447272   20.980149 C.3        1 MOL1        -0.1813
       7    H4      18.628002   18.840922   21.442040 H          1 MOL1         0.0753
       8    H5      18.948739   20.381495   20.644812 H          1 MOL1         0.0753
       9    C4      20.513179   19.760523   22.024377 C.3        1 MOL1        -0.1855
      10    H6      20.928469   18.819721   22.411535 H          1 MOL1         0.0755
      11    H7      21.342428   20.281414   21.526453 H          1 MOL1         0.0755
      12    C5      20.015437   20.638383   23.199074 C.3        1 MOL1        -0.1855
      13    H8      19.654440   21.598233   22.805681 H          1 MOL1         0.0755
      14    H9      20.868590   20.874311   23.850125 H          1 MOL1         0.0755
      15    C6      18.897331   19.988072   24.059048 C.3        1 MOL1        -0.1958
      16    H10     18.602213   20.681796   24.854848 H          1 MOL1         0.0753
      17    H11     18.000034   19.808772   23.455943 H          1 MOL1         0.0753
      18    C7      19.306440   18.678843   24.728047 C.2        1 MOL1         0.6174
      19    O1      20.106974   18.728415   25.641390 O.co2      1 MOL1        -0.6695
      20    O2      18.798489   17.647499   24.334105 O.co2      1 MOL1        -0.6695
@<TRIPOS>BOND
    1     1     2    1
    2     1     3    1
    3     1     4    2
    4     4     5    1
    5     4     6    1
    6     6     7    1
    7     6     8    1
    8     6     9    1
    9     9    10    1
   10     9    11    1
   11     9    12    1
   12    12    13    1
   13    12    14    1
   14    12    15    1
   15    15    16    1
   16    15    17    1
   17    15    18    1
   18    18    19    1
   19    18    20    2
@<TRIPOS>SUBSTRUCTURE
       1 MOL1            1 RESIDUE      1      MOL     
@<SCITEGIC>MOL_PROPERTY
VM2 Rank
SciTegic.value.IntegerValue
41

@<SCITEGIC>MOL_PROPERTY
Conf_Id
SciTegic.value.IntegerValue
440

@<SCITEGIC>MOL_PROPERTY
Probability
SciTegic.value.DoubleValue
0.14

@<SCITEGIC>MOL_PROPERTY
Sum Probability
SciTegic.value.DoubleValue
98.98

@<SCITEGIC>MOL_PROPERTY
Delta G
SciTegic.value.DoubleValue
2.724

@<SCITEGIC>MOL_PROPERTY
G
SciTegic.value.DoubleValue
-19.165

@<SCITEGIC>MOL_PROPERTY
E
SciTegic.value.DoubleValue
-34.522

@<SCITEGIC>MOL_PROPERTY
-TS
SciTegic.value.DoubleValue
15.358

@<SCITEGIC>MOL_PROPERTY
U+W
SciTegic.value.DoubleValue
-50.619

@<SCITEGIC>MOL_PROPERTY
U
SciTegic.value.DoubleValue
11.125

@<SCITEGIC>MOL_PROPERTY
W
SciTegic.value.DoubleValue
-61.744

@<SCITEGIC>MOL_PROPERTY
W(PB)
SciTegic.value.DoubleValue
-63.912

@<SCITEGIC>MOL_PROPERTY
W(SA)
SciTegic.value.DoubleValue
2.168

@<SCITEGIC>MOL_PROPERTY
Valence
SciTegic.value.DoubleValue
9.852

@<SCITEGIC>MOL_PROPERTY
Coulomb
SciTegic.value.DoubleValue
0.993

@<SCITEGIC>MOL_PROPERTY
VdW
SciTegic.value.DoubleValue
0.281

@<SCITEGIC>MOL_PROPERTY
VdW6
SciTegic.value.DoubleValue
-7.706

@<SCITEGIC>MOL_PROPERTY
VdW12
SciTegic.value.DoubleValue
7.986

@<SCITEGIC>MOL_PROPERTY
Bond
SciTegic.value.DoubleValue
0.153

@<SCITEGIC>MOL_PROPERTY
Angle
SciTegic.value.DoubleValue
2.748

@<SCITEGIC>MOL_PROPERTY
Pdih
SciTegic.value.DoubleValue
6.950

@<SCITEGIC>MOL_PROPERTY
Idih
SciTegic.value.DoubleValue
0.001

@<SCITEGIC>MOL_PROPERTY
Tether
SciTegic.value.DoubleValue
0.000

@<TRIPOS>MOLECULE
guest-s22_vm2.mol2 : vm2 ligand conformer 42
          20          19           1
SMALL
USER_CHARGES
 
@<TRIPOS>ATOM
       1    C1      21.116435   17.804446   19.720382 C.2        1 MOL1        -0.2535
       2    H1      21.770060   17.552183   20.554039 H          1 MOL1         0.0845
       3    H2      21.227979   17.228000   18.803617 H          1 MOL1         0.0845
       4    C2      20.209538   18.780117   19.816577 C.2        1 MOL1        -0.1324
       5    H3      19.563652   19.016719   18.971346 H          1 MOL1         0.0833
       6    C3      19.999407   19.622390   21.055284 C.3        1 MOL1        -0.1813
       7    H4      19.947513   20.682529   20.773957 H          1 MOL1         0.0753
       8    H5      20.858674   19.513158   21.730072 H          1 MOL1         0.0753
       9    C4      18.703216   19.214926   21.790884 C.3        1 MOL1        -0.1855
      10    H6      17.867491   19.233982   21.078064 H          1 MOL1         0.0755
      11    H7      18.790403   18.175222   22.135671 H          1 MOL1         0.0755
      12    C5      18.352691   20.137135   22.984602 C.3        1 MOL1        -0.1855
      13    H8      17.385104   19.824101   23.400754 H          1 MOL1         0.0755
      14    H9      18.212640   21.163607   22.619735 H          1 MOL1         0.0755
      15    C6      19.407376   20.141912   24.124882 C.3        1 MOL1        -0.1958
      16    H10     20.368493   20.523072   23.761562 H          1 MOL1         0.0753
      17    H11     19.082026   20.826436   24.916854 H          1 MOL1         0.0753
      18    C7      19.634821   18.777833   24.770303 C.2        1 MOL1         0.6174
      19    O1      20.697514   18.220193   24.578996 O.co2      1 MOL1        -0.6695
      20    O2      18.750002   18.319048   25.466090 O.co2      1 MOL1        -0.6695
@<TRIPOS>BOND
    1     1     2    1
    2     1     3    1
    3     1     4    2
    4     4     5    1
    5     4     6    1
    6     6     7    1
    7     6     8    1
    8     6     9    1
    9     9    10    1
   10     9    11    1
   11     9    12    1
   12    12    13    1
   13    12    14    1
   14    12    15    1
   15    15    16    1
   16    15    17    1
   17    15    18    1
   18    18    19    1
   19    18    20    2
@<TRIPOS>SUBSTRUCTURE
       1 MOL1            1 RESIDUE      1      MOL     
@<SCITEGIC>MOL_PROPERTY
VM2 Rank
SciTegic.value.IntegerValue
42

@<SCITEGIC>MOL_PROPERTY
Conf_Id
SciTegic.value.IntegerValue
177

@<SCITEGIC>MOL_PROPERTY
Probability
SciTegic.value.DoubleValue
0.14

@<SCITEGIC>MOL_PROPERTY
Sum Probability
SciTegic.value.DoubleValue
99.12

@<SCITEGIC>MOL_PROPERTY
Delta G
SciTegic.value.DoubleValue
2.742

@<SCITEGIC>MOL_PROPERTY
G
SciTegic.value.DoubleValue
-19.147

@<SCITEGIC>MOL_PROPERTY
E
SciTegic.value.DoubleValue
-34.505

@<SCITEGIC>MOL_PROPERTY
-TS
SciTegic.value.DoubleValue
15.358

@<SCITEGIC>MOL_PROPERTY
U+W
SciTegic.value.DoubleValue
-50.601

@<SCITEGIC>MOL_PROPERTY
U
SciTegic.value.DoubleValue
11.126

@<SCITEGIC>MOL_PROPERTY
W
SciTegic.value.DoubleValue
-61.727

@<SCITEGIC>MOL_PROPERTY
W(PB)
SciTegic.value.DoubleValue
-63.877

@<SCITEGIC>MOL_PROPERTY
W(SA)
SciTegic.value.DoubleValue
2.149

@<SCITEGIC>MOL_PROPERTY
Valence
SciTegic.value.DoubleValue
9.852

@<SCITEGIC>MOL_PROPERTY
Coulomb
SciTegic.value.DoubleValue
0.993

@<SCITEGIC>MOL_PROPERTY
VdW
SciTegic.value.DoubleValue
0.281

@<SCITEGIC>MOL_PROPERTY
VdW6
SciTegic.value.DoubleValue
-7.706

@<SCITEGIC>MOL_PROPERTY
VdW12
SciTegic.value.DoubleValue
7.987

@<SCITEGIC>MOL_PROPERTY
Bond
SciTegic.value.DoubleValue
0.153

@<SCITEGIC>MOL_PROPERTY
Angle
SciTegic.value.DoubleValue
2.748

@<SCITEGIC>MOL_PROPERTY
Pdih
SciTegic.value.DoubleValue
6.950

@<SCITEGIC>MOL_PROPERTY
Idih
SciTegic.value.DoubleValue
0.001

@<SCITEGIC>MOL_PROPERTY
Tether
SciTegic.value.DoubleValue
0.000

@<TRIPOS>MOLECULE
guest-s22_vm2.mol2 : vm2 ligand conformer 43
          20          19           1
SMALL
USER_CHARGES
 
@<TRIPOS>ATOM
       1    C1      20.773299   17.720095   20.491335 C.2        1 MOL1        -0.2535
       2    H1      20.434209   17.418177   21.480165 H          1 MOL1         0.0845
       3    H2      21.571697   17.130676   20.044061 H          1 MOL1         0.0845
       4    C2      20.244686   18.762006   19.839596 C.2        1 MOL1        -0.1324
       5    H3      20.625502   19.015109   18.850494 H          1 MOL1         0.0833
       6    C3      19.133795   19.677124   20.331158 C.3        1 MOL1        -0.1813
       7    H4      18.223968   19.461228   19.755540 H          1 MOL1         0.0753
       8    H5      19.392413   20.715045   20.082297 H          1 MOL1         0.0753
       9    C4      18.805437   19.600106   21.842792 C.3        1 MOL1        -0.1855
      10    H6      17.891165   20.179048   22.031389 H          1 MOL1         0.0755
      11    H7      18.570430   18.564534   22.122638 H          1 MOL1         0.0755
      12    C5      19.939369   20.162727   22.733603 C.3        1 MOL1        -0.1855
      13    H8      20.134220   21.206421   22.452777 H          1 MOL1         0.0755
      14    H9      20.872610   19.612068   22.555668 H          1 MOL1         0.0755
      15    C6      19.593791   20.102793   24.243996 C.3        1 MOL1        -0.1958
      16    H10     20.370313   20.621398   24.818448 H          1 MOL1         0.0753
      17    H11     18.650518   20.627273   24.438655 H          1 MOL1         0.0753
      18    C7      19.486462   18.684624   24.797591 C.2        1 MOL1         0.6174
      19    O1      20.515337   18.075004   25.013983 O.co2      1 MOL1        -0.6695
      20    O2      18.378823   18.233521   25.013944 O.co2      1 MOL1        -0.6695
@<TRIPOS>BOND
    1     1     2    1
    2     1     3    1
    3     1     4    2
    4     4     5    1
    5     4     6    1
    6     6     7    1
    7     6     8    1
    8     6     9    1
    9     9    10    1
   10     9    11    1
   11     9    12    1
   12    12    13    1
   13    12    14    1
   14    12    15    1
   15    15    16    1
   16    15    17    1
   17    15    18    1
   18    18    19    1
   19    18    20    2
@<TRIPOS>SUBSTRUCTURE
       1 MOL1            1 RESIDUE      1      MOL     
@<SCITEGIC>MOL_PROPERTY
VM2 Rank
SciTegic.value.IntegerValue
43

@<SCITEGIC>MOL_PROPERTY
Conf_Id
SciTegic.value.IntegerValue
510

@<SCITEGIC>MOL_PROPERTY
Probability
SciTegic.value.DoubleValue
0.12

@<SCITEGIC>MOL_PROPERTY
Sum Probability
SciTegic.value.DoubleValue
99.24

@<SCITEGIC>MOL_PROPERTY
Delta G
SciTegic.value.DoubleValue
2.837

@<SCITEGIC>MOL_PROPERTY
G
SciTegic.value.DoubleValue
-19.051

@<SCITEGIC>MOL_PROPERTY
E
SciTegic.value.DoubleValue
-34.881

@<SCITEGIC>MOL_PROPERTY
-TS
SciTegic.value.DoubleValue
15.830

@<SCITEGIC>MOL_PROPERTY
U+W
SciTegic.value.DoubleValue
-50.977

@<SCITEGIC>MOL_PROPERTY
U
SciTegic.value.DoubleValue
11.076

@<SCITEGIC>MOL_PROPERTY
W
SciTegic.value.DoubleValue
-62.053

@<SCITEGIC>MOL_PROPERTY
W(PB)
SciTegic.value.DoubleValue
-64.205

@<SCITEGIC>MOL_PROPERTY
W(SA)
SciTegic.value.DoubleValue
2.151

@<SCITEGIC>MOL_PROPERTY
Valence
SciTegic.value.DoubleValue
8.972

@<SCITEGIC>MOL_PROPERTY
Coulomb
SciTegic.value.DoubleValue
1.263

@<SCITEGIC>MOL_PROPERTY
VdW
SciTegic.value.DoubleValue
0.841

@<SCITEGIC>MOL_PROPERTY
VdW6
SciTegic.value.DoubleValue
-8.354

@<SCITEGIC>MOL_PROPERTY
VdW12
SciTegic.value.DoubleValue
9.195

@<SCITEGIC>MOL_PROPERTY
Bond
SciTegic.value.DoubleValue
0.189

@<SCITEGIC>MOL_PROPERTY
Angle
SciTegic.value.DoubleValue
3.355

@<SCITEGIC>MOL_PROPERTY
Pdih
SciTegic.value.DoubleValue
5.428

@<SCITEGIC>MOL_PROPERTY
Idih
SciTegic.value.DoubleValue
0.001

@<SCITEGIC>MOL_PROPERTY
Tether
SciTegic.value.DoubleValue
0.000

@<TRIPOS>MOLECULE
guest-s22_vm2.mol2 : vm2 ligand conformer 44
          20          19           1
SMALL
USER_CHARGES
 
@<TRIPOS>ATOM
       1    C1      19.732172   17.311405   20.164530 C.2        1 MOL1        -0.2535
       2    H1      18.649665   17.207736   20.217587 H          1 MOL1         0.0845
       3    H2      20.318951   16.399268   20.071114 H          1 MOL1         0.0845
       4    C2      20.321552   18.509124   20.215013 C.2        1 MOL1        -0.1324
       5    H3      21.406909   18.588905   20.160953 H          1 MOL1         0.0833
       6    C3      19.575314   19.820549   20.344008 C.3        1 MOL1        -0.1813
       7    H4      18.490153   19.656110   20.386191 H          1 MOL1         0.0753
       8    H5      19.761903   20.407249   19.434718 H          1 MOL1         0.0753
       9    C4      20.029687   20.668062   21.558242 C.3        1 MOL1        -0.1855
      10    H6      21.126070   20.668598   21.628061 H          1 MOL1         0.0755
      11    H7      19.740356   21.710663   21.368030 H          1 MOL1         0.0755
      12    C5      19.409653   20.251383   22.915659 C.3        1 MOL1        -0.1855
      13    H8      18.313710   20.244266   22.838706 H          1 MOL1         0.0755
      14    H9      19.660599   21.019903   23.659881 H          1 MOL1         0.0755
      15    C6      19.899803   18.879914   23.445851 C.3        1 MOL1        -0.1958
      16    H10     19.537352   18.069544   22.805591 H          1 MOL1         0.0753
      17    H11     20.995397   18.838651   23.438150 H          1 MOL1         0.0753
      18    C7      19.423623   18.591376   24.864867 C.2        1 MOL1         0.6174
      19    O1      20.140746   18.921976   25.788667 O.co2      1 MOL1        -0.6695
      20    O2      18.338449   18.064211   25.011162 O.co2      1 MOL1        -0.6695
@<TRIPOS>BOND
    1     1     2    1
    2     1     3    1
    3     1     4    2
    4     4     5    1
    5     4     6    1
    6     6     7    1
    7     6     8    1
    8     6     9    1
    9     9    10    1
   10     9    11    1
   11     9    12    1
   12    12    13    1
   13    12    14    1
   14    12    15    1
   15    15    16    1
   16    15    17    1
   17    15    18    1
   18    18    19    1
   19    18    20    2
@<TRIPOS>SUBSTRUCTURE
       1 MOL1            1 RESIDUE      1      MOL     
@<SCITEGIC>MOL_PROPERTY
VM2 Rank
SciTegic.value.IntegerValue
44

@<SCITEGIC>MOL_PROPERTY
Conf_Id
SciTegic.value.IntegerValue
85

@<SCITEGIC>MOL_PROPERTY
Probability
SciTegic.value.DoubleValue
0.11

@<SCITEGIC>MOL_PROPERTY
Sum Probability
SciTegic.value.DoubleValue
99.36

@<SCITEGIC>MOL_PROPERTY
Delta G
SciTegic.value.DoubleValue
2.872

@<SCITEGIC>MOL_PROPERTY
G
SciTegic.value.DoubleValue
-19.016

@<SCITEGIC>MOL_PROPERTY
E
SciTegic.value.DoubleValue
-34.233

@<SCITEGIC>MOL_PROPERTY
-TS
SciTegic.value.DoubleValue
15.216

@<SCITEGIC>MOL_PROPERTY
U+W
SciTegic.value.DoubleValue
-50.329

@<SCITEGIC>MOL_PROPERTY
U
SciTegic.value.DoubleValue
11.028

@<SCITEGIC>MOL_PROPERTY
W
SciTegic.value.DoubleValue
-61.357

@<SCITEGIC>MOL_PROPERTY
W(PB)
SciTegic.value.DoubleValue
-63.524

@<SCITEGIC>MOL_PROPERTY
W(SA)
SciTegic.value.DoubleValue
2.167

@<SCITEGIC>MOL_PROPERTY
Valence
SciTegic.value.DoubleValue
11.008

@<SCITEGIC>MOL_PROPERTY
Coulomb
SciTegic.value.DoubleValue
-0.464

@<SCITEGIC>MOL_PROPERTY
VdW
SciTegic.value.DoubleValue
0.484

@<SCITEGIC>MOL_PROPERTY
VdW6
SciTegic.value.DoubleValue
-7.638

@<SCITEGIC>MOL_PROPERTY
VdW12
SciTegic.value.DoubleValue
8.122

@<SCITEGIC>MOL_PROPERTY
Bond
SciTegic.value.DoubleValue
0.158

@<SCITEGIC>MOL_PROPERTY
Angle
SciTegic.value.DoubleValue
3.060

@<SCITEGIC>MOL_PROPERTY
Pdih
SciTegic.value.DoubleValue
7.789

@<SCITEGIC>MOL_PROPERTY
Idih
SciTegic.value.DoubleValue
0.001

@<SCITEGIC>MOL_PROPERTY
Tether
SciTegic.value.DoubleValue
0.000

@<TRIPOS>MOLECULE
guest-s22_vm2.mol2 : vm2 ligand conformer 45
          20          19           1
SMALL
USER_CHARGES
 
@<TRIPOS>ATOM
       1    C1      18.863198   17.706199   20.055939 C.2        1 MOL1        -0.2535
       2    H1      19.464485   16.837563   20.319210 H          1 MOL1         0.0845
       3    H2      17.830522   17.529803   19.760138 H          1 MOL1         0.0845
       4    C2      19.368212   18.942246   20.095878 C.2        1 MOL1        -0.1324
       5    H3      18.747549   19.797086   19.828830 H          1 MOL1         0.0833
       6    C3      20.792021   19.267790   20.496056 C.3        1 MOL1        -0.1813
       7    H4      21.295432   19.710573   19.626366 H          1 MOL1         0.0753
       8    H5      21.351988   18.355947   20.743798 H          1 MOL1         0.0753
       9    C4      20.884588   20.279658   21.665096 C.3        1 MOL1        -0.1855
      10    H6      21.882932   20.737220   21.635822 H          1 MOL1         0.0755
      11    H7      20.172743   21.101743   21.508943 H          1 MOL1         0.0755
      12    C5      20.691835   19.668826   23.075904 C.3        1 MOL1        -0.1855
      13    H8      20.951303   20.433465   23.821200 H          1 MOL1         0.0755
      14    H9      21.399976   18.842057   23.224407 H          1 MOL1         0.0755
      15    C6      19.251579   19.174401   23.364843 C.3        1 MOL1        -0.1958
      16    H10     18.525007   19.961028   23.129472 H          1 MOL1         0.0753
      17    H11     19.010688   18.308828   22.739738 H          1 MOL1         0.0753
      18    C7      19.049941   18.761064   24.818150 C.2        1 MOL1         0.6174
      19    O1      18.650883   19.599185   25.602546 O.co2      1 MOL1        -0.6695
      20    O2      19.318743   17.618632   25.133588 O.co2      1 MOL1        -0.6695
@<TRIPOS>BOND
    1     1     2    1
    2     1     3    1
    3     1     4    2
    4     4     5    1
    5     4     6    1
    6     6     7    1
    7     6     8    1
    8     6     9    1
    9     9    10    1
   10     9    11    1
   11     9    12    1
   12    12    13    1
   13    12    14    1
   14    12    15    1
   15    15    16    1
   16    15    17    1
   17    15    18    1
   18    18    19    1
   19    18    20    2
@<TRIPOS>SUBSTRUCTURE
       1 MOL1            1 RESIDUE      1      MOL     
@<SCITEGIC>MOL_PROPERTY
VM2 Rank
SciTegic.value.IntegerValue
45

@<SCITEGIC>MOL_PROPERTY
Conf_Id
SciTegic.value.IntegerValue
91

@<SCITEGIC>MOL_PROPERTY
Probability
SciTegic.value.DoubleValue
0.11

@<SCITEGIC>MOL_PROPERTY
Sum Probability
SciTegic.value.DoubleValue
99.47

@<SCITEGIC>MOL_PROPERTY
Delta G
SciTegic.value.DoubleValue
2.879

@<SCITEGIC>MOL_PROPERTY
G
SciTegic.value.DoubleValue
-19.010

@<SCITEGIC>MOL_PROPERTY
E
SciTegic.value.DoubleValue
-34.226

@<SCITEGIC>MOL_PROPERTY
-TS
SciTegic.value.DoubleValue
15.217

@<SCITEGIC>MOL_PROPERTY
U+W
SciTegic.value.DoubleValue
-50.323

@<SCITEGIC>MOL_PROPERTY
U
SciTegic.value.DoubleValue
11.028

@<SCITEGIC>MOL_PROPERTY
W
SciTegic.value.DoubleValue
-61.351

@<SCITEGIC>MOL_PROPERTY
W(PB)
SciTegic.value.DoubleValue
-63.501

@<SCITEGIC>MOL_PROPERTY
W(SA)
SciTegic.value.DoubleValue
2.150

@<SCITEGIC>MOL_PROPERTY
Valence
SciTegic.value.DoubleValue
11.008

@<SCITEGIC>MOL_PROPERTY
Coulomb
SciTegic.value.DoubleValue
-0.464

@<SCITEGIC>MOL_PROPERTY
VdW
SciTegic.value.DoubleValue
0.484

@<SCITEGIC>MOL_PROPERTY
VdW6
SciTegic.value.DoubleValue
-7.638

@<SCITEGIC>MOL_PROPERTY
VdW12
SciTegic.value.DoubleValue
8.122

@<SCITEGIC>MOL_PROPERTY
Bond
SciTegic.value.DoubleValue
0.158

@<SCITEGIC>MOL_PROPERTY
Angle
SciTegic.value.DoubleValue
3.060

@<SCITEGIC>MOL_PROPERTY
Pdih
SciTegic.value.DoubleValue
7.789

@<SCITEGIC>MOL_PROPERTY
Idih
SciTegic.value.DoubleValue
0.001

@<SCITEGIC>MOL_PROPERTY
Tether
SciTegic.value.DoubleValue
0.000

@<TRIPOS>MOLECULE
guest-s22_vm2.mol2 : vm2 ligand conformer 46
          20          19           1
SMALL
USER_CHARGES
 
@<TRIPOS>ATOM
       1    C1      21.339243   19.720819   20.598887 C.2        1 MOL1        -0.2535
       2    H1      22.340139   19.847334   20.190095 H          1 MOL1         0.0845
       3    H2      21.180197   20.055532   21.621919 H          1 MOL1         0.0845
       4    C2      20.362766   19.179214   19.862046 C.2        1 MOL1        -0.1324
       5    H3      20.582916   18.863988   18.842451 H          1 MOL1         0.0833
       6    C3      18.924184   18.935606   20.291340 C.3        1 MOL1        -0.1813
       7    H4      18.609547   17.946030   19.933797 H          1 MOL1         0.0753
       8    H5      18.277649   19.650617   19.765520 H          1 MOL1         0.0753
       9    C4      18.642033   19.022753   21.811729 C.3        1 MOL1        -0.1855
      10    H6      18.974845   19.994884   22.199215 H          1 MOL1         0.0755
      11    H7      17.555110   18.991381   21.967461 H          1 MOL1         0.0755
      12    C5      19.289429   17.865698   22.610468 C.3        1 MOL1        -0.1855
      13    H8      20.377420   17.862006   22.461847 H          1 MOL1         0.0755
      14    H9      18.918003   16.907780   22.222449 H          1 MOL1         0.0755
      15    C6      18.983960   17.947658   24.128448 C.3        1 MOL1        -0.1958
      16    H10     17.900633   17.977211   24.296569 H          1 MOL1         0.0753
      17    H11     19.358545   17.045872   24.626843 H          1 MOL1         0.0753
      18    C7      19.618127   19.149943   24.822372 C.2        1 MOL1         0.6174
      19    O1      20.807379   19.107103   25.069128 O.co2      1 MOL1        -0.6695
      20    O2      18.903881   20.089206   25.113583 O.co2      1 MOL1        -0.6695
@<TRIPOS>BOND
    1     1     2    1
    2     1     3    1
    3     1     4    2
    4     4     5    1
    5     4     6    1
    6     6     7    1
    7     6     8    1
    8     6     9    1
    9     9    10    1
   10     9    11    1
   11     9    12    1
   12    12    13    1
   13    12    14    1
   14    12    15    1
   15    15    16    1
   16    15    17    1
   17    15    18    1
   18    18    19    1
   19    18    20    2
@<TRIPOS>SUBSTRUCTURE
       1 MOL1            1 RESIDUE      1      MOL     
@<SCITEGIC>MOL_PROPERTY
VM2 Rank
SciTegic.value.IntegerValue
46

@<SCITEGIC>MOL_PROPERTY
Conf_Id
SciTegic.value.IntegerValue
376

@<SCITEGIC>MOL_PROPERTY
Probability
SciTegic.value.DoubleValue
0.11

@<SCITEGIC>MOL_PROPERTY
Sum Probability
SciTegic.value.DoubleValue
99.57

@<SCITEGIC>MOL_PROPERTY
Delta G
SciTegic.value.DoubleValue
2.907

@<SCITEGIC>MOL_PROPERTY
G
SciTegic.value.DoubleValue
-18.981

@<SCITEGIC>MOL_PROPERTY
E
SciTegic.value.DoubleValue
-34.809

@<SCITEGIC>MOL_PROPERTY
-TS
SciTegic.value.DoubleValue
15.828

@<SCITEGIC>MOL_PROPERTY
U+W
SciTegic.value.DoubleValue
-50.905

@<SCITEGIC>MOL_PROPERTY
U
SciTegic.value.DoubleValue
11.076

@<SCITEGIC>MOL_PROPERTY
W
SciTegic.value.DoubleValue
-61.981

@<SCITEGIC>MOL_PROPERTY
W(PB)
SciTegic.value.DoubleValue
-64.112

@<SCITEGIC>MOL_PROPERTY
W(SA)
SciTegic.value.DoubleValue
2.131

@<SCITEGIC>MOL_PROPERTY
Valence
SciTegic.value.DoubleValue
8.972

@<SCITEGIC>MOL_PROPERTY
Coulomb
SciTegic.value.DoubleValue
1.262

@<SCITEGIC>MOL_PROPERTY
VdW
SciTegic.value.DoubleValue
0.841

@<SCITEGIC>MOL_PROPERTY
VdW6
SciTegic.value.DoubleValue
-8.354

@<SCITEGIC>MOL_PROPERTY
VdW12
SciTegic.value.DoubleValue
9.195

@<SCITEGIC>MOL_PROPERTY
Bond
SciTegic.value.DoubleValue
0.189

@<SCITEGIC>MOL_PROPERTY
Angle
SciTegic.value.DoubleValue
3.355

@<SCITEGIC>MOL_PROPERTY
Pdih
SciTegic.value.DoubleValue
5.428

@<SCITEGIC>MOL_PROPERTY
Idih
SciTegic.value.DoubleValue
0.001

@<SCITEGIC>MOL_PROPERTY
Tether
SciTegic.value.DoubleValue
0.000

@<TRIPOS>MOLECULE
guest-s22_vm2.mol2 : vm2 ligand conformer 47
          20          19           1
SMALL
USER_CHARGES
 
@<TRIPOS>ATOM
       1    C1      19.993375   18.677942   18.843193 C.2        1 MOL1        -0.2535
       2    H1      20.402878   17.918373   18.179487 H          1 MOL1         0.0845
       3    H2      19.828131   19.670573   18.427456 H          1 MOL1         0.0845
       4    C2      19.709078   18.399757   20.118130 C.2        1 MOL1        -0.1324
       5    H3      19.879858   17.399059   20.513934 H          1 MOL1         0.0833
       6    C3      19.133791   19.401115   21.096830 C.3        1 MOL1        -0.1813
       7    H4      18.316895   18.942259   21.668725 H          1 MOL1         0.0753
       8    H5      18.681175   20.237555   20.547538 H          1 MOL1         0.0753
       9    C4      20.204007   19.968228   22.060017 C.3        1 MOL1        -0.1855
      10    H6      20.965249   20.497375   21.470654 H          1 MOL1         0.0755
      11    H7      19.737301   20.725873   22.704324 H          1 MOL1         0.0755
      12    C5      20.906750   18.907024   22.945506 C.3        1 MOL1        -0.1855
      13    H8      21.660564   19.410377   23.566460 H          1 MOL1         0.0755
      14    H9      21.459296   18.204947   22.307167 H          1 MOL1         0.0755
      15    C6      19.950471   18.108563   23.872962 C.3        1 MOL1        -0.1958
      16    H10     19.230153   17.532490   23.281080 H          1 MOL1         0.0753
      17    H11     20.530245   17.379638   24.451009 H          1 MOL1         0.0753
      18    C7      19.184041   18.973012   24.869885 C.2        1 MOL1         0.6174
      19    O1      19.797270   19.447437   25.806011 O.co2      1 MOL1        -0.6695
      20    O2      17.992217   19.134922   24.695467 O.co2      1 MOL1        -0.6695
@<TRIPOS>BOND
    1     1     2    1
    2     1     3    1
    3     1     4    2
    4     4     5    1
    5     4     6    1
    6     6     7    1
    7     6     8    1
    8     6     9    1
    9     9    10    1
   10     9    11    1
   11     9    12    1
   12    12    13    1
   13    12    14    1
   14    12    15    1
   15    15    16    1
   16    15    17    1
   17    15    18    1
   18    18    19    1
   19    18    20    2
@<TRIPOS>SUBSTRUCTURE
       1 MOL1            1 RESIDUE      1      MOL     
@<SCITEGIC>MOL_PROPERTY
VM2 Rank
SciTegic.value.IntegerValue
47

@<SCITEGIC>MOL_PROPERTY
Conf_Id
SciTegic.value.IntegerValue
342

@<SCITEGIC>MOL_PROPERTY
Probability
SciTegic.value.DoubleValue
0.07

@<SCITEGIC>MOL_PROPERTY
Sum Probability
SciTegic.value.DoubleValue
99.65

@<SCITEGIC>MOL_PROPERTY
Delta G
SciTegic.value.DoubleValue
3.138

@<SCITEGIC>MOL_PROPERTY
G
SciTegic.value.DoubleValue
-18.750

@<SCITEGIC>MOL_PROPERTY
E
SciTegic.value.DoubleValue
-34.409

@<SCITEGIC>MOL_PROPERTY
-TS
SciTegic.value.DoubleValue
15.659

@<SCITEGIC>MOL_PROPERTY
U+W
SciTegic.value.DoubleValue
-50.505

@<SCITEGIC>MOL_PROPERTY
U
SciTegic.value.DoubleValue
10.403

@<SCITEGIC>MOL_PROPERTY
W
SciTegic.value.DoubleValue
-60.908

@<SCITEGIC>MOL_PROPERTY
W(PB)
SciTegic.value.DoubleValue
-63.053

@<SCITEGIC>MOL_PROPERTY
W(SA)
SciTegic.value.DoubleValue
2.145

@<SCITEGIC>MOL_PROPERTY
Valence
SciTegic.value.DoubleValue
10.022

@<SCITEGIC>MOL_PROPERTY
Coulomb
SciTegic.value.DoubleValue
0.092

@<SCITEGIC>MOL_PROPERTY
VdW
SciTegic.value.DoubleValue
0.289

@<SCITEGIC>MOL_PROPERTY
VdW6
SciTegic.value.DoubleValue
-8.408

@<SCITEGIC>MOL_PROPERTY
VdW12
SciTegic.value.DoubleValue
8.698

@<SCITEGIC>MOL_PROPERTY
Bond
SciTegic.value.DoubleValue
0.179

@<SCITEGIC>MOL_PROPERTY
Angle
SciTegic.value.DoubleValue
2.939

@<SCITEGIC>MOL_PROPERTY
Pdih
SciTegic.value.DoubleValue
6.902

@<SCITEGIC>MOL_PROPERTY
Idih
SciTegic.value.DoubleValue
0.001

@<SCITEGIC>MOL_PROPERTY
Tether
SciTegic.value.DoubleValue
0.000

@<TRIPOS>MOLECULE
guest-s22_vm2.mol2 : vm2 ligand conformer 48
          20          19           1
SMALL
USER_CHARGES
 
@<TRIPOS>ATOM
       1    C1      20.452806   18.816498   18.902453 C.2        1 MOL1        -0.2535
       2    H1      20.142522   19.765410   18.467998 H          1 MOL1         0.0845
       3    H2      20.691091   18.005320   18.216629 H          1 MOL1         0.0845
       4    C2      20.536059   18.649100   20.224846 C.2        1 MOL1        -0.1324
       5    H3      20.851028   17.691865   20.639238 H          1 MOL1         0.0833
       6    C3      20.226421   19.730529   21.237844 C.3        1 MOL1        -0.1813
       7    H4      20.263695   20.714687   20.751780 H          1 MOL1         0.0753
       8    H5      21.001263   19.751570   22.015089 H          1 MOL1         0.0753
       9    C4      18.830899   19.554197   21.882929 C.3        1 MOL1        -0.1855
      10    H6      18.644351   20.396328   22.563361 H          1 MOL1         0.0755
      11    H7      18.066697   19.623385   21.096772 H          1 MOL1         0.0755
      12    C5      18.636147   18.222409   22.652671 C.3        1 MOL1        -0.1855
      13    H8      18.721809   17.379565   21.954122 H          1 MOL1         0.0755
      14    H9      17.610044   18.189132   23.044063 H          1 MOL1         0.0755
      15    C6      19.625437   18.010532   23.831060 C.3        1 MOL1        -0.1958
      16    H10     19.420431   17.045048   24.307944 H          1 MOL1         0.0753
      17    H11     20.657364   17.962681   23.465165 H          1 MOL1         0.0753
      18    C7      19.540270   19.080417   24.915788 C.2        1 MOL1         0.6174
      19    O1      20.453226   19.876770   25.012832 O.co2      1 MOL1        -0.6695
      20    O2      18.569734   19.077547   25.647575 O.co2      1 MOL1        -0.6695
@<TRIPOS>BOND
    1     1     2    1
    2     1     3    1
    3     1     4    2
    4     4     5    1
    5     4     6    1
    6     6     7    1
    7     6     8    1
    8     6     9    1
    9     9    10    1
   10     9    11    1
   11     9    12    1
   12    12    13    1
   13    12    14    1
   14    12    15    1
   15    15    16    1
   16    15    17    1
   17    15    18    1
   18    18    19    1
   19    18    20    2
@<TRIPOS>SUBSTRUCTURE
       1 MOL1            1 RESIDUE      1      MOL     
@<SCITEGIC>MOL_PROPERTY
VM2 Rank
SciTegic.value.IntegerValue
48

@<SCITEGIC>MOL_PROPERTY
Conf_Id
SciTegic.value.IntegerValue
475

@<SCITEGIC>MOL_PROPERTY
Probability
SciTegic.value.DoubleValue
0.07

@<SCITEGIC>MOL_PROPERTY
Sum Probability
SciTegic.value.DoubleValue
99.72

@<SCITEGIC>MOL_PROPERTY
Delta G
SciTegic.value.DoubleValue
3.148

@<SCITEGIC>MOL_PROPERTY
G
SciTegic.value.DoubleValue
-18.741

@<SCITEGIC>MOL_PROPERTY
E
SciTegic.value.DoubleValue
-34.401

@<SCITEGIC>MOL_PROPERTY
-TS
SciTegic.value.DoubleValue
15.660

@<SCITEGIC>MOL_PROPERTY
U+W
SciTegic.value.DoubleValue
-50.497

@<SCITEGIC>MOL_PROPERTY
U
SciTegic.value.DoubleValue
10.403

@<SCITEGIC>MOL_PROPERTY
W
SciTegic.value.DoubleValue
-60.900

@<SCITEGIC>MOL_PROPERTY
W(PB)
SciTegic.value.DoubleValue
-63.048

@<SCITEGIC>MOL_PROPERTY
W(SA)
SciTegic.value.DoubleValue
2.148

@<SCITEGIC>MOL_PROPERTY
Valence
SciTegic.value.DoubleValue
10.021

@<SCITEGIC>MOL_PROPERTY
Coulomb
SciTegic.value.DoubleValue
0.093

@<SCITEGIC>MOL_PROPERTY
VdW
SciTegic.value.DoubleValue
0.289

@<SCITEGIC>MOL_PROPERTY
VdW6
SciTegic.value.DoubleValue
-8.409

@<SCITEGIC>MOL_PROPERTY
VdW12
SciTegic.value.DoubleValue
8.698

@<SCITEGIC>MOL_PROPERTY
Bond
SciTegic.value.DoubleValue
0.179

@<SCITEGIC>MOL_PROPERTY
Angle
SciTegic.value.DoubleValue
2.939

@<SCITEGIC>MOL_PROPERTY
Pdih
SciTegic.value.DoubleValue
6.902

@<SCITEGIC>MOL_PROPERTY
Idih
SciTegic.value.DoubleValue
0.001

@<SCITEGIC>MOL_PROPERTY
Tether
SciTegic.value.DoubleValue
0.000

@<TRIPOS>MOLECULE
guest-s22_vm2.mol2 : vm2 ligand conformer 49
          20          19           1
SMALL
USER_CHARGES
 
@<TRIPOS>ATOM
       1    C1      20.898229   17.948974   19.882838 C.2        1 MOL1        -0.2535
       2    H1      20.856205   17.312632   19.000623 H          1 MOL1         0.0845
       3    H2      21.562488   17.644033   20.689666 H          1 MOL1         0.0845
       4    C2      20.159426   19.058331   19.969591 C.2        1 MOL1        -0.1324
       5    H3      19.499079   19.344595   19.151515 H          1 MOL1         0.0833
       6    C3      20.162996   19.990668   21.162416 C.3        1 MOL1        -0.1813
       7    H4      20.357089   21.014089   20.815345 H          1 MOL1         0.0753
       8    H5      20.984434   19.743926   21.847863 H          1 MOL1         0.0753
       9    C4      18.816785   19.976167   21.925457 C.3        1 MOL1        -0.1855
      10    H6      18.856923   20.718027   22.734768 H          1 MOL1         0.0755
      11    H7      18.020189   20.309877   21.246690 H          1 MOL1         0.0755
      12    C5      18.425802   18.596268   22.514211 C.3        1 MOL1        -0.1855
      13    H8      18.312015   17.869879   21.698448 H          1 MOL1         0.0755
      14    H9      17.437910   18.681436   22.987376 H          1 MOL1         0.0755
      15    C6      19.430951   18.035453   23.556943 C.3        1 MOL1        -0.1958
      16    H10     19.082773   17.056720   23.906729 H          1 MOL1         0.0753
      17    H11     20.411414   17.869265   23.096660 H          1 MOL1         0.0753
      18    C7      19.611890   18.920225   24.786838 C.2        1 MOL1         0.6174
      19    O1      20.658953   19.524106   24.913810 O.co2      1 MOL1        -0.6695
      20    O2      18.705970   18.967808   25.595895 O.co2      1 MOL1        -0.6695
@<TRIPOS>BOND
    1     1     2    1
    2     1     3    1
    3     1     4    2
    4     4     5    1
    5     4     6    1
    6     6     7    1
    7     6     8    1
    8     6     9    1
    9     9    10    1
   10     9    11    1
   11     9    12    1
   12    12    13    1
   13    12    14    1
   14    12    15    1
   15    15    16    1
   16    15    17    1
   17    15    18    1
   18    18    19    1
   19    18    20    2
@<TRIPOS>SUBSTRUCTURE
       1 MOL1            1 RESIDUE      1      MOL     
@<SCITEGIC>MOL_PROPERTY
VM2 Rank
SciTegic.value.IntegerValue
49

@<SCITEGIC>MOL_PROPERTY
Conf_Id
SciTegic.value.IntegerValue
562

@<SCITEGIC>MOL_PROPERTY
Probability
SciTegic.value.DoubleValue
0.05

@<SCITEGIC>MOL_PROPERTY
Sum Probability
SciTegic.value.DoubleValue
99.77

@<SCITEGIC>MOL_PROPERTY
Delta G
SciTegic.value.DoubleValue
3.304

@<SCITEGIC>MOL_PROPERTY
G
SciTegic.value.DoubleValue
-18.585

@<SCITEGIC>MOL_PROPERTY
E
SciTegic.value.DoubleValue
-34.367

@<SCITEGIC>MOL_PROPERTY
-TS
SciTegic.value.DoubleValue
15.783

@<SCITEGIC>MOL_PROPERTY
U+W
SciTegic.value.DoubleValue
-50.464

@<SCITEGIC>MOL_PROPERTY
U
SciTegic.value.DoubleValue
10.910

@<SCITEGIC>MOL_PROPERTY
W
SciTegic.value.DoubleValue
-61.373

@<SCITEGIC>MOL_PROPERTY
W(PB)
SciTegic.value.DoubleValue
-63.512

@<SCITEGIC>MOL_PROPERTY
W(SA)
SciTegic.value.DoubleValue
2.139

@<SCITEGIC>MOL_PROPERTY
Valence
SciTegic.value.DoubleValue
9.972

@<SCITEGIC>MOL_PROPERTY
Coulomb
SciTegic.value.DoubleValue
0.850

@<SCITEGIC>MOL_PROPERTY
VdW
SciTegic.value.DoubleValue
0.088

@<SCITEGIC>MOL_PROPERTY
VdW6
SciTegic.value.DoubleValue
-8.716

@<SCITEGIC>MOL_PROPERTY
VdW12
SciTegic.value.DoubleValue
8.804

@<SCITEGIC>MOL_PROPERTY
Bond
SciTegic.value.DoubleValue
0.178

@<SCITEGIC>MOL_PROPERTY
Angle
SciTegic.value.DoubleValue
2.916

@<SCITEGIC>MOL_PROPERTY
Pdih
SciTegic.value.DoubleValue
6.877

@<SCITEGIC>MOL_PROPERTY
Idih
SciTegic.value.DoubleValue
0.001

@<SCITEGIC>MOL_PROPERTY
Tether
SciTegic.value.DoubleValue
0.000

@<TRIPOS>MOLECULE
guest-s22_vm2.mol2 : vm2 ligand conformer 50
          20          19           1
SMALL
USER_CHARGES
 
@<TRIPOS>ATOM
       1    C1      19.877998   17.641344   19.751412 C.2        1 MOL1        -0.2535
       2    H1      19.320835   16.968202   20.400757 H          1 MOL1         0.0845
       3    H2      20.463715   17.194225   18.950150 H          1 MOL1         0.0845
       4    C2      19.849231   18.964755   19.929694 C.2        1 MOL1        -0.1324
       5    H3      20.415946   19.620950   19.269773 H          1 MOL1         0.0833
       6    C3      19.060938   19.658436   21.020334 C.3        1 MOL1        -0.1813
       7    H4      18.373685   18.956884   21.511237 H          1 MOL1         0.0753
       8    H5      18.428196   20.432549   20.566565 H          1 MOL1         0.0753
       9    C4      19.975914   20.325713   22.074983 C.3        1 MOL1        -0.1855
      10    H6      20.594211   21.086002   21.578676 H          1 MOL1         0.0755
      11    H7      19.351175   20.867133   22.798528 H          1 MOL1         0.0755
      12    C5      20.905143   19.343881   22.834035 C.3        1 MOL1        -0.1855
      13    H8      21.544548   19.919715   23.517152 H          1 MOL1         0.0755
      14    H9      21.582381   18.856031   22.120306 H          1 MOL1         0.0755
      15    C6      20.157674   18.254578   23.650633 C.3        1 MOL1        -0.1958
      16    H10     19.565407   17.614142   22.987423 H          1 MOL1         0.0753
      17    H11     20.889650   17.601561   24.139793 H          1 MOL1         0.0753
      18    C7      19.243549   18.809144   24.739224 C.2        1 MOL1         0.6174
      19    O1      19.759070   19.285262   25.731734 O.co2      1 MOL1        -0.6695
      20    O2      18.041482   18.734887   24.575951 O.co2      1 MOL1        -0.6695
@<TRIPOS>BOND
    1     1     2    1
    2     1     3    1
    3     1     4    2
    4     4     5    1
    5     4     6    1
    6     6     7    1
    7     6     8    1
    8     6     9    1
    9     9    10    1
   10     9    11    1
   11     9    12    1
   12    12    13    1
   13    12    14    1
   14    12    15    1
   15    15    16    1
   16    15    17    1
   17    15    18    1
   18    18    19    1
   19    18    20    2
@<TRIPOS>SUBSTRUCTURE
       1 MOL1            1 RESIDUE      1      MOL     
@<SCITEGIC>MOL_PROPERTY
VM2 Rank
SciTegic.value.IntegerValue
50

@<SCITEGIC>MOL_PROPERTY
Conf_Id
SciTegic.value.IntegerValue
561

@<SCITEGIC>MOL_PROPERTY
Probability
SciTegic.value.DoubleValue
0.05

@<SCITEGIC>MOL_PROPERTY
Sum Probability
SciTegic.value.DoubleValue
99.82

@<SCITEGIC>MOL_PROPERTY
Delta G
SciTegic.value.DoubleValue
3.316

@<SCITEGIC>MOL_PROPERTY
G
SciTegic.value.DoubleValue
-18.572

@<SCITEGIC>MOL_PROPERTY
E
SciTegic.value.DoubleValue
-34.355

@<SCITEGIC>MOL_PROPERTY
-TS
SciTegic.value.DoubleValue
15.783

@<SCITEGIC>MOL_PROPERTY
U+W
SciTegic.value.DoubleValue
-50.452

@<SCITEGIC>MOL_PROPERTY
U
SciTegic.value.DoubleValue
10.910

@<SCITEGIC>MOL_PROPERTY
W
SciTegic.value.DoubleValue
-61.362

@<SCITEGIC>MOL_PROPERTY
W(PB)
SciTegic.value.DoubleValue
-63.495

@<SCITEGIC>MOL_PROPERTY
W(SA)
SciTegic.value.DoubleValue
2.133

@<SCITEGIC>MOL_PROPERTY
Valence
SciTegic.value.DoubleValue
9.972

@<SCITEGIC>MOL_PROPERTY
Coulomb
SciTegic.value.DoubleValue
0.850

@<SCITEGIC>MOL_PROPERTY
VdW
SciTegic.value.DoubleValue
0.088

@<SCITEGIC>MOL_PROPERTY
VdW6
SciTegic.value.DoubleValue
-8.717

@<SCITEGIC>MOL_PROPERTY
VdW12
SciTegic.value.DoubleValue
8.804

@<SCITEGIC>MOL_PROPERTY
Bond
SciTegic.value.DoubleValue
0.178

@<SCITEGIC>MOL_PROPERTY
Angle
SciTegic.value.DoubleValue
2.916

@<SCITEGIC>MOL_PROPERTY
Pdih
SciTegic.value.DoubleValue
6.877

@<SCITEGIC>MOL_PROPERTY
Idih
SciTegic.value.DoubleValue
0.001

@<SCITEGIC>MOL_PROPERTY
Tether
SciTegic.value.DoubleValue
0.000

@<TRIPOS>MOLECULE
guest-s22_vm2.mol2 : vm2 ligand conformer 51
          20          19           1
SMALL
USER_CHARGES
 
@<TRIPOS>ATOM
       1    C1      20.559245   17.988428   19.171093 C.2        1 MOL1        -0.2535
       2    H1      21.595953   17.933679   19.499427 H          1 MOL1         0.0845
       3    H2      20.350513   17.751940   18.129107 H          1 MOL1         0.0845
       4    C2      19.579287   18.334100   20.010076 C.2        1 MOL1        -0.1324
       5    H3      18.547964   18.383634   19.661515 H          1 MOL1         0.0833
       6    C3      19.792278   18.674671   21.468365 C.3        1 MOL1        -0.1813
       7    H4      20.790724   18.351607   21.793175 H          1 MOL1         0.0753
       8    H5      19.065762   18.119883   22.074522 H          1 MOL1         0.0753
       9    C4      19.635257   20.191876   21.712348 C.3        1 MOL1        -0.1855
      10    H6      20.267096   20.727906   20.990643 H          1 MOL1         0.0755
      11    H7      18.600788   20.494538   21.500034 H          1 MOL1         0.0755
      12    C5      20.033165   20.649515   23.137720 C.3        1 MOL1        -0.1855
      13    H8      20.019980   21.747725   23.152459 H          1 MOL1         0.0755
      14    H9      21.070710   20.357152   23.351392 H          1 MOL1         0.0755
      15    C6      19.096025   20.143008   24.269972 C.3        1 MOL1        -0.1958
      16    H10     19.237319   20.770404   25.157611 H          1 MOL1         0.0753
      17    H11     18.046310   20.252831   23.971929 H          1 MOL1         0.0753
      18    C7      19.336514   18.703036   24.718868 C.2        1 MOL1         0.6174
      19    O1      20.437067   18.406582   25.141330 O.co2      1 MOL1        -0.6695
      20    O2      18.402161   17.926785   24.678228 O.co2      1 MOL1        -0.6695
@<TRIPOS>BOND
    1     1     2    1
    2     1     3    1
    3     1     4    2
    4     4     5    1
    5     4     6    1
    6     6     7    1
    7     6     8    1
    8     6     9    1
    9     9    10    1
   10     9    11    1
   11     9    12    1
   12    12    13    1
   13    12    14    1
   14    12    15    1
   15    15    16    1
   16    15    17    1
   17    15    18    1
   18    18    19    1
   19    18    20    2
@<TRIPOS>SUBSTRUCTURE
       1 MOL1            1 RESIDUE      1      MOL     
@<SCITEGIC>MOL_PROPERTY
VM2 Rank
SciTegic.value.IntegerValue
51

@<SCITEGIC>MOL_PROPERTY
Conf_Id
SciTegic.value.IntegerValue
121

@<SCITEGIC>MOL_PROPERTY
Probability
SciTegic.value.DoubleValue
0.03

@<SCITEGIC>MOL_PROPERTY
Sum Probability
SciTegic.value.DoubleValue
99.86

@<SCITEGIC>MOL_PROPERTY
Delta G
SciTegic.value.DoubleValue
3.645

@<SCITEGIC>MOL_PROPERTY
G
SciTegic.value.DoubleValue
-18.244

@<SCITEGIC>MOL_PROPERTY
E
SciTegic.value.DoubleValue
-33.768

@<SCITEGIC>MOL_PROPERTY
-TS
SciTegic.value.DoubleValue
15.524

@<SCITEGIC>MOL_PROPERTY
U+W
SciTegic.value.DoubleValue
-49.864

@<SCITEGIC>MOL_PROPERTY
U
SciTegic.value.DoubleValue
11.756

@<SCITEGIC>MOL_PROPERTY
W
SciTegic.value.DoubleValue
-61.620

@<SCITEGIC>MOL_PROPERTY
W(PB)
SciTegic.value.DoubleValue
-63.781

@<SCITEGIC>MOL_PROPERTY
W(SA)
SciTegic.value.DoubleValue
2.162

@<SCITEGIC>MOL_PROPERTY
Valence
SciTegic.value.DoubleValue
10.982

@<SCITEGIC>MOL_PROPERTY
Coulomb
SciTegic.value.DoubleValue
0.363

@<SCITEGIC>MOL_PROPERTY
VdW
SciTegic.value.DoubleValue
0.411

@<SCITEGIC>MOL_PROPERTY
VdW6
SciTegic.value.DoubleValue
-8.036

@<SCITEGIC>MOL_PROPERTY
VdW12
SciTegic.value.DoubleValue
8.447

@<SCITEGIC>MOL_PROPERTY
Bond
SciTegic.value.DoubleValue
0.168

@<SCITEGIC>MOL_PROPERTY
Angle
SciTegic.value.DoubleValue
3.178

@<SCITEGIC>MOL_PROPERTY
Pdih
SciTegic.value.DoubleValue
7.632

@<SCITEGIC>MOL_PROPERTY
Idih
SciTegic.value.DoubleValue
0.005

@<SCITEGIC>MOL_PROPERTY
Tether
SciTegic.value.DoubleValue
0.000

@<TRIPOS>MOLECULE
guest-s22_vm2.mol2 : vm2 ligand conformer 52
          20          19           1
SMALL
USER_CHARGES
 
@<TRIPOS>ATOM
       1    C1      19.997126   18.410739   19.067931 C.2        1 MOL1        -0.2535
       2    H1      20.327681   17.945659   18.140790 H          1 MOL1         0.0845
       3    H2      19.112937   19.042129   19.012497 H          1 MOL1         0.0845
       4    C2      20.658038   18.199532   20.211855 C.2        1 MOL1        -0.1324
       5    H3      21.536215   17.554305   20.205135 H          1 MOL1         0.0833
       6    C3      20.320870   18.777332   21.576352 C.3        1 MOL1        -0.1813
       7    H4      21.225436   19.235789   21.997912 H          1 MOL1         0.0753
       8    H5      20.066243   17.948076   22.247220 H          1 MOL1         0.0753
       9    C4      19.179910   19.824008   21.577909 C.3        1 MOL1        -0.1855
      10    H6      19.404760   20.590620   20.823842 H          1 MOL1         0.0755
      11    H7      18.239411   19.346985   21.270301 H          1 MOL1         0.0755
      12    C5      18.978677   20.538897   22.937593 C.3        1 MOL1        -0.1855
      13    H8      18.251650   21.347980   22.784994 H          1 MOL1         0.0755
      14    H9      19.912545   21.027585   23.248523 H          1 MOL1         0.0755
      15    C6      18.449719   19.629052   24.081968 C.3        1 MOL1        -0.1958
      16    H10     18.012919   20.258943   24.865497 H          1 MOL1         0.0753
      17    H11     17.643632   18.983628   23.712572 H          1 MOL1         0.0753
      18    C7      19.505191   18.762868   24.766645 C.2        1 MOL1         0.6174
      19    O1      20.458714   19.313679   25.281415 O.co2      1 MOL1        -0.6695
      20    O2      19.322755   17.561894   24.806332 O.co2      1 MOL1        -0.6695
@<TRIPOS>BOND
    1     1     2    1
    2     1     3    1
    3     1     4    2
    4     4     5    1
    5     4     6    1
    6     6     7    1
    7     6     8    1
    8     6     9    1
    9     9    10    1
   10     9    11    1
   11     9    12    1
   12    12    13    1
   13    12    14    1
   14    12    15    1
   15    15    16    1
   16    15    17    1
   17    15    18    1
   18    18    19    1
   19    18    20    2
@<TRIPOS>SUBSTRUCTURE
       1 MOL1            1 RESIDUE      1      MOL     
@<SCITEGIC>MOL_PROPERTY
VM2 Rank
SciTegic.value.IntegerValue
52

@<SCITEGIC>MOL_PROPERTY
Conf_Id
SciTegic.value.IntegerValue
250

@<SCITEGIC>MOL_PROPERTY
Probability
SciTegic.value.DoubleValue
0.03

@<SCITEGIC>MOL_PROPERTY
Sum Probability
SciTegic.value.DoubleValue
99.88

@<SCITEGIC>MOL_PROPERTY
Delta G
SciTegic.value.DoubleValue
3.741

@<SCITEGIC>MOL_PROPERTY
G
SciTegic.value.DoubleValue
-18.147

@<SCITEGIC>MOL_PROPERTY
E
SciTegic.value.DoubleValue
-34.009

@<SCITEGIC>MOL_PROPERTY
-TS
SciTegic.value.DoubleValue
15.862

@<SCITEGIC>MOL_PROPERTY
U+W
SciTegic.value.DoubleValue
-50.105

@<SCITEGIC>MOL_PROPERTY
U
SciTegic.value.DoubleValue
11.478

@<SCITEGIC>MOL_PROPERTY
W
SciTegic.value.DoubleValue
-61.584

@<SCITEGIC>MOL_PROPERTY
W(PB)
SciTegic.value.DoubleValue
-63.742

@<SCITEGIC>MOL_PROPERTY
W(SA)
SciTegic.value.DoubleValue
2.158

@<SCITEGIC>MOL_PROPERTY
Valence
SciTegic.value.DoubleValue
9.963

@<SCITEGIC>MOL_PROPERTY
Coulomb
SciTegic.value.DoubleValue
0.356

@<SCITEGIC>MOL_PROPERTY
VdW
SciTegic.value.DoubleValue
1.159

@<SCITEGIC>MOL_PROPERTY
VdW6
SciTegic.value.DoubleValue
-8.703

@<SCITEGIC>MOL_PROPERTY
VdW12
SciTegic.value.DoubleValue
9.862

@<SCITEGIC>MOL_PROPERTY
Bond
SciTegic.value.DoubleValue
0.227

@<SCITEGIC>MOL_PROPERTY
Angle
SciTegic.value.DoubleValue
3.805

@<SCITEGIC>MOL_PROPERTY
Pdih
SciTegic.value.DoubleValue
5.927

@<SCITEGIC>MOL_PROPERTY
Idih
SciTegic.value.DoubleValue
0.005

@<SCITEGIC>MOL_PROPERTY
Tether
SciTegic.value.DoubleValue
0.000

@<TRIPOS>MOLECULE
guest-s22_vm2.mol2 : vm2 ligand conformer 53
          20          19           1
SMALL
USER_CHARGES
 
@<TRIPOS>ATOM
       1    C1      19.659431   18.785304   19.010234 C.2        1 MOL1        -0.2535
       2    H1      19.379812   18.995561   17.979332 H          1 MOL1         0.0845
       3    H2      20.188294   17.852755   19.195088 H          1 MOL1         0.0845
       4    C2      19.353625   19.643700   19.989833 C.2        1 MOL1        -0.1324
       5    H3      18.819696   20.561071   19.743037 H          1 MOL1         0.0833
       6    C3      19.676927   19.490057   21.466741 C.3        1 MOL1        -0.1813
       7    H4      18.732471   19.424469   22.020155 H          1 MOL1         0.0753
       8    H5      20.165721   20.408792   21.817655 H          1 MOL1         0.0753
       9    C4      20.575612   18.278389   21.815386 C.3        1 MOL1        -0.1855
      10    H6      20.047301   17.345036   21.577792 H          1 MOL1         0.0755
      11    H7      21.467769   18.306276   21.174961 H          1 MOL1         0.0755
      12    C5      21.049558   18.245448   23.290038 C.3        1 MOL1        -0.1855
      13    H8      21.588267   19.171733   23.533743 H          1 MOL1         0.0755
      14    H9      21.784813   17.435146   23.386377 H          1 MOL1         0.0755
      15    C6      19.923372   17.996945   24.332708 C.3        1 MOL1        -0.1958
      16    H10     19.253928   17.200219   23.986480 H          1 MOL1         0.0753
      17    H11     20.374154   17.643668   25.267303 H          1 MOL1         0.0753
      18    C7      19.089085   19.223816   24.695795 C.2        1 MOL1         0.6174
      19    O1      19.660356   20.197705   25.146103 O.co2      1 MOL1        -0.6695
      20    O2      17.883035   19.156635   24.561161 O.co2      1 MOL1        -0.6695
@<TRIPOS>BOND
    1     1     2    1
    2     1     3    1
    3     1     4    2
    4     4     5    1
    5     4     6    1
    6     6     7    1
    7     6     8    1
    8     6     9    1
    9     9    10    1
   10     9    11    1
   11     9    12    1
   12    12    13    1
   13    12    14    1
   14    12    15    1
   15    15    16    1
   16    15    17    1
   17    15    18    1
   18    18    19    1
   19    18    20    2
@<TRIPOS>SUBSTRUCTURE
       1 MOL1            1 RESIDUE      1      MOL     
@<SCITEGIC>MOL_PROPERTY
VM2 Rank
SciTegic.value.IntegerValue
53

@<SCITEGIC>MOL_PROPERTY
Conf_Id
SciTegic.value.IntegerValue
458

@<SCITEGIC>MOL_PROPERTY
Probability
SciTegic.value.DoubleValue
0.03

@<SCITEGIC>MOL_PROPERTY
Sum Probability
SciTegic.value.DoubleValue
99.91

@<SCITEGIC>MOL_PROPERTY
Delta G
SciTegic.value.DoubleValue
3.748

@<SCITEGIC>MOL_PROPERTY
G
SciTegic.value.DoubleValue
-18.141

@<SCITEGIC>MOL_PROPERTY
E
SciTegic.value.DoubleValue
-34.003

@<SCITEGIC>MOL_PROPERTY
-TS
SciTegic.value.DoubleValue
15.862

@<SCITEGIC>MOL_PROPERTY
U+W
SciTegic.value.DoubleValue
-50.099

@<SCITEGIC>MOL_PROPERTY
U
SciTegic.value.DoubleValue
11.477

@<SCITEGIC>MOL_PROPERTY
W
SciTegic.value.DoubleValue
-61.576

@<SCITEGIC>MOL_PROPERTY
W(PB)
SciTegic.value.DoubleValue
-63.708

@<SCITEGIC>MOL_PROPERTY
W(SA)
SciTegic.value.DoubleValue
2.132

@<SCITEGIC>MOL_PROPERTY
Valence
SciTegic.value.DoubleValue
9.964

@<SCITEGIC>MOL_PROPERTY
Coulomb
SciTegic.value.DoubleValue
0.354

@<SCITEGIC>MOL_PROPERTY
VdW
SciTegic.value.DoubleValue
1.159

@<SCITEGIC>MOL_PROPERTY
VdW6
SciTegic.value.DoubleValue
-8.703

@<SCITEGIC>MOL_PROPERTY
VdW12
SciTegic.value.DoubleValue
9.862

@<SCITEGIC>MOL_PROPERTY
Bond
SciTegic.value.DoubleValue
0.227

@<SCITEGIC>MOL_PROPERTY
Angle
SciTegic.value.DoubleValue
3.805

@<SCITEGIC>MOL_PROPERTY
Pdih
SciTegic.value.DoubleValue
5.927

@<SCITEGIC>MOL_PROPERTY
Idih
SciTegic.value.DoubleValue
0.004

@<SCITEGIC>MOL_PROPERTY
Tether
SciTegic.value.DoubleValue
0.000

@<TRIPOS>MOLECULE
guest-s22_vm2.mol2 : vm2 ligand conformer 54
          20          19           1
SMALL
USER_CHARGES
 
@<TRIPOS>ATOM
       1    C1      18.744806   18.677512   19.264050 C.2        1 MOL1        -0.2535
       2    H1      18.703902   18.669981   18.176169 H          1 MOL1         0.0845
       3    H2      17.996457   18.093818   19.797873 H          1 MOL1         0.0845
       4    C2      19.679366   19.375124   19.914940 C.2        1 MOL1        -0.1324
       5    H3      20.419586   19.952982   19.362010 H          1 MOL1         0.0833
       6    C3      19.797253   19.434389   21.421906 C.3        1 MOL1        -0.1813
       7    H4      18.872083   19.063729   21.880550 H          1 MOL1         0.0753
       8    H5      19.914217   20.478662   21.741141 H          1 MOL1         0.0753
       9    C4      20.999282   18.600593   21.918031 C.3        1 MOL1        -0.1855
      10    H6      20.826415   17.538917   21.694536 H          1 MOL1         0.0755
      11    H7      21.889848   18.894237   21.345497 H          1 MOL1         0.0755
      12    C5      21.313713   18.775016   23.424761 C.3        1 MOL1        -0.1855
      13    H8      21.496626   19.834630   23.651411 H          1 MOL1         0.0755
      14    H9      22.258685   18.254743   23.631663 H          1 MOL1         0.0755
      15    C6      20.232444   18.206298   24.386211 C.3        1 MOL1        -0.1958
      16    H10     19.899580   17.219526   24.042268 H          1 MOL1         0.0753
      17    H11     20.677568   18.059443   25.377053 H          1 MOL1         0.0753
      18    C7      19.009839   19.098329   24.592546 C.2        1 MOL1         0.6174
      19    O1      19.181702   20.223005   25.020571 O.co2      1 MOL1        -0.6695
      20    O2      17.912596   18.627734   24.364984 O.co2      1 MOL1        -0.6695
@<TRIPOS>BOND
    1     1     2    1
    2     1     3    1
    3     1     4    2
    4     4     5    1
    5     4     6    1
    6     6     7    1
    7     6     8    1
    8     6     9    1
    9     9    10    1
   10     9    11    1
   11     9    12    1
   12    12    13    1
   13    12    14    1
   14    12    15    1
   15    15    16    1
   16    15    17    1
   17    15    18    1
   18    18    19    1
   19    18    20    2
@<TRIPOS>SUBSTRUCTURE
       1 MOL1            1 RESIDUE      1      MOL     
@<SCITEGIC>MOL_PROPERTY
VM2 Rank
SciTegic.value.IntegerValue
54

@<SCITEGIC>MOL_PROPERTY
Conf_Id
SciTegic.value.IntegerValue
495

@<SCITEGIC>MOL_PROPERTY
Probability
SciTegic.value.DoubleValue
0.03

@<SCITEGIC>MOL_PROPERTY
Sum Probability
SciTegic.value.DoubleValue
99.93

@<SCITEGIC>MOL_PROPERTY
Delta G
SciTegic.value.DoubleValue
3.749

@<SCITEGIC>MOL_PROPERTY
G
SciTegic.value.DoubleValue
-18.139

@<SCITEGIC>MOL_PROPERTY
E
SciTegic.value.DoubleValue
-33.654

@<SCITEGIC>MOL_PROPERTY
-TS
SciTegic.value.DoubleValue
15.514

@<SCITEGIC>MOL_PROPERTY
U+W
SciTegic.value.DoubleValue
-49.750

@<SCITEGIC>MOL_PROPERTY
U
SciTegic.value.DoubleValue
12.063

@<SCITEGIC>MOL_PROPERTY
W
SciTegic.value.DoubleValue
-61.813

@<SCITEGIC>MOL_PROPERTY
W(PB)
SciTegic.value.DoubleValue
-64.015

@<SCITEGIC>MOL_PROPERTY
W(SA)
SciTegic.value.DoubleValue
2.202

@<SCITEGIC>MOL_PROPERTY
Valence
SciTegic.value.DoubleValue
10.981

@<SCITEGIC>MOL_PROPERTY
Coulomb
SciTegic.value.DoubleValue
0.680

@<SCITEGIC>MOL_PROPERTY
VdW
SciTegic.value.DoubleValue
0.402

@<SCITEGIC>MOL_PROPERTY
VdW6
SciTegic.value.DoubleValue
-8.075

@<SCITEGIC>MOL_PROPERTY
VdW12
SciTegic.value.DoubleValue
8.477

@<SCITEGIC>MOL_PROPERTY
Bond
SciTegic.value.DoubleValue
0.169

@<SCITEGIC>MOL_PROPERTY
Angle
SciTegic.value.DoubleValue
3.169

@<SCITEGIC>MOL_PROPERTY
Pdih
SciTegic.value.DoubleValue
7.638

@<SCITEGIC>MOL_PROPERTY
Idih
SciTegic.value.DoubleValue
0.005

@<SCITEGIC>MOL_PROPERTY
Tether
SciTegic.value.DoubleValue
0.000

@<TRIPOS>MOLECULE
guest-s22_vm2.mol2 : vm2 ligand conformer 55
          20          19           1
SMALL
USER_CHARGES
 
@<TRIPOS>ATOM
       1    C1      20.212578   17.570863   19.479427 C.2        1 MOL1        -0.2535
       2    H1      20.416159   17.378650   18.427371 H          1 MOL1         0.0845
       3    H2      19.754203   16.768882   20.055976 H          1 MOL1         0.0845
       4    C2      20.512683   18.746756   20.037044 C.2        1 MOL1        -0.1324
       5    H3      20.970950   19.536779   19.442543 H          1 MOL1         0.0833
       6    C3      20.260908   19.085105   21.489796 C.3        1 MOL1        -0.1813
       7    H4      21.162266   19.538294   21.923697 H          1 MOL1         0.0753
       8    H5      20.063826   18.165846   22.055304 H          1 MOL1         0.0753
       9    C4      19.068409   20.056216   21.635123 C.3        1 MOL1        -0.1855
      10    H6      19.222442   20.904898   20.954579 H          1 MOL1         0.0755
      11    H7      18.147351   19.558433   21.302176 H          1 MOL1         0.0755
      12    C5      18.875086   20.613661   23.067396 C.3        1 MOL1        -0.1855
      13    H8      18.099812   21.390429   23.022180 H          1 MOL1         0.0755
      14    H9      19.791120   21.120551   23.401391 H          1 MOL1         0.0755
      15    C6      18.437340   19.559848   24.123251 C.3        1 MOL1        -0.1958
      16    H10     18.000760   20.077975   24.984884 H          1 MOL1         0.0753
      17    H11     17.650591   18.915272   23.712930 H          1 MOL1         0.0753
      18    C7      19.560587   18.683019   24.673294 C.2        1 MOL1         0.6174
      19    O1      20.504283   19.225857   25.214036 O.co2      1 MOL1        -0.6695
      20    O2      19.439126   17.476675   24.588632 O.co2      1 MOL1        -0.6695
@<TRIPOS>BOND
    1     1     2    1
    2     1     3    1
    3     1     4    2
    4     4     5    1
    5     4     6    1
    6     6     7    1
    7     6     8    1
    8     6     9    1
    9     9    10    1
   10     9    11    1
   11     9    12    1
   12    12    13    1
   13    12    14    1
   14    12    15    1
   15    15    16    1
   16    15    17    1
   17    15    18    1
   18    18    19    1
   19    18    20    2
@<TRIPOS>SUBSTRUCTURE
       1 MOL1            1 RESIDUE      1      MOL     
@<SCITEGIC>MOL_PROPERTY
VM2 Rank
SciTegic.value.IntegerValue
55

@<SCITEGIC>MOL_PROPERTY
Conf_Id
SciTegic.value.IntegerValue
539

@<SCITEGIC>MOL_PROPERTY
Probability
SciTegic.value.DoubleValue
0.03

@<SCITEGIC>MOL_PROPERTY
Sum Probability
SciTegic.value.DoubleValue
99.96

@<SCITEGIC>MOL_PROPERTY
Delta G
SciTegic.value.DoubleValue
3.754

@<SCITEGIC>MOL_PROPERTY
G
SciTegic.value.DoubleValue
-18.134

@<SCITEGIC>MOL_PROPERTY
E
SciTegic.value.DoubleValue
-33.648

@<SCITEGIC>MOL_PROPERTY
-TS
SciTegic.value.DoubleValue
15.514

@<SCITEGIC>MOL_PROPERTY
U+W
SciTegic.value.DoubleValue
-49.745

@<SCITEGIC>MOL_PROPERTY
U
SciTegic.value.DoubleValue
12.064

@<SCITEGIC>MOL_PROPERTY
W
SciTegic.value.DoubleValue
-61.809

@<SCITEGIC>MOL_PROPERTY
W(PB)
SciTegic.value.DoubleValue
-63.985

@<SCITEGIC>MOL_PROPERTY
W(SA)
SciTegic.value.DoubleValue
2.176

@<SCITEGIC>MOL_PROPERTY
Valence
SciTegic.value.DoubleValue
10.980

@<SCITEGIC>MOL_PROPERTY
Coulomb
SciTegic.value.DoubleValue
0.682

@<SCITEGIC>MOL_PROPERTY
VdW
SciTegic.value.DoubleValue
0.402

@<SCITEGIC>MOL_PROPERTY
VdW6
SciTegic.value.DoubleValue
-8.075

@<SCITEGIC>MOL_PROPERTY
VdW12
SciTegic.value.DoubleValue
8.477

@<SCITEGIC>MOL_PROPERTY
Bond
SciTegic.value.DoubleValue
0.169

@<SCITEGIC>MOL_PROPERTY
Angle
SciTegic.value.DoubleValue
3.169

@<SCITEGIC>MOL_PROPERTY
Pdih
SciTegic.value.DoubleValue
7.637

@<SCITEGIC>MOL_PROPERTY
Idih
SciTegic.value.DoubleValue
0.005

@<SCITEGIC>MOL_PROPERTY
Tether
SciTegic.value.DoubleValue
0.000

@<TRIPOS>MOLECULE
guest-s22_vm2.mol2 : vm2 ligand conformer 56
          20          19           1
SMALL
USER_CHARGES
 
@<TRIPOS>ATOM
       1    C1      19.597345   18.610901   19.262413 C.2        1 MOL1        -0.2535
       2    H1      19.050441   18.752524   18.331948 H          1 MOL1         0.0845
       3    H2      19.831489   17.587359   19.546734 H          1 MOL1         0.0845
       4    C2      19.963654   19.658661   20.008517 C.2        1 MOL1        -0.1324
       5    H3      19.706276   20.664074   19.676547 H          1 MOL1         0.0833
       6    C3      20.721067   19.607569   21.325179 C.3        1 MOL1        -0.1813
       7    H4      20.393450   20.442146   21.958212 H          1 MOL1         0.0753
       8    H5      21.782700   19.806530   21.128326 H          1 MOL1         0.0753
       9    C4      20.590365   18.288666   22.130897 C.3        1 MOL1        -0.1855
      10    H6      20.987826   17.456281   21.535512 H          1 MOL1         0.0755
      11    H7      21.238498   18.353955   23.015488 H          1 MOL1         0.0755
      12    C5      19.148267   17.947758   22.590235 C.3        1 MOL1        -0.1855
      13    H8      19.165111   16.981735   23.113237 H          1 MOL1         0.0755
      14    H9      18.504586   17.807106   21.712482 H          1 MOL1         0.0755
      15    C6      18.502091   19.007258   23.524175 C.3        1 MOL1        -0.1958
      16    H10     18.394594   19.965718   23.003793 H          1 MOL1         0.0753
      17    H11     17.489003   18.685094   23.791436 H          1 MOL1         0.0753
      18    C7      19.263386   19.239069   24.826143 C.2        1 MOL1         0.6174
      19    O1      19.866718   20.285249   24.962737 O.co2      1 MOL1        -0.6695
      20    O2      19.218107   18.372869   25.677703 O.co2      1 MOL1        -0.6695
@<TRIPOS>BOND
    1     1     2    1
    2     1     3    1
    3     1     4    2
    4     4     5    1
    5     4     6    1
    6     6     7    1
    7     6     8    1
    8     6     9    1
    9     9    10    1
   10     9    11    1
   11     9    12    1
   12    12    13    1
   13    12    14    1
   14    12    15    1
   15    15    16    1
   16    15    17    1
   17    15    18    1
   18    18    19    1
   19    18    20    2
@<TRIPOS>SUBSTRUCTURE
       1 MOL1            1 RESIDUE      1      MOL     
@<SCITEGIC>MOL_PROPERTY
VM2 Rank
SciTegic.value.IntegerValue
56

@<SCITEGIC>MOL_PROPERTY
Conf_Id
SciTegic.value.IntegerValue
361

@<SCITEGIC>MOL_PROPERTY
Probability
SciTegic.value.DoubleValue
0.02

@<SCITEGIC>MOL_PROPERTY
Sum Probability
SciTegic.value.DoubleValue
99.98

@<SCITEGIC>MOL_PROPERTY
Delta G
SciTegic.value.DoubleValue
3.813

@<SCITEGIC>MOL_PROPERTY
G
SciTegic.value.DoubleValue
-18.076

@<SCITEGIC>MOL_PROPERTY
E
SciTegic.value.DoubleValue
-33.933

@<SCITEGIC>MOL_PROPERTY
-TS
SciTegic.value.DoubleValue
15.857

@<SCITEGIC>MOL_PROPERTY
U+W
SciTegic.value.DoubleValue
-50.029

@<SCITEGIC>MOL_PROPERTY
U
SciTegic.value.DoubleValue
11.092

@<SCITEGIC>MOL_PROPERTY
W
SciTegic.value.DoubleValue
-61.121

@<SCITEGIC>MOL_PROPERTY
W(PB)
SciTegic.value.DoubleValue
-63.254

@<SCITEGIC>MOL_PROPERTY
W(SA)
SciTegic.value.DoubleValue
2.133

@<SCITEGIC>MOL_PROPERTY
Valence
SciTegic.value.DoubleValue
9.664

@<SCITEGIC>MOL_PROPERTY
Coulomb
SciTegic.value.DoubleValue
0.659

@<SCITEGIC>MOL_PROPERTY
VdW
SciTegic.value.DoubleValue
0.769

@<SCITEGIC>MOL_PROPERTY
VdW6
SciTegic.value.DoubleValue
-9.171

@<SCITEGIC>MOL_PROPERTY
VdW12
SciTegic.value.DoubleValue
9.940

@<SCITEGIC>MOL_PROPERTY
Bond
SciTegic.value.DoubleValue
0.244

@<SCITEGIC>MOL_PROPERTY
Angle
SciTegic.value.DoubleValue
3.657

@<SCITEGIC>MOL_PROPERTY
Pdih
SciTegic.value.DoubleValue
5.762

@<SCITEGIC>MOL_PROPERTY
Idih
SciTegic.value.DoubleValue
0.001

@<SCITEGIC>MOL_PROPERTY
Tether
SciTegic.value.DoubleValue
0.000

@<TRIPOS>MOLECULE
guest-s22_vm2.mol2 : vm2 ligand conformer 57
          20          19           1
SMALL
USER_CHARGES
 
@<TRIPOS>ATOM
       1    C1      21.503780   18.319469   20.342406 C.2        1 MOL1        -0.2535
       2    H1      22.127236   19.207868   20.256500 H          1 MOL1         0.0845
       3    H2      22.004286   17.352812   20.335792 H          1 MOL1         0.0845
       4    C2      20.176365   18.408811   20.458366 C.2        1 MOL1        -0.1324
       5    H3      19.568859   17.507914   20.537078 H          1 MOL1         0.0833
       6    C3      19.412951   19.714527   20.464107 C.3        1 MOL1        -0.1813
       7    H4      18.465942   19.594305   19.921366 H          1 MOL1         0.0753
       8    H5      19.984875   20.469368   19.907695 H          1 MOL1         0.0753
       9    C4      19.135397   20.263176   21.885236 C.3        1 MOL1        -0.1855
      10    H6      20.080335   20.392084   22.430787 H          1 MOL1         0.0755
      11    H7      18.712872   21.271011   21.773809 H          1 MOL1         0.0755
      12    C5      18.136850   19.415840   22.715981 C.3        1 MOL1        -0.1855
      13    H8      17.364498   19.001418   22.054248 H          1 MOL1         0.0755
      14    H9      17.610344   20.078401   23.416993 H          1 MOL1         0.0755
      15    C6      18.792354   18.271372   23.537325 C.3        1 MOL1        -0.1958
      16    H10     18.006697   17.651805   23.985003 H          1 MOL1         0.0753
      17    H11     19.381698   17.610941   22.893629 H          1 MOL1         0.0753
      18    C7      19.682580   18.758901   24.677594 C.2        1 MOL1         0.6174
      19    O1      20.884093   18.605182   24.580546 O.co2      1 MOL1        -0.6695
      20    O2      19.146630   19.260723   25.646438 O.co2      1 MOL1        -0.6695
@<TRIPOS>BOND
    1     1     2    1
    2     1     3    1
    3     1     4    2
    4     4     5    1
    5     4     6    1
    6     6     7    1
    7     6     8    1
    8     6     9    1
    9     9    10    1
   10     9    11    1
   11     9    12    1
   12    12    13    1
   13    12    14    1
   14    12    15    1
   15    15    16    1
   16    15    17    1
   17    15    18    1
   18    18    19    1
   19    18    20    2
@<TRIPOS>SUBSTRUCTURE
       1 MOL1            1 RESIDUE      1      MOL     
@<SCITEGIC>MOL_PROPERTY
VM2 Rank
SciTegic.value.IntegerValue
57

@<SCITEGIC>MOL_PROPERTY
Conf_Id
SciTegic.value.IntegerValue
466

@<SCITEGIC>MOL_PROPERTY
Probability
SciTegic.value.DoubleValue
0.00

@<SCITEGIC>MOL_PROPERTY
Sum Probability
SciTegic.value.DoubleValue
99.99

@<SCITEGIC>MOL_PROPERTY
Delta G
SciTegic.value.DoubleValue
4.997

@<SCITEGIC>MOL_PROPERTY
G
SciTegic.value.DoubleValue
-16.892

@<SCITEGIC>MOL_PROPERTY
E
SciTegic.value.DoubleValue
-32.107

@<SCITEGIC>MOL_PROPERTY
-TS
SciTegic.value.DoubleValue
15.215

@<SCITEGIC>MOL_PROPERTY
U+W
SciTegic.value.DoubleValue
-48.203

@<SCITEGIC>MOL_PROPERTY
U
SciTegic.value.DoubleValue
14.187

@<SCITEGIC>MOL_PROPERTY
W
SciTegic.value.DoubleValue
-62.390

@<SCITEGIC>MOL_PROPERTY
W(PB)
SciTegic.value.DoubleValue
-64.531

@<SCITEGIC>MOL_PROPERTY
W(SA)
SciTegic.value.DoubleValue
2.142

@<SCITEGIC>MOL_PROPERTY
Valence
SciTegic.value.DoubleValue
11.819

@<SCITEGIC>MOL_PROPERTY
Coulomb
SciTegic.value.DoubleValue
2.084

@<SCITEGIC>MOL_PROPERTY
VdW
SciTegic.value.DoubleValue
0.283

@<SCITEGIC>MOL_PROPERTY
VdW6
SciTegic.value.DoubleValue
-8.250

@<SCITEGIC>MOL_PROPERTY
VdW12
SciTegic.value.DoubleValue
8.533

@<SCITEGIC>MOL_PROPERTY
Bond
SciTegic.value.DoubleValue
0.194

@<SCITEGIC>MOL_PROPERTY
Angle
SciTegic.value.DoubleValue
3.125

@<SCITEGIC>MOL_PROPERTY
Pdih
SciTegic.value.DoubleValue
8.498

@<SCITEGIC>MOL_PROPERTY
Idih
SciTegic.value.DoubleValue
0.002

@<SCITEGIC>MOL_PROPERTY
Tether
SciTegic.value.DoubleValue
0.000

@<TRIPOS>MOLECULE
guest-s22_vm2.mol2 : vm2 ligand conformer 58
          20          19           1
SMALL
USER_CHARGES
 
@<TRIPOS>ATOM
       1    C1      19.082691   17.588701   20.029080 C.2        1 MOL1        -0.2535
       2    H1      18.116332   17.997062   19.738008 H          1 MOL1         0.0845
       3    H2      19.208155   16.508800   19.973876 H          1 MOL1         0.0845
       4    C2      20.075846   18.378726   20.444967 C.2        1 MOL1        -0.1324
       5    H3      21.037844   17.951725   20.726228 H          1 MOL1         0.0833
       6    C3      19.977484   19.885249   20.536851 C.3        1 MOL1        -0.1813
       7    H4      19.234776   20.243356   19.811164 H          1 MOL1         0.0753
       8    H5      20.932013   20.339313   20.239283 H          1 MOL1         0.0753
       9    C4      19.571366   20.394612   21.941583 C.3        1 MOL1        -0.1855
      10    H6      19.388571   21.474816   21.861446 H          1 MOL1         0.0755
      11    H7      18.612925   19.949050   22.241619 H          1 MOL1         0.0755
      12    C5      20.644118   20.171858   23.039215 C.3        1 MOL1        -0.1855
      13    H8      20.544495   20.963112   23.795262 H          1 MOL1         0.0755
      14    H9      21.646132   20.292497   22.606111 H          1 MOL1         0.0755
      15    C6      20.547981   18.800701   23.763635 C.3        1 MOL1        -0.1958
      16    H10     20.582142   17.973001   23.048376 H          1 MOL1         0.0753
      17    H11     21.414446   18.679092   24.423930 H          1 MOL1         0.0753
      18    C7      19.300026   18.643566   24.628685 C.2        1 MOL1         0.6174
      19    O1      19.233796   19.286473   25.658253 O.co2      1 MOL1        -0.6695
      20    O2      18.437691   17.868114   24.265731 O.co2      1 MOL1        -0.6695
@<TRIPOS>BOND
    1     1     2    1
    2     1     3    1
    3     1     4    2
    4     4     5    1
    5     4     6    1
    6     6     7    1
    7     6     8    1
    8     6     9    1
    9     9    10    1
   10     9    11    1
   11     9    12    1
   12    12    13    1
   13    12    14    1
   14    12    15    1
   15    15    16    1
   16    15    17    1
   17    15    18    1
   18    18    19    1
   19    18    20    2
@<TRIPOS>SUBSTRUCTURE
       1 MOL1            1 RESIDUE      1      MOL     
@<SCITEGIC>MOL_PROPERTY
VM2 Rank
SciTegic.value.IntegerValue
58

@<SCITEGIC>MOL_PROPERTY
Conf_Id
SciTegic.value.IntegerValue
469

@<SCITEGIC>MOL_PROPERTY
Probability
SciTegic.value.DoubleValue
0.00

@<SCITEGIC>MOL_PROPERTY
Sum Probability
SciTegic.value.DoubleValue
99.99

@<SCITEGIC>MOL_PROPERTY
Delta G
SciTegic.value.DoubleValue
5.013

@<SCITEGIC>MOL_PROPERTY
G
SciTegic.value.DoubleValue
-16.876

@<SCITEGIC>MOL_PROPERTY
E
SciTegic.value.DoubleValue
-32.092

@<SCITEGIC>MOL_PROPERTY
-TS
SciTegic.value.DoubleValue
15.216

@<SCITEGIC>MOL_PROPERTY
U+W
SciTegic.value.DoubleValue
-48.189

@<SCITEGIC>MOL_PROPERTY
U
SciTegic.value.DoubleValue
14.184

@<SCITEGIC>MOL_PROPERTY
W
SciTegic.value.DoubleValue
-62.372

@<SCITEGIC>MOL_PROPERTY
W(PB)
SciTegic.value.DoubleValue
-64.522

@<SCITEGIC>MOL_PROPERTY
W(SA)
SciTegic.value.DoubleValue
2.150

@<SCITEGIC>MOL_PROPERTY
Valence
SciTegic.value.DoubleValue
11.820

@<SCITEGIC>MOL_PROPERTY
Coulomb
SciTegic.value.DoubleValue
2.080

@<SCITEGIC>MOL_PROPERTY
VdW
SciTegic.value.DoubleValue
0.284

@<SCITEGIC>MOL_PROPERTY
VdW6
SciTegic.value.DoubleValue
-8.249

@<SCITEGIC>MOL_PROPERTY
VdW12
SciTegic.value.DoubleValue
8.533

@<SCITEGIC>MOL_PROPERTY
Bond
SciTegic.value.DoubleValue
0.194

@<SCITEGIC>MOL_PROPERTY
Angle
SciTegic.value.DoubleValue
3.124

@<SCITEGIC>MOL_PROPERTY
Pdih
SciTegic.value.DoubleValue
8.500

@<SCITEGIC>MOL_PROPERTY
Idih
SciTegic.value.DoubleValue
0.002

@<SCITEGIC>MOL_PROPERTY
Tether
SciTegic.value.DoubleValue
0.000

@<TRIPOS>MOLECULE
guest-s22_vm2.mol2 : vm2 ligand conformer 59
          20          19           1
SMALL
USER_CHARGES
 
@<TRIPOS>ATOM
       1    C1      20.554717   17.849068   19.696579 C.2        1 MOL1        -0.2535
       2    H1      21.399576   17.178915   19.547571 H          1 MOL1         0.0845
       3    H2      20.089350   18.274371   18.808912 H          1 MOL1         0.0845
       4    C2      20.111378   18.138235   20.922832 C.2        1 MOL1        -0.1324
       5    H3      20.589238   17.699593   21.798834 H          1 MOL1         0.0833
       6    C3      18.940506   19.054530   21.207249 C.3        1 MOL1        -0.1813
       7    H4      18.294706   18.613416   21.975986 H          1 MOL1         0.0753
       8    H5      18.315321   19.142530   20.308605 H          1 MOL1         0.0753
       9    C4      19.389375   20.472690   21.631789 C.3        1 MOL1        -0.1855
      10    H6      19.958292   20.917316   20.803730 H          1 MOL1         0.0755
      11    H7      18.501208   21.105436   21.763503 H          1 MOL1         0.0755
      12    C5      20.256234   20.538378   22.916190 C.3        1 MOL1        -0.1855
      13    H8      20.607545   21.573177   23.025972 H          1 MOL1         0.0755
      14    H9      21.161709   19.927202   22.800374 H          1 MOL1         0.0755
      15    C6      19.513168   20.146076   24.224142 C.3        1 MOL1        -0.1958
      16    H10     20.054492   20.564638   25.080482 H          1 MOL1         0.0753
      17    H11     18.510203   20.589315   24.240313 H          1 MOL1         0.0753
      18    C7      19.397631   18.645188   24.481946 C.2        1 MOL1         0.6174
      19    O1      20.421658   18.004796   24.619656 O.co2      1 MOL1        -0.6695
      20    O2      18.286333   18.169040   24.607616 O.co2      1 MOL1        -0.6695
@<TRIPOS>BOND
    1     1     2    1
    2     1     3    1
    3     1     4    2
    4     4     5    1
    5     4     6    1
    6     6     7    1
    7     6     8    1
    8     6     9    1
    9     9    10    1
   10     9    11    1
   11     9    12    1
   12    12    13    1
   13    12    14    1
   14    12    15    1
   15    15    16    1
   16    15    17    1
   17    15    18    1
   18    18    19    1
   19    18    20    2
@<TRIPOS>SUBSTRUCTURE
       1 MOL1            1 RESIDUE      1      MOL     
@<SCITEGIC>MOL_PROPERTY
VM2 Rank
SciTegic.value.IntegerValue
59

@<SCITEGIC>MOL_PROPERTY
Conf_Id
SciTegic.value.IntegerValue
553

@<SCITEGIC>MOL_PROPERTY
Probability
SciTegic.value.DoubleValue
0.00

@<SCITEGIC>MOL_PROPERTY
Sum Probability
SciTegic.value.DoubleValue
99.99

@<SCITEGIC>MOL_PROPERTY
Delta G
SciTegic.value.DoubleValue
5.029

@<SCITEGIC>MOL_PROPERTY
G
SciTegic.value.DoubleValue
-16.860

@<SCITEGIC>MOL_PROPERTY
E
SciTegic.value.DoubleValue
-33.012

@<SCITEGIC>MOL_PROPERTY
-TS
SciTegic.value.DoubleValue
16.152

@<SCITEGIC>MOL_PROPERTY
U+W
SciTegic.value.DoubleValue
-49.109

@<SCITEGIC>MOL_PROPERTY
U
SciTegic.value.DoubleValue
13.083

@<SCITEGIC>MOL_PROPERTY
W
SciTegic.value.DoubleValue
-62.192

@<SCITEGIC>MOL_PROPERTY
W(PB)
SciTegic.value.DoubleValue
-64.314

@<SCITEGIC>MOL_PROPERTY
W(SA)
SciTegic.value.DoubleValue
2.122

@<SCITEGIC>MOL_PROPERTY
Valence
SciTegic.value.DoubleValue
11.308

@<SCITEGIC>MOL_PROPERTY
Coulomb
SciTegic.value.DoubleValue
1.656

@<SCITEGIC>MOL_PROPERTY
VdW
SciTegic.value.DoubleValue
0.119

@<SCITEGIC>MOL_PROPERTY
VdW6
SciTegic.value.DoubleValue
-9.164

@<SCITEGIC>MOL_PROPERTY
VdW12
SciTegic.value.DoubleValue
9.283

@<SCITEGIC>MOL_PROPERTY
Bond
SciTegic.value.DoubleValue
0.195

@<SCITEGIC>MOL_PROPERTY
Angle
SciTegic.value.DoubleValue
3.446

@<SCITEGIC>MOL_PROPERTY
Pdih
SciTegic.value.DoubleValue
7.656

@<SCITEGIC>MOL_PROPERTY
Idih
SciTegic.value.DoubleValue
0.011

@<SCITEGIC>MOL_PROPERTY
Tether
SciTegic.value.DoubleValue
0.000

@<TRIPOS>MOLECULE
guest-s22_vm2.mol2 : vm2 ligand conformer 60
          20          19           1
SMALL
USER_CHARGES
 
@<TRIPOS>ATOM
       1    C1      20.252607   17.758044   19.657520 C.2        1 MOL1        -0.2535
       2    H1      20.602917   18.429263   18.875119 H          1 MOL1         0.0845
       3    H2      19.971328   16.748420   19.363179 H          1 MOL1         0.0845
       4    C2      20.166739   18.154928   20.929911 C.2        1 MOL1        -0.1324
       5    H3      19.816449   17.466546   21.699042 H          1 MOL1         0.0833
       6    C3      20.545312   19.538215   21.414291 C.3        1 MOL1        -0.1813
       7    H4      21.210607   20.015212   20.682159 H          1 MOL1         0.0753
       8    H5      21.126751   19.466958   22.341354 H          1 MOL1         0.0753
       9    C4      19.312752   20.449574   21.621949 C.3        1 MOL1        -0.1855
      10    H6      19.653422   21.452690   21.912220 H          1 MOL1         0.0755
      11    H7      18.805165   20.569770   20.655020 H          1 MOL1         0.0755
      12    C5      18.279183   19.942429   22.661171 C.3        1 MOL1        -0.1855
      13    H8      17.909153   18.946787   22.380800 H          1 MOL1         0.0755
      14    H9      17.407223   20.608508   22.613140 H          1 MOL1         0.0755
      15    C6      18.786815   19.927117   24.130478 C.3        1 MOL1        -0.1958
      16    H10     19.349976   20.842474   24.348725 H          1 MOL1         0.0753
      17    H11     17.923235   19.922133   24.805569 H          1 MOL1         0.0753
      18    C7      19.636914   18.717314   24.512820 C.2        1 MOL1         0.6174
      19    O1      20.762322   18.915541   24.927135 O.co2      1 MOL1        -0.6695
      20    O2      19.128356   17.614838   24.452725 O.co2      1 MOL1        -0.6695
@<TRIPOS>BOND
    1     1     2    1
    2     1     3    1
    3     1     4    2
    4     4     5    1
    5     4     6    1
    6     6     7    1
    7     6     8    1
    8     6     9    1
    9     9    10    1
   10     9    11    1
   11     9    12    1
   12    12    13    1
   13    12    14    1
   14    12    15    1
   15    15    16    1
   16    15    17    1
   17    15    18    1
   18    18    19    1
   19    18    20    2
@<TRIPOS>SUBSTRUCTURE
       1 MOL1            1 RESIDUE      1      MOL     
@<SCITEGIC>MOL_PROPERTY
VM2 Rank
SciTegic.value.IntegerValue
60

@<SCITEGIC>MOL_PROPERTY
Conf_Id
SciTegic.value.IntegerValue
554

@<SCITEGIC>MOL_PROPERTY
Probability
SciTegic.value.DoubleValue
0.00

@<SCITEGIC>MOL_PROPERTY
Sum Probability
SciTegic.value.DoubleValue
99.99

@<SCITEGIC>MOL_PROPERTY
Delta G
SciTegic.value.DoubleValue
5.106

@<SCITEGIC>MOL_PROPERTY
G
SciTegic.value.DoubleValue
-16.782

@<SCITEGIC>MOL_PROPERTY
E
SciTegic.value.DoubleValue
-32.935

@<SCITEGIC>MOL_PROPERTY
-TS
SciTegic.value.DoubleValue
16.153

@<SCITEGIC>MOL_PROPERTY
U+W
SciTegic.value.DoubleValue
-49.031

@<SCITEGIC>MOL_PROPERTY
U
SciTegic.value.DoubleValue
13.083

@<SCITEGIC>MOL_PROPERTY
W
SciTegic.value.DoubleValue
-62.115

@<SCITEGIC>MOL_PROPERTY
W(PB)
SciTegic.value.DoubleValue
-64.211

@<SCITEGIC>MOL_PROPERTY
W(SA)
SciTegic.value.DoubleValue
2.096

@<SCITEGIC>MOL_PROPERTY
Valence
SciTegic.value.DoubleValue
11.308

@<SCITEGIC>MOL_PROPERTY
Coulomb
SciTegic.value.DoubleValue
1.656

@<SCITEGIC>MOL_PROPERTY
VdW
SciTegic.value.DoubleValue
0.119

@<SCITEGIC>MOL_PROPERTY
VdW6
SciTegic.value.DoubleValue
-9.164

@<SCITEGIC>MOL_PROPERTY
VdW12
SciTegic.value.DoubleValue
9.283

@<SCITEGIC>MOL_PROPERTY
Bond
SciTegic.value.DoubleValue
0.195

@<SCITEGIC>MOL_PROPERTY
Angle
SciTegic.value.DoubleValue
3.446

@<SCITEGIC>MOL_PROPERTY
Pdih
SciTegic.value.DoubleValue
7.656

@<SCITEGIC>MOL_PROPERTY
Idih
SciTegic.value.DoubleValue
0.011

@<SCITEGIC>MOL_PROPERTY
Tether
SciTegic.value.DoubleValue
0.000

@<TRIPOS>MOLECULE
guest-s22_vm2.mol2 : vm2 ligand conformer 61
          20          19           1
SMALL
USER_CHARGES
 
@<TRIPOS>ATOM
       1    C1      21.139440   17.935391   20.328118 C.2        1 MOL1        -0.2535
       2    H1      22.120901   17.516480   20.543135 H          1 MOL1         0.0845
       3    H2      20.471525   17.350198   19.698308 H          1 MOL1         0.0845
       4    C2      20.772051   19.120369   20.823596 C.2        1 MOL1        -0.1324
       5    H3      21.453725   19.686023   21.458737 H          1 MOL1         0.0833
       6    C3      19.423475   19.761381   20.577834 C.3        1 MOL1        -0.1813
       7    H4      18.795768   19.121610   19.943071 H          1 MOL1         0.0753
       8    H5      19.583224   20.690532   20.014921 H          1 MOL1         0.0753
       9    C4      18.662374   20.117345   21.878877 C.3        1 MOL1        -0.1855
      10    H6      19.310096   20.699838   22.548250 H          1 MOL1         0.0755
      11    H7      17.835973   20.787528   21.605666 H          1 MOL1         0.0755
      12    C5      18.054048   18.905048   22.631133 C.3        1 MOL1        -0.1855
      13    H8      17.538663   18.251167   21.914953 H          1 MOL1         0.0755
      14    H9      17.279353   19.274915   23.317032 H          1 MOL1         0.0755
      15    C6      19.067763   18.068662   23.459356 C.3        1 MOL1        -0.1958
      16    H10     18.544777   17.223501   23.921553 H          1 MOL1         0.0753
      17    H11     19.839148   17.636353   22.814868 H          1 MOL1         0.0753
      18    C7      19.746625   18.846658   24.583513 C.2        1 MOL1         0.6174
      19    O1      20.924668   19.122380   24.468550 O.co2      1 MOL1        -0.6695
      20    O2      19.080556   19.140766   25.557023 O.co2      1 MOL1        -0.6695
@<TRIPOS>BOND
    1     1     2    1
    2     1     3    1
    3     1     4    2
    4     4     5    1
    5     4     6    1
    6     6     7    1
    7     6     8    1
    8     6     9    1
    9     9    10    1
   10     9    11    1
   11     9    12    1
   12    12    13    1
   13    12    14    1
   14    12    15    1
   15    15    16    1
   16    15    17    1
   17    15    18    1
   18    18    19    1
   19    18    20    2
@<TRIPOS>SUBSTRUCTURE
       1 MOL1            1 RESIDUE      1      MOL     
@<SCITEGIC>MOL_PROPERTY
VM2 Rank
SciTegic.value.IntegerValue
61

@<SCITEGIC>MOL_PROPERTY
Conf_Id
SciTegic.value.IntegerValue
303

@<SCITEGIC>MOL_PROPERTY
Probability
SciTegic.value.DoubleValue
0.00

@<SCITEGIC>MOL_PROPERTY
Sum Probability
SciTegic.value.DoubleValue
100.00

@<SCITEGIC>MOL_PROPERTY
Delta G
SciTegic.value.DoubleValue
5.330

@<SCITEGIC>MOL_PROPERTY
G
SciTegic.value.DoubleValue
-16.558

@<SCITEGIC>MOL_PROPERTY
E
SciTegic.value.DoubleValue
-32.230

@<SCITEGIC>MOL_PROPERTY
-TS
SciTegic.value.DoubleValue
15.672

@<SCITEGIC>MOL_PROPERTY
U+W
SciTegic.value.DoubleValue
-48.327

@<SCITEGIC>MOL_PROPERTY
U
SciTegic.value.DoubleValue
13.663

@<SCITEGIC>MOL_PROPERTY
W
SciTegic.value.DoubleValue
-61.990

@<SCITEGIC>MOL_PROPERTY
W(PB)
SciTegic.value.DoubleValue
-64.088

@<SCITEGIC>MOL_PROPERTY
W(SA)
SciTegic.value.DoubleValue
2.098

@<SCITEGIC>MOL_PROPERTY
Valence
SciTegic.value.DoubleValue
11.349

@<SCITEGIC>MOL_PROPERTY
Coulomb
SciTegic.value.DoubleValue
2.220

@<SCITEGIC>MOL_PROPERTY
VdW
SciTegic.value.DoubleValue
0.094

@<SCITEGIC>MOL_PROPERTY
VdW6
SciTegic.value.DoubleValue
-8.851

@<SCITEGIC>MOL_PROPERTY
VdW12
SciTegic.value.DoubleValue
8.944

@<SCITEGIC>MOL_PROPERTY
Bond
SciTegic.value.DoubleValue
0.196

@<SCITEGIC>MOL_PROPERTY
Angle
SciTegic.value.DoubleValue
3.357

@<SCITEGIC>MOL_PROPERTY
Pdih
SciTegic.value.DoubleValue
7.794

@<SCITEGIC>MOL_PROPERTY
Idih
SciTegic.value.DoubleValue
0.001

@<SCITEGIC>MOL_PROPERTY
Tether
SciTegic.value.DoubleValue
0.000

@<TRIPOS>MOLECULE
guest-s22_vm2.mol2 : vm2 ligand conformer 62
          20          19           1
SMALL
USER_CHARGES
 
@<TRIPOS>ATOM
       1    C1      19.586781   17.467366   20.128381 C.2        1 MOL1        -0.2535
       2    H1      20.590237   17.385668   19.714108 H          1 MOL1         0.0845
       3    H2      18.973576   16.567991   20.137960 H          1 MOL1         0.0845
       4    C2      19.122721   18.623312   20.611163 C.2        1 MOL1        -0.1324
       5    H3      18.117609   18.680787   21.028891 H          1 MOL1         0.0833
       6    C3      19.918183   19.910269   20.641711 C.3        1 MOL1        -0.1813
       7    H4      19.415062   20.639515   19.993036 H          1 MOL1         0.0753
       8    H5      20.920156   19.761357   20.217303 H          1 MOL1         0.0753
       9    C4      20.034701   20.531072   22.055827 C.3        1 MOL1        -0.1855
      10    H6      20.399583   21.560268   21.936063 H          1 MOL1         0.0755
      11    H7      19.039711   20.618578   22.513254 H          1 MOL1         0.0755
      12    C5      21.009522   19.796164   23.012511 C.3        1 MOL1        -0.1855
      13    H8      21.272442   20.478933   23.832334 H          1 MOL1         0.0755
      14    H9      21.947761   19.580557   22.484007 H          1 MOL1         0.0755
      15    C6      20.455054   18.486958   23.638334 C.3        1 MOL1        -0.1958
      16    H10     20.219252   17.750855   22.863841 H          1 MOL1         0.0753
      17    H11     21.228830   18.032896   24.268044 H          1 MOL1         0.0753
      18    C7      19.222331   18.688591   24.515600 C.2        1 MOL1         0.6174
      19    O1      19.371803   19.228824   25.594337 O.co2      1 MOL1        -0.6695
      20    O2      18.149905   18.285444   24.110137 O.co2      1 MOL1        -0.6695
@<TRIPOS>BOND
    1     1     2    1
    2     1     3    1
    3     1     4    2
    4     4     5    1
    5     4     6    1
    6     6     7    1
    7     6     8    1
    8     6     9    1
    9     9    10    1
   10     9    11    1
   11     9    12    1
   12    12    13    1
   13    12    14    1
   14    12    15    1
   15    15    16    1
   16    15    17    1
   17    15    18    1
   18    18    19    1
   19    18    20    2
@<TRIPOS>SUBSTRUCTURE
       1 MOL1            1 RESIDUE      1      MOL     
@<SCITEGIC>MOL_PROPERTY
VM2 Rank
SciTegic.value.IntegerValue
62

@<SCITEGIC>MOL_PROPERTY
Conf_Id
SciTegic.value.IntegerValue
538

@<SCITEGIC>MOL_PROPERTY
Probability
SciTegic.value.DoubleValue
0.00

@<SCITEGIC>MOL_PROPERTY
Sum Probability
SciTegic.value.DoubleValue
100.00

@<SCITEGIC>MOL_PROPERTY
Delta G
SciTegic.value.DoubleValue
5.352

@<SCITEGIC>MOL_PROPERTY
G
SciTegic.value.DoubleValue
-16.536

@<SCITEGIC>MOL_PROPERTY
E
SciTegic.value.DoubleValue
-32.208

@<SCITEGIC>MOL_PROPERTY
-TS
SciTegic.value.DoubleValue
15.672

@<SCITEGIC>MOL_PROPERTY
U+W
SciTegic.value.DoubleValue
-48.305

@<SCITEGIC>MOL_PROPERTY
U
SciTegic.value.DoubleValue
13.664

@<SCITEGIC>MOL_PROPERTY
W
SciTegic.value.DoubleValue
-61.969

@<SCITEGIC>MOL_PROPERTY
W(PB)
SciTegic.value.DoubleValue
-64.077

@<SCITEGIC>MOL_PROPERTY
W(SA)
SciTegic.value.DoubleValue
2.108

@<SCITEGIC>MOL_PROPERTY
Valence
SciTegic.value.DoubleValue
11.349

@<SCITEGIC>MOL_PROPERTY
Coulomb
SciTegic.value.DoubleValue
2.222

@<SCITEGIC>MOL_PROPERTY
VdW
SciTegic.value.DoubleValue
0.093

@<SCITEGIC>MOL_PROPERTY
VdW6
SciTegic.value.DoubleValue
-8.852

@<SCITEGIC>MOL_PROPERTY
VdW12
SciTegic.value.DoubleValue
8.945

@<SCITEGIC>MOL_PROPERTY
Bond
SciTegic.value.DoubleValue
0.196

@<SCITEGIC>MOL_PROPERTY
Angle
SciTegic.value.DoubleValue
3.358

@<SCITEGIC>MOL_PROPERTY
Pdih
SciTegic.value.DoubleValue
7.794

@<SCITEGIC>MOL_PROPERTY
Idih
SciTegic.value.DoubleValue
0.001

@<SCITEGIC>MOL_PROPERTY
Tether
SciTegic.value.DoubleValue
0.000

@<TRIPOS>MOLECULE
guest-s22_vm2.mol2 : vm2 ligand conformer 63
          20          19           1
SMALL
USER_CHARGES
 
@<TRIPOS>ATOM
       1    C1      20.204724   17.311607   20.823090 C.2        1 MOL1        -0.2535
       2    H1      20.555225   17.050538   21.820783 H          1 MOL1         0.0845
       3    H2      19.910288   16.495599   20.165695 H          1 MOL1         0.0845
       4    C2      20.129703   18.583373   20.422575 C.2        1 MOL1        -0.1324
       5    H3      19.771883   18.823995   19.421948 H          1 MOL1         0.0833
       6    C3      20.520613   19.769257   21.278726 C.3        1 MOL1        -0.1813
       7    H4      21.219693   20.398547   20.712362 H          1 MOL1         0.0753
       8    H5      21.066652   19.442667   22.171694 H          1 MOL1         0.0753
       9    C4      19.299780   20.630238   21.679864 C.3        1 MOL1        -0.1855
      10    H6      19.648796   21.551158   22.166323 H          1 MOL1         0.0755
      11    H7      18.786921   20.949584   20.762280 H          1 MOL1         0.0755
      12    C5      18.272445   19.921823   22.600627 C.3        1 MOL1        -0.1855
      13    H8      18.001778   18.937782   22.193693 H          1 MOL1         0.0755
      14    H9      17.349491   20.516980   22.586629 H          1 MOL1         0.0755
      15    C6      18.720180   19.782192   24.082792 C.3        1 MOL1        -0.1958
      16    H10     19.173965   20.716427   24.434625 H          1 MOL1         0.0753
      17    H11     17.834848   19.611644   24.706419 H          1 MOL1         0.0753
      18    C7      19.677642   18.628406   24.369808 C.2        1 MOL1         0.6174
      19    O1      20.802985   18.896003   24.743708 O.co2      1 MOL1        -0.6695
      20    O2      19.242928   17.495101   24.306810 O.co2      1 MOL1        -0.6695
@<TRIPOS>BOND
    1     1     2    1
    2     1     3    1
    3     1     4    2
    4     4     5    1
    5     4     6    1
    6     6     7    1
    7     6     8    1
    8     6     9    1
    9     9    10    1
   10     9    11    1
   11     9    12    1
   12    12    13    1
   13    12    14    1
   14    12    15    1
   15    15    16    1
   16    15    17    1
   17    15    18    1
   18    18    19    1
   19    18    20    2
@<TRIPOS>SUBSTRUCTURE
       1 MOL1            1 RESIDUE      1      MOL     
@<SCITEGIC>MOL_PROPERTY
VM2 Rank
SciTegic.value.IntegerValue
63

@<SCITEGIC>MOL_PROPERTY
Conf_Id
SciTegic.value.IntegerValue
167

@<SCITEGIC>MOL_PROPERTY
Probability
SciTegic.value.DoubleValue
0.00

@<SCITEGIC>MOL_PROPERTY
Sum Probability
SciTegic.value.DoubleValue
100.00

@<SCITEGIC>MOL_PROPERTY
Delta G
SciTegic.value.DoubleValue
5.852

@<SCITEGIC>MOL_PROPERTY
G
SciTegic.value.DoubleValue
-16.036

@<SCITEGIC>MOL_PROPERTY
E
SciTegic.value.DoubleValue
-32.089

@<SCITEGIC>MOL_PROPERTY
-TS
SciTegic.value.DoubleValue
16.052

@<SCITEGIC>MOL_PROPERTY
U+W
SciTegic.value.DoubleValue
-48.185

@<SCITEGIC>MOL_PROPERTY
U
SciTegic.value.DoubleValue
14.642

@<SCITEGIC>MOL_PROPERTY
W
SciTegic.value.DoubleValue
-62.826

@<SCITEGIC>MOL_PROPERTY
W(PB)
SciTegic.value.DoubleValue
-64.919

@<SCITEGIC>MOL_PROPERTY
W(SA)
SciTegic.value.DoubleValue
2.093

@<SCITEGIC>MOL_PROPERTY
Valence
SciTegic.value.DoubleValue
11.577

@<SCITEGIC>MOL_PROPERTY
Coulomb
SciTegic.value.DoubleValue
3.283

@<SCITEGIC>MOL_PROPERTY
VdW
SciTegic.value.DoubleValue
-0.219

@<SCITEGIC>MOL_PROPERTY
VdW6
SciTegic.value.DoubleValue
-9.345

@<SCITEGIC>MOL_PROPERTY
VdW12
SciTegic.value.DoubleValue
9.126

@<SCITEGIC>MOL_PROPERTY
Bond
SciTegic.value.DoubleValue
0.192

@<SCITEGIC>MOL_PROPERTY
Angle
SciTegic.value.DoubleValue
3.434

@<SCITEGIC>MOL_PROPERTY
Pdih
SciTegic.value.DoubleValue
7.929

@<SCITEGIC>MOL_PROPERTY
Idih
SciTegic.value.DoubleValue
0.022

@<SCITEGIC>MOL_PROPERTY
Tether
SciTegic.value.DoubleValue
0.000

@<TRIPOS>MOLECULE
guest-s22_vm2.mol2 : vm2 ligand conformer 64
          20          19           1
SMALL
USER_CHARGES
 
@<TRIPOS>ATOM
       1    C1      18.159701   19.085648   20.590481 C.2        1 MOL1        -0.2535
       2    H1      17.728054   19.502809   21.499359 H          1 MOL1         0.0845
       3    H2      17.481617   18.602487   19.889418 H          1 MOL1         0.0845
       4    C2      19.471060   19.154834   20.347626 C.2        1 MOL1        -0.1324
       5    H3      19.883964   18.727142   19.434509 H          1 MOL1         0.0833
       6    C3      20.474202   19.809555   21.273464 C.3        1 MOL1        -0.1813
       7    H4      19.965642   20.397755   22.046510 H          1 MOL1         0.0753
       8    H5      21.072736   20.526110   20.695715 H          1 MOL1         0.0753
       9    C4      21.430796   18.781604   21.922219 C.3        1 MOL1        -0.1855
      10    H6      21.931019   18.222215   21.119830 H          1 MOL1         0.0755
      11    H7      22.226738   19.314767   22.459587 H          1 MOL1         0.0755
      12    C5      20.752432   17.770351   22.882568 C.3        1 MOL1        -0.1855
      13    H8      21.461712   16.949536   23.054144 H          1 MOL1         0.0755
      14    H9      19.873781   17.313784   22.406424 H          1 MOL1         0.0755
      15    C6      20.364746   18.355275   24.269772 C.3        1 MOL1        -0.1958
      16    H10     20.234214   17.529697   24.979132 H          1 MOL1         0.0753
      17    H11     21.177298   18.978155   24.662559 H          1 MOL1         0.0753
      18    C7      19.066846   19.158303   24.300272 C.2        1 MOL1         0.6174
      19    O1      19.132334   20.345408   24.553843 O.co2      1 MOL1        -0.6695
      20    O2      18.018883   18.557023   24.167756 O.co2      1 MOL1        -0.6695
@<TRIPOS>BOND
    1     1     2    1
    2     1     3    1
    3     1     4    2
    4     4     5    1
    5     4     6    1
    6     6     7    1
    7     6     8    1
    8     6     9    1
    9     9    10    1
   10     9    11    1
   11     9    12    1
   12    12    13    1
   13    12    14    1
   14    12    15    1
   15    15    16    1
   16    15    17    1
   17    15    18    1
   18    18    19    1
   19    18    20    2
@<TRIPOS>SUBSTRUCTURE
       1 MOL1            1 RESIDUE      1      MOL     
@<SCITEGIC>MOL_PROPERTY
VM2 Rank
SciTegic.value.IntegerValue
64

@<SCITEGIC>MOL_PROPERTY
Conf_Id
SciTegic.value.IntegerValue
340

@<SCITEGIC>MOL_PROPERTY
Probability
SciTegic.value.DoubleValue
0.00

@<SCITEGIC>MOL_PROPERTY
Sum Probability
SciTegic.value.DoubleValue
100.00

@<SCITEGIC>MOL_PROPERTY
Delta G
SciTegic.value.DoubleValue
5.862

@<SCITEGIC>MOL_PROPERTY
G
SciTegic.value.DoubleValue
-16.027

@<SCITEGIC>MOL_PROPERTY
E
SciTegic.value.DoubleValue
-32.080

@<SCITEGIC>MOL_PROPERTY
-TS
SciTegic.value.DoubleValue
16.053

@<SCITEGIC>MOL_PROPERTY
U+W
SciTegic.value.DoubleValue
-48.176

@<SCITEGIC>MOL_PROPERTY
U
SciTegic.value.DoubleValue
14.640

@<SCITEGIC>MOL_PROPERTY
W
SciTegic.value.DoubleValue
-62.816

@<SCITEGIC>MOL_PROPERTY
W(PB)
SciTegic.value.DoubleValue
-64.895

@<SCITEGIC>MOL_PROPERTY
W(SA)
SciTegic.value.DoubleValue
2.079

@<SCITEGIC>MOL_PROPERTY
Valence
SciTegic.value.DoubleValue
11.577

@<SCITEGIC>MOL_PROPERTY
Coulomb
SciTegic.value.DoubleValue
3.282

@<SCITEGIC>MOL_PROPERTY
VdW
SciTegic.value.DoubleValue
-0.219

@<SCITEGIC>MOL_PROPERTY
VdW6
SciTegic.value.DoubleValue
-9.345

@<SCITEGIC>MOL_PROPERTY
VdW12
SciTegic.value.DoubleValue
9.126

@<SCITEGIC>MOL_PROPERTY
Bond
SciTegic.value.DoubleValue
0.192

@<SCITEGIC>MOL_PROPERTY
Angle
SciTegic.value.DoubleValue
3.435

@<SCITEGIC>MOL_PROPERTY
Pdih
SciTegic.value.DoubleValue
7.929

@<SCITEGIC>MOL_PROPERTY
Idih
SciTegic.value.DoubleValue
0.021

@<SCITEGIC>MOL_PROPERTY
Tether
SciTegic.value.DoubleValue
0.000

@<TRIPOS>MOLECULE
guest-s22_vm2.mol2 : vm2 ligand conformer 65
          20          19           1
SMALL
USER_CHARGES
 
@<TRIPOS>ATOM
       1    C1      21.344711   19.290602   19.917900 C.2        1 MOL1        -0.2535
       2    H1      22.430157   19.207404   19.913942 H          1 MOL1         0.0845
       3    H2      20.837701   19.281089   18.954418 H          1 MOL1         0.0845
       4    C2      20.665238   19.397105   21.062913 C.2        1 MOL1        -0.1324
       5    H3      21.196582   19.407680   22.012279 H          1 MOL1         0.0833
       6    C3      19.158166   19.523490   21.142417 C.3        1 MOL1        -0.1813
       7    H4      18.780939   19.883078   20.175520 H          1 MOL1         0.0753
       8    H5      18.871565   20.286238   21.878888 H          1 MOL1         0.0753
       9    C4      18.470205   18.174625   21.462932 C.3        1 MOL1        -0.1855
      10    H6      17.535752   18.123322   20.887562 H          1 MOL1         0.0755
      11    H7      19.089117   17.342953   21.098537 H          1 MOL1         0.0755
      12    C5      18.111087   17.955032   22.954820 C.3        1 MOL1        -0.1855
      13    H8      17.580528   16.996097   23.028064 H          1 MOL1         0.0755
      14    H9      17.390808   18.717446   23.282140 H          1 MOL1         0.0755
      15    C6      19.320547   17.908426   23.931896 C.3        1 MOL1        -0.1958
      16    H10     19.038714   17.327217   24.817261 H          1 MOL1         0.0753
      17    H11     20.162694   17.381812   23.466958 H          1 MOL1         0.0753
      18    C7      19.808297   19.260938   24.453876 C.2        1 MOL1         0.6174
      19    O1      21.005890   19.416338   24.590068 O.co2      1 MOL1        -0.6695
      20    O2      18.986859   20.091444   24.791178 O.co2      1 MOL1        -0.6695
@<TRIPOS>BOND
    1     1     2    1
    2     1     3    1
    3     1     4    2
    4     4     5    1
    5     4     6    1
    6     6     7    1
    7     6     8    1
    8     6     9    1
    9     9    10    1
   10     9    11    1
   11     9    12    1
   12    12    13    1
   13    12    14    1
   14    12    15    1
   15    15    16    1
   16    15    17    1
   17    15    18    1
   18    18    19    1
   19    18    20    2
@<TRIPOS>SUBSTRUCTURE
       1 MOL1            1 RESIDUE      1      MOL     
@<SCITEGIC>MOL_PROPERTY
VM2 Rank
SciTegic.value.IntegerValue
65

@<SCITEGIC>MOL_PROPERTY
Conf_Id
SciTegic.value.IntegerValue
304

@<SCITEGIC>MOL_PROPERTY
Probability
SciTegic.value.DoubleValue
0.00

@<SCITEGIC>MOL_PROPERTY
Sum Probability
SciTegic.value.DoubleValue
100.00

@<SCITEGIC>MOL_PROPERTY
Delta G
SciTegic.value.DoubleValue
6.778

@<SCITEGIC>MOL_PROPERTY
G
SciTegic.value.DoubleValue
-15.110

@<SCITEGIC>MOL_PROPERTY
E
SciTegic.value.DoubleValue
-30.720

@<SCITEGIC>MOL_PROPERTY
-TS
SciTegic.value.DoubleValue
15.610

@<SCITEGIC>MOL_PROPERTY
U+W
SciTegic.value.DoubleValue
-46.817

@<SCITEGIC>MOL_PROPERTY
U
SciTegic.value.DoubleValue
15.456

@<SCITEGIC>MOL_PROPERTY
W
SciTegic.value.DoubleValue
-62.272

@<SCITEGIC>MOL_PROPERTY
W(PB)
SciTegic.value.DoubleValue
-64.365

@<SCITEGIC>MOL_PROPERTY
W(SA)
SciTegic.value.DoubleValue
2.093

@<SCITEGIC>MOL_PROPERTY
Valence
SciTegic.value.DoubleValue
13.615

@<SCITEGIC>MOL_PROPERTY
Coulomb
SciTegic.value.DoubleValue
1.409

@<SCITEGIC>MOL_PROPERTY
VdW
SciTegic.value.DoubleValue
0.432

@<SCITEGIC>MOL_PROPERTY
VdW6
SciTegic.value.DoubleValue
-9.298

@<SCITEGIC>MOL_PROPERTY
VdW12
SciTegic.value.DoubleValue
9.730

@<SCITEGIC>MOL_PROPERTY
Bond
SciTegic.value.DoubleValue
0.212

@<SCITEGIC>MOL_PROPERTY
Angle
SciTegic.value.DoubleValue
3.796

@<SCITEGIC>MOL_PROPERTY
Pdih
SciTegic.value.DoubleValue
9.592

@<SCITEGIC>MOL_PROPERTY
Idih
SciTegic.value.DoubleValue
0.016

@<SCITEGIC>MOL_PROPERTY
Tether
SciTegic.value.DoubleValue
0.000

@<TRIPOS>MOLECULE
guest-s22_vm2.mol2 : vm2 ligand conformer 66
          20          19           1
SMALL
USER_CHARGES
 
@<TRIPOS>ATOM
       1    C1      18.779825   18.517282   19.586901 C.2        1 MOL1        -0.2535
       2    H1      17.951573   17.856843   19.336005 H          1 MOL1         0.0845
       3    H2      19.417990   18.853163   18.771191 H          1 MOL1         0.0845
       4    C2      19.002574   18.895727   20.848347 C.2        1 MOL1        -0.1324
       5    H3      18.347652   18.548305   21.644659 H          1 MOL1         0.0833
       6    C3      20.129543   19.816375   21.267753 C.3        1 MOL1        -0.1813
       7    H4      19.773556   20.558142   21.995331 H          1 MOL1         0.0753
       8    H5      20.462947   20.390325   20.392586 H          1 MOL1         0.0753
       9    C4      21.343674   19.041038   21.833610 C.3        1 MOL1        -0.1855
      10    H6      21.382676   18.034504   21.394425 H          1 MOL1         0.0755
      11    H7      22.258586   19.547363   21.496776 H          1 MOL1         0.0755
      12    C5      21.405120   18.948272   23.379744 C.3        1 MOL1        -0.1855
      13    H8      21.494121   19.954720   23.811438 H          1 MOL1         0.0755
      14    H9      22.337718   18.430541   23.641714 H          1 MOL1         0.0755
      15    C6      20.228375   18.182129   24.049040 C.3        1 MOL1        -0.1958
      16    H10     19.944796   17.316111   23.438878 H          1 MOL1         0.0753
      17    H11     20.565750   17.787567   25.014236 H          1 MOL1         0.0753
      18    C7      18.977345   19.010319   24.346842 C.2        1 MOL1         0.6174
      19    O1      19.108606   20.128044   24.806987 O.co2      1 MOL1        -0.6695
      20    O2      17.895937   18.478812   24.188776 O.co2      1 MOL1        -0.6695
@<TRIPOS>BOND
    1     1     2    1
    2     1     3    1
    3     1     4    2
    4     4     5    1
    5     4     6    1
    6     6     7    1
    7     6     8    1
    8     6     9    1
    9     9    10    1
   10     9    11    1
   11     9    12    1
   12    12    13    1
   13    12    14    1
   14    12    15    1
   15    15    16    1
   16    15    17    1
   17    15    18    1
   18    18    19    1
   19    18    20    2
@<TRIPOS>SUBSTRUCTURE
       1 MOL1            1 RESIDUE      1      MOL     
@<SCITEGIC>MOL_PROPERTY
VM2 Rank
SciTegic.value.IntegerValue
66

@<SCITEGIC>MOL_PROPERTY
Conf_Id
SciTegic.value.IntegerValue
286

@<SCITEGIC>MOL_PROPERTY
Probability
SciTegic.value.DoubleValue
0.00

@<SCITEGIC>MOL_PROPERTY
Sum Probability
SciTegic.value.DoubleValue
100.00

@<SCITEGIC>MOL_PROPERTY
Delta G
SciTegic.value.DoubleValue
6.798

@<SCITEGIC>MOL_PROPERTY
G
SciTegic.value.DoubleValue
-15.090

@<SCITEGIC>MOL_PROPERTY
E
SciTegic.value.DoubleValue
-30.703

@<SCITEGIC>MOL_PROPERTY
-TS
SciTegic.value.DoubleValue
15.613

@<SCITEGIC>MOL_PROPERTY
U+W
SciTegic.value.DoubleValue
-46.799

@<SCITEGIC>MOL_PROPERTY
U
SciTegic.value.DoubleValue
15.456

@<SCITEGIC>MOL_PROPERTY
W
SciTegic.value.DoubleValue
-62.256

@<SCITEGIC>MOL_PROPERTY
W(PB)
SciTegic.value.DoubleValue
-64.374

@<SCITEGIC>MOL_PROPERTY
W(SA)
SciTegic.value.DoubleValue
2.119

@<SCITEGIC>MOL_PROPERTY
Valence
SciTegic.value.DoubleValue
13.615

@<SCITEGIC>MOL_PROPERTY
Coulomb
SciTegic.value.DoubleValue
1.410

@<SCITEGIC>MOL_PROPERTY
VdW
SciTegic.value.DoubleValue
0.432

@<SCITEGIC>MOL_PROPERTY
VdW6
SciTegic.value.DoubleValue
-9.298

@<SCITEGIC>MOL_PROPERTY
VdW12
SciTegic.value.DoubleValue
9.729

@<SCITEGIC>MOL_PROPERTY
Bond
SciTegic.value.DoubleValue
0.212

@<SCITEGIC>MOL_PROPERTY
Angle
SciTegic.value.DoubleValue
3.795

@<SCITEGIC>MOL_PROPERTY
Pdih
SciTegic.value.DoubleValue
9.592

@<SCITEGIC>MOL_PROPERTY
Idih
SciTegic.value.DoubleValue
0.016

@<SCITEGIC>MOL_PROPERTY
Tether
SciTegic.value.DoubleValue
0.000

