VeraChem MOL file


 20 19  0  0  0  0  0  0  0  0999 V2000     
   20.4455   18.0660   18.7399 C   0  0  0  0  0  0  0  0  0  0  0  0
   20.6597   17.7974   17.7069 H   0  0  0  0  0  0  0  0  0  0  0  0
   20.5833   17.2883   19.4880 H   0  0  0  0  0  0  0  0  0  0  0  0
   20.0332   19.2995   19.0536 C   0  0  0  0  0  0  0  0  0  0  0  0
   19.9135   20.0362   18.2595 H   0  0  0  0  0  0  0  0  0  0  0  0
   19.6972   19.8197   20.4413 C   0  0  0  0  0  0  0  0  0  0  0  0
   18.6643   20.1928   20.4377 H   0  0  0  0  0  0  0  0  0  0  0  0
   20.3272   20.6942   20.6523 H   0  0  0  0  0  0  0  0  0  0  0  0
   19.8605   18.7897   21.5834 C   0  0  0  0  0  0  0  0  0  0  0  0
   19.2167   17.9209   21.3889 H   0  0  0  0  0  0  0  0  0  0  0  0
   20.8976   18.4278   21.6057 H   0  0  0  0  0  0  0  0  0  0  0  0
   19.5003   19.3966   22.9571 C   0  0  0  0  0  0  0  0  0  0  0  0
   18.4636   19.7607   22.9413 H   0  0  0  0  0  0  0  0  0  0  0  0
   20.1410   20.2665   23.1577 H   0  0  0  0  0  0  0  0  0  0  0  0
   19.6630   18.3671   24.1025 C   0  0  0  0  0  0  0  0  0  0  0  0
   19.0193   17.4973   23.9243 H   0  0  0  0  0  0  0  0  0  0  0  0
   20.6968   18.0032   24.1406 H   0  0  0  0  0  0  0  0  0  0  0  0
   19.3130   18.9430   25.4699 C   0  0  0  0  0  0  0  0  0  0  0  0
   20.1971   19.4751   26.1116 O   0  5  0  0  0  0  0  0  0  0  0  0
   18.1613   18.8613   25.8489 O   0  0  0  0  0  0  0  0  0  0  0  0
  1  2  1  0  0  0  0
  1  3  1  0  0  0  0
  1  4  2  0  0  0  0
  4  5  1  0  0  0  0
  4  6  1  0  0  0  0
  6  7  1  0  0  0  0
  6  8  1  0  0  0  0
  6  9  1  0  0  0  0
  9 10  1  0  0  0  0
  9 11  1  0  0  0  0
  9 12  1  0  0  0  0
 12 13  1  0  0  0  0
 12 14  1  0  0  0  0
 12 15  1  0  0  0  0
 15 16  1  0  0  0  0
 15 17  1  0  0  0  0
 15 18  1  0  0  0  0
 18 19  1  0  0  0  0
 18 20  2  0  0  0  0
M  END
> <VM2 Rank>
1

> <Conf_Id>
236

> <Probability>
13.93

> <Sum Probability>
13.93

> <Delta G>
0.000

> <G>
-21.888

> <E>
-37.136

> <-TS>
15.247

> <U+W>
-53.232

> <U>
6.572

> <W>
-59.803

> <W(PB)>
-62.038

> <W(SA)>
2.234

> <Valence>
7.989

> <Coulomb>
-2.698

> <VdW>
1.281

> <VdW6>
-6.467

> <VdW12>
7.748

> <Bond>
0.136

> <Angle>
2.854

> <Pdih>
4.998

> <Idih>
0.001

> <Tether>
0.000

$$$$
VeraChem MOL file


 20 19  0  0  0  0  0  0  0  0999 V2000     
   19.7355   18.4519   18.2412 C   0  0  0  0  0  0  0  0  0  0  0  0
   20.2194   18.0464   17.3543 H   0  0  0  0  0  0  0  0  0  0  0  0
   18.6526   18.3594   18.3076 H   0  0  0  0  0  0  0  0  0  0  0  0
   20.4463   19.0371   19.2086 C   0  0  0  0  0  0  0  0  0  0  0  0
   21.5296   19.1190   19.1230 H   0  0  0  0  0  0  0  0  0  0  0  0
   19.8446   19.6233   20.4664 C   0  0  0  0  0  0  0  0  0  0  0  0
   18.7575   19.7332   20.3524 H   0  0  0  0  0  0  0  0  0  0  0  0
   20.2484   20.6312   20.6317 H   0  0  0  0  0  0  0  0  0  0  0  0
   20.1458   18.7373   21.6932 C   0  0  0  0  0  0  0  0  0  0  0  0
   19.7434   17.7294   21.5212 H   0  0  0  0  0  0  0  0  0  0  0  0
   21.2332   18.6313   21.8095 H   0  0  0  0  0  0  0  0  0  0  0  0
   19.5410   19.3233   22.9876 C   0  0  0  0  0  0  0  0  0  0  0  0
   18.4530   19.4286   22.8737 H   0  0  0  0  0  0  0  0  0  0  0  0
   19.9425   20.3314   23.1611 H   0  0  0  0  0  0  0  0  0  0  0  0
   19.8425   18.4339   24.2188 C   0  0  0  0  0  0  0  0  0  0  0  0
   19.4361   17.4267   24.0671 H   0  0  0  0  0  0  0  0  0  0  0  0
   20.9256   18.3295   24.3547 H   0  0  0  0  0  0  0  0  0  0  0  0
   19.2549   18.9920   25.5101 C   0  0  0  0  0  0  0  0  0  0  0  0
   19.9341   19.7575   26.1654 O   0  5  0  0  0  0  0  0  0  0  0  0
   18.1264   18.6616   25.8166 O   0  0  0  0  0  0  0  0  0  0  0  0
  1  2  1  0  0  0  0
  1  3  1  0  0  0  0
  1  4  2  0  0  0  0
  4  5  1  0  0  0  0
  4  6  1  0  0  0  0
  6  7  1  0  0  0  0
  6  8  1  0  0  0  0
  6  9  1  0  0  0  0
  9 10  1  0  0  0  0
  9 11  1  0  0  0  0
  9 12  1  0  0  0  0
 12 13  1  0  0  0  0
 12 14  1  0  0  0  0
 12 15  1  0  0  0  0
 15 16  1  0  0  0  0
 15 17  1  0  0  0  0
 15 18  1  0  0  0  0
 18 19  1  0  0  0  0
 18 20  2  0  0  0  0
M  END
> <VM2 Rank>
2

> <Conf_Id>
273

> <Probability>
13.77

> <Sum Probability>
27.70

> <Delta G>
0.007

> <G>
-21.881

> <E>
-36.773

> <-TS>
14.892

> <U+W>
-52.869

> <U>
6.632

> <W>
-59.502

> <W(PB)>
-61.759

> <W(SA)>
2.257

> <Valence>
9.076

> <Coulomb>
-3.008

> <VdW>
0.564

> <VdW6>
-5.773

> <VdW12>
6.337

> <Bond>
0.084

> <Angle>
2.239

> <Pdih>
6.752

> <Idih>
0.001

> <Tether>
0.000

$$$$
VeraChem MOL file


 20 19  0  0  0  0  0  0  0  0999 V2000     
   19.8356   18.3569   18.2569 C   0  0  0  0  0  0  0  0  0  0  0  0
   19.5625   18.6708   17.2508 H   0  0  0  0  0  0  0  0  0  0  0  0
   19.7742   17.2938   18.4840 H   0  0  0  0  0  0  0  0  0  0  0  0
   20.2277   19.2448   19.1742 C   0  0  0  0  0  0  0  0  0  0  0  0
   20.2816   20.3047   18.9267 H   0  0  0  0  0  0  0  0  0  0  0  0
   20.6226   18.8838   20.5890 C   0  0  0  0  0  0  0  0  0  0  0  0
   21.5742   19.3710   20.8405 H   0  0  0  0  0  0  0  0  0  0  0  0
   20.7899   17.8013   20.6726 H   0  0  0  0  0  0  0  0  0  0  0  0
   19.5375   19.3155   21.5975 C   0  0  0  0  0  0  0  0  0  0  0  0
   19.3736   20.3989   21.5167 H   0  0  0  0  0  0  0  0  0  0  0  0
   18.5869   18.8287   21.3391 H   0  0  0  0  0  0  0  0  0  0  0  0
   19.9263   18.9569   23.0483 C   0  0  0  0  0  0  0  0  0  0  0  0
   20.8770   19.4429   23.3082 H   0  0  0  0  0  0  0  0  0  0  0  0
   20.0888   17.8732   23.1313 H   0  0  0  0  0  0  0  0  0  0  0  0
   18.8373   19.3896   24.0606 C   0  0  0  0  0  0  0  0  0  0  0  0
   18.6722   20.4720   23.9999 H   0  0  0  0  0  0  0  0  0  0  0  0
   17.8841   18.9023   23.8228 H   0  0  0  0  0  0  0  0  0  0  0  0
   19.1983   19.0458   25.5013 C   0  0  0  0  0  0  0  0  0  0  0  0
   19.8214   19.8648   26.1474 O   0  5  0  0  0  0  0  0  0  0  0  0
   18.8643   17.9600   25.9328 O   0  0  0  0  0  0  0  0  0  0  0  0
  1  2  1  0  0  0  0
  1  3  1  0  0  0  0
  1  4  2  0  0  0  0
  4  5  1  0  0  0  0
  4  6  1  0  0  0  0
  6  7  1  0  0  0  0
  6  8  1  0  0  0  0
  6  9  1  0  0  0  0
  9 10  1  0  0  0  0
  9 11  1  0  0  0  0
  9 12  1  0  0  0  0
 12 13  1  0  0  0  0
 12 14  1  0  0  0  0
 12 15  1  0  0  0  0
 15 16  1  0  0  0  0
 15 17  1  0  0  0  0
 15 18  1  0  0  0  0
 18 19  1  0  0  0  0
 18 20  2  0  0  0  0
M  END
> <VM2 Rank>
3

> <Conf_Id>
549

> <Probability>
12.47

> <Sum Probability>
40.17

> <Delta G>
0.066

> <G>
-21.822

> <E>
-36.714

> <-TS>
14.892

> <U+W>
-52.810

> <U>
6.633

> <W>
-59.443

> <W(PB)>
-61.702

> <W(SA)>
2.259

> <Valence>
9.076

> <Coulomb>
-3.007

> <VdW>
0.564

> <VdW6>
-5.773

> <VdW12>
6.337

> <Bond>
0.084

> <Angle>
2.239

> <Pdih>
6.752

> <Idih>
0.001

> <Tether>
0.000

$$$$
VeraChem MOL file


 20 19  0  0  0  0  0  0  0  0999 V2000     
   19.2309   18.4037   18.7287 C   0  0  0  0  0  0  0  0  0  0  0  0
   18.2505   18.2556   18.2791 H   0  0  0  0  0  0  0  0  0  0  0  0
   20.0631   17.8369   18.3143 H   0  0  0  0  0  0  0  0  0  0  0  0
   19.4013   19.2464   19.7507 C   0  0  0  0  0  0  0  0  0  0  0  0
   18.5552   19.8062   20.1482 H   0  0  0  0  0  0  0  0  0  0  0  0
   20.7334   19.5075   20.4208 C   0  0  0  0  0  0  0  0  0  0  0  0
   20.8636   20.5852   20.5874 H   0  0  0  0  0  0  0  0  0  0  0  0
   21.5500   19.1989   19.7541 H   0  0  0  0  0  0  0  0  0  0  0  0
   20.8758   18.7515   21.7610 C   0  0  0  0  0  0  0  0  0  0  0  0
   20.7292   17.6760   21.5905 H   0  0  0  0  0  0  0  0  0  0  0  0
   21.9037   18.8744   22.1288 H   0  0  0  0  0  0  0  0  0  0  0  0
   19.8879   19.2504   22.8405 C   0  0  0  0  0  0  0  0  0  0  0  0
   18.8540   19.0972   22.5022 H   0  0  0  0  0  0  0  0  0  0  0  0
   20.0180   20.3310   22.9911 H   0  0  0  0  0  0  0  0  0  0  0  0
   20.0917   18.5178   24.1895 C   0  0  0  0  0  0  0  0  0  0  0  0
   19.9533   17.4379   24.0582 H   0  0  0  0  0  0  0  0  0  0  0  0
   21.1145   18.6720   24.5539 H   0  0  0  0  0  0  0  0  0  0  0  0
   19.1276   18.9910   25.2714 C   0  0  0  0  0  0  0  0  0  0  0  0
   19.4621   19.9295   25.9671 O   0  5  0  0  0  0  0  0  0  0  0  0
   18.0602   18.4201   25.3784 O   0  0  0  0  0  0  0  0  0  0  0  0
  1  2  1  0  0  0  0
  1  3  1  0  0  0  0
  1  4  2  0  0  0  0
  4  5  1  0  0  0  0
  4  6  1  0  0  0  0
  6  7  1  0  0  0  0
  6  8  1  0  0  0  0
  6  9  1  0  0  0  0
  9 10  1  0  0  0  0
  9 11  1  0  0  0  0
  9 12  1  0  0  0  0
 12 13  1  0  0  0  0
 12 14  1  0  0  0  0
 12 15  1  0  0  0  0
 15 16  1  0  0  0  0
 15 17  1  0  0  0  0
 15 18  1  0  0  0  0
 18 19  1  0  0  0  0
 18 20  2  0  0  0  0
M  END
> <VM2 Rank>
4

> <Conf_Id>
516

> <Probability>
4.98

> <Sum Probability>
45.15

> <Delta G>
0.613

> <G>
-21.275

> <E>
-36.308

> <-TS>
15.032

> <U+W>
-52.404

> <U>
7.828

> <W>
-60.232

> <W(PB)>
-62.486

> <W(SA)>
2.254

> <Valence>
9.301

> <Coulomb>
-2.080

> <VdW>
0.608

> <VdW6>
-6.341

> <VdW12>
6.949

> <Bond>
0.103

> <Angle>
2.334

> <Pdih>
6.862

> <Idih>
0.001

> <Tether>
0.000

$$$$
VeraChem MOL file


 20 19  0  0  0  0  0  0  0  0999 V2000     
   21.2428   19.0105   18.9880 C   0  0  0  0  0  0  0  0  0  0  0  0
   20.9773   18.1129   18.4319 H   0  0  0  0  0  0  0  0  0  0  0  0
   22.2181   19.4521   18.7906 H   0  0  0  0  0  0  0  0  0  0  0  0
   20.4088   19.5501   19.8806 C   0  0  0  0  0  0  0  0  0  0  0  0
   20.6932   20.4507   20.4241 H   0  0  0  0  0  0  0  0  0  0  0  0
   19.0371   18.9960   20.2020 C   0  0  0  0  0  0  0  0  0  0  0  0
   18.7024   18.3402   19.3869 H   0  0  0  0  0  0  0  0  0  0  0  0
   18.3067   19.8142   20.2576 H   0  0  0  0  0  0  0  0  0  0  0  0
   19.0218   18.1925   21.5219 C   0  0  0  0  0  0  0  0  0  0  0  0
   18.0411   17.7095   21.6306 H   0  0  0  0  0  0  0  0  0  0  0  0
   19.7654   17.3854   21.4662 H   0  0  0  0  0  0  0  0  0  0  0  0
   19.2948   19.0715   22.7640 C   0  0  0  0  0  0  0  0  0  0  0  0
   18.5665   19.8933   22.8038 H   0  0  0  0  0  0  0  0  0  0  0  0
   20.2900   19.5302   22.6875 H   0  0  0  0  0  0  0  0  0  0  0  0
   19.2152   18.2535   24.0764 C   0  0  0  0  0  0  0  0  0  0  0  0
   18.2223   17.7999   24.1809 H   0  0  0  0  0  0  0  0  0  0  0  0
   19.9453   17.4355   24.0572 H   0  0  0  0  0  0  0  0  0  0  0  0
   19.4824   19.0980   25.3172 C   0  0  0  0  0  0  0  0  0  0  0  0
   20.6283   19.1944   25.7098 O   0  5  0  0  0  0  0  0  0  0  0  0
   18.5397   19.6515   25.8480 O   0  0  0  0  0  0  0  0  0  0  0  0
  1  2  1  0  0  0  0
  1  3  1  0  0  0  0
  1  4  2  0  0  0  0
  4  5  1  0  0  0  0
  4  6  1  0  0  0  0
  6  7  1  0  0  0  0
  6  8  1  0  0  0  0
  6  9  1  0  0  0  0
  9 10  1  0  0  0  0
  9 11  1  0  0  0  0
  9 12  1  0  0  0  0
 12 13  1  0  0  0  0
 12 14  1  0  0  0  0
 12 15  1  0  0  0  0
 15 16  1  0  0  0  0
 15 17  1  0  0  0  0
 15 18  1  0  0  0  0
 18 19  1  0  0  0  0
 18 20  2  0  0  0  0
M  END
> <VM2 Rank>
5

> <Conf_Id>
132

> <Probability>
4.79

> <Sum Probability>
49.94

> <Delta G>
0.636

> <G>
-21.252

> <E>
-36.284

> <-TS>
15.032

> <U+W>
-52.381

> <U>
7.828

> <W>
-60.209

> <W(PB)>
-62.451

> <W(SA)>
2.242

> <Valence>
9.300

> <Coulomb>
-2.080

> <VdW>
0.608

> <VdW6>
-6.341

> <VdW12>
6.949

> <Bond>
0.103

> <Angle>
2.334

> <Pdih>
6.862

> <Idih>
0.001

> <Tether>
0.000

$$$$
VeraChem MOL file


 20 19  0  0  0  0  0  0  0  0999 V2000     
   19.7216   18.9158   18.3063 C   0  0  0  0  0  0  0  0  0  0  0  0
   18.7429   19.3926   18.3239 H   0  0  0  0  0  0  0  0  0  0  0  0
   20.2153   18.8209   17.3406 H   0  0  0  0  0  0  0  0  0  0  0  0
   20.2985   18.4656   19.4235 C   0  0  0  0  0  0  0  0  0  0  0  0
   21.2793   17.9921   19.3843 H   0  0  0  0  0  0  0  0  0  0  0  0
   19.6745   18.5614   20.7980 C   0  0  0  0  0  0  0  0  0  0  0  0
   19.7373   17.5830   21.2907 H   0  0  0  0  0  0  0  0  0  0  0  0
   18.6071   18.8069   20.7140 H   0  0  0  0  0  0  0  0  0  0  0  0
   20.3831   19.6339   21.6555 C   0  0  0  0  0  0  0  0  0  0  0  0
   21.4373   19.3581   21.7953 H   0  0  0  0  0  0  0  0  0  0  0  0
   20.3819   20.5846   21.1044 H   0  0  0  0  0  0  0  0  0  0  0  0
   19.7172   19.8616   23.0335 C   0  0  0  0  0  0  0  0  0  0  0  0
   18.6662   20.1506   22.8948 H   0  0  0  0  0  0  0  0  0  0  0  0
   20.2097   20.7111   23.5266 H   0  0  0  0  0  0  0  0  0  0  0  0
   19.7959   18.6282   23.9702 C   0  0  0  0  0  0  0  0  0  0  0  0
   19.2360   17.7859   23.5485 H   0  0  0  0  0  0  0  0  0  0  0  0
   20.8373   18.3038   24.0825 H   0  0  0  0  0  0  0  0  0  0  0  0
   19.2353   18.9074   25.3601 C   0  0  0  0  0  0  0  0  0  0  0  0
   19.9947   19.3261   26.2114 O   0  5  0  0  0  0  0  0  0  0  0  0
   18.0500   18.7179   25.5495 O   0  0  0  0  0  0  0  0  0  0  0  0
  1  2  1  0  0  0  0
  1  3  1  0  0  0  0
  1  4  2  0  0  0  0
  4  5  1  0  0  0  0
  4  6  1  0  0  0  0
  6  7  1  0  0  0  0
  6  8  1  0  0  0  0
  6  9  1  0  0  0  0
  9 10  1  0  0  0  0
  9 11  1  0  0  0  0
  9 12  1  0  0  0  0
 12 13  1  0  0  0  0
 12 14  1  0  0  0  0
 12 15  1  0  0  0  0
 15 16  1  0  0  0  0
 15 17  1  0  0  0  0
 15 18  1  0  0  0  0
 18 19  1  0  0  0  0
 18 20  2  0  0  0  0
M  END
> <VM2 Rank>
6

> <Conf_Id>
559

> <Probability>
4.05

> <Sum Probability>
53.99

> <Delta G>
0.736

> <G>
-21.152

> <E>
-36.159

> <-TS>
15.007

> <U+W>
-52.255

> <U>
7.491

> <W>
-59.747

> <W(PB)>
-61.973

> <W(SA)>
2.226

> <Valence>
9.604

> <Coulomb>
-2.799

> <VdW>
0.686

> <VdW6>
-6.435

> <VdW12>
7.121

> <Bond>
0.124

> <Angle>
2.493

> <Pdih>
6.986

> <Idih>
0.001

> <Tether>
0.000

$$$$
VeraChem MOL file


 20 19  0  0  0  0  0  0  0  0999 V2000     
   18.6393   19.5606   19.3943 C   0  0  0  0  0  0  0  0  0  0  0  0
   17.7308   19.2233   18.8984 H   0  0  0  0  0  0  0  0  0  0  0  0
   18.7041   20.6147   19.6591 H   0  0  0  0  0  0  0  0  0  0  0  0
   19.6322   18.7103   19.6688 C   0  0  0  0  0  0  0  0  0  0  0  0
   19.5464   17.6585   19.3975 H   0  0  0  0  0  0  0  0  0  0  0  0
   20.9227   19.1046   20.3552 C   0  0  0  0  0  0  0  0  0  0  0  0
   21.0142   20.1980   20.4080 H   0  0  0  0  0  0  0  0  0  0  0  0
   21.7711   18.7517   19.7539 H   0  0  0  0  0  0  0  0  0  0  0  0
   21.0364   18.5082   21.7762 C   0  0  0  0  0  0  0  0  0  0  0  0
   20.9442   17.4146   21.7233 H   0  0  0  0  0  0  0  0  0  0  0  0
   22.0395   18.7206   22.1708 H   0  0  0  0  0  0  0  0  0  0  0  0
   19.9773   19.0766   22.7481 C   0  0  0  0  0  0  0  0  0  0  0  0
   18.9685   18.8471   22.3780 H   0  0  0  0  0  0  0  0  0  0  0  0
   20.0601   20.1716   22.7864 H   0  0  0  0  0  0  0  0  0  0  0  0
   20.1376   18.5005   24.1765 C   0  0  0  0  0  0  0  0  0  0  0  0
   20.0448   17.4080   24.1563 H   0  0  0  0  0  0  0  0  0  0  0  0
   21.1341   18.7343   24.5699 H   0  0  0  0  0  0  0  0  0  0  0  0
   19.1032   19.0462   25.1544 C   0  0  0  0  0  0  0  0  0  0  0  0
   19.3629   20.0731   25.7500 O   0  5  0  0  0  0  0  0  0  0  0  0
   18.0593   18.4379   25.2845 O   0  0  0  0  0  0  0  0  0  0  0  0
  1  2  1  0  0  0  0
  1  3  1  0  0  0  0
  1  4  2  0  0  0  0
  4  5  1  0  0  0  0
  4  6  1  0  0  0  0
  6  7  1  0  0  0  0
  6  8  1  0  0  0  0
  6  9  1  0  0  0  0
  9 10  1  0  0  0  0
  9 11  1  0  0  0  0
  9 12  1  0  0  0  0
 12 13  1  0  0  0  0
 12 14  1  0  0  0  0
 12 15  1  0  0  0  0
 15 16  1  0  0  0  0
 15 17  1  0  0  0  0
 15 18  1  0  0  0  0
 18 19  1  0  0  0  0
 18 20  2  0  0  0  0
M  END
> <VM2 Rank>
7

> <Conf_Id>
233

> <Probability>
3.96

> <Sum Probability>
57.96

> <Delta G>
0.749

> <G>
-21.139

> <E>
-36.251

> <-TS>
15.112

> <U+W>
-52.347

> <U>
8.428

> <W>
-60.775

> <W(PB)>
-62.983

> <W(SA)>
2.208

> <Valence>
9.231

> <Coulomb>
-1.304

> <VdW>
0.501

> <VdW6>
-6.515

> <VdW12>
7.016

> <Bond>
0.103

> <Angle>
2.328

> <Pdih>
6.799

> <Idih>
0.001

> <Tether>
0.000

$$$$
VeraChem MOL file


 20 19  0  0  0  0  0  0  0  0999 V2000     
   20.3969   17.5037   19.6232 C   0  0  0  0  0  0  0  0  0  0  0  0
   19.9730   16.5991   19.1906 H   0  0  0  0  0  0  0  0  0  0  0  0
   21.4123   17.4452   20.0118 H   0  0  0  0  0  0  0  0  0  0  0  0
   19.6939   18.6381   19.6769 C   0  0  0  0  0  0  0  0  0  0  0  0
   18.6780   18.6747   19.2846 H   0  0  0  0  0  0  0  0  0  0  0  0
   20.2147   19.9332   20.2630 C   0  0  0  0  0  0  0  0  0  0  0  0
   20.0717   20.7406   19.5327 H   0  0  0  0  0  0  0  0  0  0  0  0
   21.2961   19.8680   20.4448 H   0  0  0  0  0  0  0  0  0  0  0  0
   19.4931   20.3144   21.5753 C   0  0  0  0  0  0  0  0  0  0  0  0
   19.8209   21.3171   21.8819 H   0  0  0  0  0  0  0  0  0  0  0  0
   18.4115   20.3788   21.3935 H   0  0  0  0  0  0  0  0  0  0  0  0
   19.7730   19.3157   22.7215 C   0  0  0  0  0  0  0  0  0  0  0  0
   20.8561   19.2399   22.8901 H   0  0  0  0  0  0  0  0  0  0  0  0
   19.4248   18.3131   22.4375 H   0  0  0  0  0  0  0  0  0  0  0  0
   19.0780   19.7406   24.0386 C   0  0  0  0  0  0  0  0  0  0  0  0
   19.4260   20.7336   24.3475 H   0  0  0  0  0  0  0  0  0  0  0  0
   17.9938   19.8085   23.8893 H   0  0  0  0  0  0  0  0  0  0  0  0
   19.3389   18.7703   25.1851 C   0  0  0  0  0  0  0  0  0  0  0  0
   20.3234   18.9490   25.8748 O   0  5  0  0  0  0  0  0  0  0  0  0
   18.5590   17.8531   25.3495 O   0  0  0  0  0  0  0  0  0  0  0  0
  1  2  1  0  0  0  0
  1  3  1  0  0  0  0
  1  4  2  0  0  0  0
  4  5  1  0  0  0  0
  4  6  1  0  0  0  0
  6  7  1  0  0  0  0
  6  8  1  0  0  0  0
  6  9  1  0  0  0  0
  9 10  1  0  0  0  0
  9 11  1  0  0  0  0
  9 12  1  0  0  0  0
 12 13  1  0  0  0  0
 12 14  1  0  0  0  0
 12 15  1  0  0  0  0
 15 16  1  0  0  0  0
 15 17  1  0  0  0  0
 15 18  1  0  0  0  0
 18 19  1  0  0  0  0
 18 20  2  0  0  0  0
M  END
> <VM2 Rank>
8

> <Conf_Id>
120

> <Probability>
3.90

> <Sum Probability>
61.85

> <Delta G>
0.760

> <G>
-21.129

> <E>
-36.241

> <-TS>
15.112

> <U+W>
-52.337

> <U>
8.428

> <W>
-60.765

> <W(PB)>
-62.976

> <W(SA)>
2.211

> <Valence>
9.230

> <Coulomb>
-1.304

> <VdW>
0.501

> <VdW6>
-6.515

> <VdW12>
7.017

> <Bond>
0.103

> <Angle>
2.328

> <Pdih>
6.799

> <Idih>
0.000

> <Tether>
0.000

$$$$
VeraChem MOL file


 20 19  0  0  0  0  0  0  0  0999 V2000     
   19.8313   18.5364   18.3333 C   0  0  0  0  0  0  0  0  0  0  0  0
   19.2543   17.6204   18.4499 H   0  0  0  0  0  0  0  0  0  0  0  0
   20.2358   18.7513   17.3456 H   0  0  0  0  0  0  0  0  0  0  0  0
   20.0392   19.3653   19.3596 C   0  0  0  0  0  0  0  0  0  0  0  0
   20.6204   20.2769   19.2218 H   0  0  0  0  0  0  0  0  0  0  0  0
   19.5093   19.1340   20.7572 C   0  0  0  0  0  0  0  0  0  0  0  0
   18.7382   18.3517   20.7462 H   0  0  0  0  0  0  0  0  0  0  0  0
   19.0256   20.0515   21.1151 H   0  0  0  0  0  0  0  0  0  0  0  0
   20.6456   18.7228   21.7203 C   0  0  0  0  0  0  0  0  0  0  0  0
   21.1689   17.8534   21.2988 H   0  0  0  0  0  0  0  0  0  0  0  0
   21.3874   19.5307   21.7831 H   0  0  0  0  0  0  0  0  0  0  0  0
   20.1500   18.3595   23.1403 C   0  0  0  0  0  0  0  0  0  0  0  0
   20.9987   17.9730   23.7214 H   0  0  0  0  0  0  0  0  0  0  0  0
   19.4177   17.5424   23.0804 H   0  0  0  0  0  0  0  0  0  0  0  0
   19.5280   19.5573   23.9041 C   0  0  0  0  0  0  0  0  0  0  0  0
   20.2343   20.3955   23.9335 H   0  0  0  0  0  0  0  0  0  0  0  0
   18.6232   19.9113   23.3973 H   0  0  0  0  0  0  0  0  0  0  0  0
   19.1487   19.2082   25.3387 C   0  0  0  0  0  0  0  0  0  0  0  0
   19.9818   19.3714   26.2082 O   0  5  0  0  0  0  0  0  0  0  0  0
   18.0371   18.7631   25.5463 O   0  0  0  0  0  0  0  0  0  0  0  0
  1  2  1  0  0  0  0
  1  3  1  0  0  0  0
  1  4  2  0  0  0  0
  4  5  1  0  0  0  0
  4  6  1  0  0  0  0
  6  7  1  0  0  0  0
  6  8  1  0  0  0  0
  6  9  1  0  0  0  0
  9 10  1  0  0  0  0
  9 11  1  0  0  0  0
  9 12  1  0  0  0  0
 12 13  1  0  0  0  0
 12 14  1  0  0  0  0
 12 15  1  0  0  0  0
 15 16  1  0  0  0  0
 15 17  1  0  0  0  0
 15 18  1  0  0  0  0
 18 19  1  0  0  0  0
 18 20  2  0  0  0  0
M  END
> <VM2 Rank>
9

> <Conf_Id>
152

> <Probability>
3.83

> <Sum Probability>
65.69

> <Delta G>
0.770

> <G>
-21.119

> <E>
-36.125

> <-TS>
15.007

> <U+W>
-52.222

> <U>
7.491

> <W>
-59.713

> <W(PB)>
-61.947

> <W(SA)>
2.234

> <Valence>
9.604

> <Coulomb>
-2.798

> <VdW>
0.686

> <VdW6>
-6.435

> <VdW12>
7.121

> <Bond>
0.124

> <Angle>
2.493

> <Pdih>
6.986

> <Idih>
0.001

> <Tether>
0.000

$$$$
VeraChem MOL file


 20 19  0  0  0  0  0  0  0  0999 V2000     
   20.7498   18.7250   18.7014 C   0  0  0  0  0  0  0  0  0  0  0  0
   20.8793   18.5154   17.6409 H   0  0  0  0  0  0  0  0  0  0  0  0
   21.6421   18.9995   19.2599 H   0  0  0  0  0  0  0  0  0  0  0  0
   19.5427   18.6405   19.2720 C   0  0  0  0  0  0  0  0  0  0  0  0
   18.6861   18.3589   18.6601 H   0  0  0  0  0  0  0  0  0  0  0  0
   19.2063   18.9028   20.7305 C   0  0  0  0  0  0  0  0  0  0  0  0
   18.7968   17.9810   21.1623 H   0  0  0  0  0  0  0  0  0  0  0  0
   18.3934   19.6397   20.7761 H   0  0  0  0  0  0  0  0  0  0  0  0
   20.3900   19.4062   21.5934 C   0  0  0  0  0  0  0  0  0  0  0  0
   21.1832   18.6464   21.6152 H   0  0  0  0  0  0  0  0  0  0  0  0
   20.8208   20.2997   21.1212 H   0  0  0  0  0  0  0  0  0  0  0  0
   19.9853   19.7699   23.0421 C   0  0  0  0  0  0  0  0  0  0  0  0
   19.1958   20.5340   23.0270 H   0  0  0  0  0  0  0  0  0  0  0  0
   20.8492   20.2273   23.5441 H   0  0  0  0  0  0  0  0  0  0  0  0
   19.5121   18.5524   23.8783 C   0  0  0  0  0  0  0  0  0  0  0  0
   18.5947   18.1264   23.4570 H   0  0  0  0  0  0  0  0  0  0  0  0
   20.2742   17.7641   23.8638 H   0  0  0  0  0  0  0  0  0  0  0  0
   19.2305   18.9108   25.3330 C   0  0  0  0  0  0  0  0  0  0  0  0
   20.1422   18.8249   26.1318 O   0  5  0  0  0  0  0  0  0  0  0  0
   18.1121   19.2855   25.6255 O   0  0  0  0  0  0  0  0  0  0  0  0
  1  2  1  0  0  0  0
  1  3  1  0  0  0  0
  1  4  2  0  0  0  0
  4  5  1  0  0  0  0
  4  6  1  0  0  0  0
  6  7  1  0  0  0  0
  6  8  1  0  0  0  0
  6  9  1  0  0  0  0
  9 10  1  0  0  0  0
  9 11  1  0  0  0  0
  9 12  1  0  0  0  0
 12 13  1  0  0  0  0
 12 14  1  0  0  0  0
 12 15  1  0  0  0  0
 15 16  1  0  0  0  0
 15 17  1  0  0  0  0
 15 18  1  0  0  0  0
 18 19  1  0  0  0  0
 18 20  2  0  0  0  0
M  END
> <VM2 Rank>
10

> <Conf_Id>
527

> <Probability>
3.72

> <Sum Probability>
69.41

> <Delta G>
0.787

> <G>
-21.102

> <E>
-36.458

> <-TS>
15.356

> <U+W>
-52.554

> <U>
7.428

> <W>
-59.982

> <W(PB)>
-62.180

> <W(SA)>
2.198

> <Valence>
8.548

> <Coulomb>
-2.540

> <VdW>
1.420

> <VdW6>
-7.116

> <VdW12>
8.535

> <Bond>
0.184

> <Angle>
3.112

> <Pdih>
5.252

> <Idih>
0.001

> <Tether>
0.000

$$$$
VeraChem MOL file


 20 19  0  0  0  0  0  0  0  0999 V2000     
   20.5528   17.9815   18.7232 C   0  0  0  0  0  0  0  0  0  0  0  0
   20.4876   17.8983   17.6397 H   0  0  0  0  0  0  0  0  0  0  0  0
   20.8517   17.0928   19.2768 H   0  0  0  0  0  0  0  0  0  0  0  0
   20.2736   19.1299   19.3452 C   0  0  0  0  0  0  0  0  0  0  0  0
   19.9755   20.0077   18.7723 H   0  0  0  0  0  0  0  0  0  0  0  0
   20.3432   19.3211   20.8440 C   0  0  0  0  0  0  0  0  0  0  0  0
   20.8986   20.2409   21.0708 H   0  0  0  0  0  0  0  0  0  0  0  0
   20.9013   18.4932   21.2998 H   0  0  0  0  0  0  0  0  0  0  0  0
   18.9282   19.4049   21.4593 C   0  0  0  0  0  0  0  0  0  0  0  0
   18.3603   20.1886   20.9394 H   0  0  0  0  0  0  0  0  0  0  0  0
   18.3925   18.4627   21.2787 H   0  0  0  0  0  0  0  0  0  0  0  0
   18.9309   19.7208   22.9740 C   0  0  0  0  0  0  0  0  0  0  0  0
   17.8940   19.8754   23.3032 H   0  0  0  0  0  0  0  0  0  0  0  0
   19.4581   20.6677   23.1552 H   0  0  0  0  0  0  0  0  0  0  0  0
   19.5657   18.6009   23.8389 C   0  0  0  0  0  0  0  0  0  0  0  0
   19.0764   17.6412   23.6341 H   0  0  0  0  0  0  0  0  0  0  0  0
   20.6283   18.4824   23.5992 H   0  0  0  0  0  0  0  0  0  0  0  0
   19.4562   18.8778   25.3340 C   0  0  0  0  0  0  0  0  0  0  0  0
   20.3460   19.5111   25.8669 O   0  5  0  0  0  0  0  0  0  0  0  0
   18.4743   18.4701   25.9225 O   0  0  0  0  0  0  0  0  0  0  0  0
  1  2  1  0  0  0  0
  1  3  1  0  0  0  0
  1  4  2  0  0  0  0
  4  5  1  0  0  0  0
  4  6  1  0  0  0  0
  6  7  1  0  0  0  0
  6  8  1  0  0  0  0
  6  9  1  0  0  0  0
  9 10  1  0  0  0  0
  9 11  1  0  0  0  0
  9 12  1  0  0  0  0
 12 13  1  0  0  0  0
 12 14  1  0  0  0  0
 12 15  1  0  0  0  0
 15 16  1  0  0  0  0
 15 17  1  0  0  0  0
 15 18  1  0  0  0  0
 18 19  1  0  0  0  0
 18 20  2  0  0  0  0
M  END
> <VM2 Rank>
11

> <Conf_Id>
275

> <Probability>
3.50

> <Sum Probability>
72.91

> <Delta G>
0.823

> <G>
-21.065

> <E>
-36.061

> <-TS>
14.996

> <U+W>
-52.158

> <U>
7.601

> <W>
-59.759

> <W(PB)>
-62.007

> <W(SA)>
2.248

> <Valence>
9.602

> <Coulomb>
-2.686

> <VdW>
0.685

> <VdW6>
-6.453

> <VdW12>
7.139

> <Bond>
0.125

> <Angle>
2.485

> <Pdih>
6.991

> <Idih>
0.001

> <Tether>
0.000

$$$$
VeraChem MOL file


 20 19  0  0  0  0  0  0  0  0999 V2000     
   20.7504   18.7268   18.7014 C   0  0  0  0  0  0  0  0  0  0  0  0
   21.3662   18.0188   19.2518 H   0  0  0  0  0  0  0  0  0  0  0  0
   20.9746   18.8542   17.6437 H   0  0  0  0  0  0  0  0  0  0  0  0
   19.7619   19.4196   19.2784 C   0  0  0  0  0  0  0  0  0  0  0  0
   19.1804   20.1158   18.6745 H   0  0  0  0  0  0  0  0  0  0  0  0
   19.3318   19.3491   20.7342 C   0  0  0  0  0  0  0  0  0  0  0  0
   18.2538   19.1434   20.7721 H   0  0  0  0  0  0  0  0  0  0  0  0
   19.4611   20.3425   21.1816 H   0  0  0  0  0  0  0  0  0  0  0  0
   20.0759   18.2894   21.5843 C   0  0  0  0  0  0  0  0  0  0  0  0
   19.9796   17.3096   21.0968 H   0  0  0  0  0  0  0  0  0  0  0  0
   21.1487   18.5238   21.6142 H   0  0  0  0  0  0  0  0  0  0  0  0
   19.5347   18.1681   23.0291 C   0  0  0  0  0  0  0  0  0  0  0  0
   20.0314   17.3200   23.5204 H   0  0  0  0  0  0  0  0  0  0  0  0
   18.4627   17.9277   23.0057 H   0  0  0  0  0  0  0  0  0  0  0  0
   19.7618   19.4410   23.8855 C   0  0  0  0  0  0  0  0  0  0  0  0
   20.8231   19.7168   23.8795 H   0  0  0  0  0  0  0  0  0  0  0  0
   19.2025   20.2889   23.4746 H   0  0  0  0  0  0  0  0  0  0  0  0
   19.3287   19.2599   25.3359 C   0  0  0  0  0  0  0  0  0  0  0  0
   20.1484   18.8464   26.1320 O   0  5  0  0  0  0  0  0  0  0  0  0
   18.1775   19.5177   25.6273 O   0  0  0  0  0  0  0  0  0  0  0  0
  1  2  1  0  0  0  0
  1  3  1  0  0  0  0
  1  4  2  0  0  0  0
  4  5  1  0  0  0  0
  4  6  1  0  0  0  0
  6  7  1  0  0  0  0
  6  8  1  0  0  0  0
  6  9  1  0  0  0  0
  9 10  1  0  0  0  0
  9 11  1  0  0  0  0
  9 12  1  0  0  0  0
 12 13  1  0  0  0  0
 12 14  1  0  0  0  0
 12 15  1  0  0  0  0
 15 16  1  0  0  0  0
 15 17  1  0  0  0  0
 15 18  1  0  0  0  0
 18 19  1  0  0  0  0
 18 20  2  0  0  0  0
M  END
> <VM2 Rank>
12

> <Conf_Id>
369

> <Probability>
3.45

> <Sum Probability>
76.36

> <Delta G>
0.833

> <G>
-21.055

> <E>
-36.413

> <-TS>
15.358

> <U+W>
-52.509

> <U>
7.428

> <W>
-59.937

> <W(PB)>
-62.138

> <W(SA)>
2.200

> <Valence>
8.548

> <Coulomb>
-2.540

> <VdW>
1.420

> <VdW6>
-7.116

> <VdW12>
8.536

> <Bond>
0.184

> <Angle>
3.112

> <Pdih>
5.251

> <Idih>
0.001

> <Tether>
0.000

$$$$
VeraChem MOL file


 20 19  0  0  0  0  0  0  0  0999 V2000     
   20.4088   17.9381   18.7046 C   0  0  0  0  0  0  0  0  0  0  0  0
   20.7589   17.9801   17.6745 H   0  0  0  0  0  0  0  0  0  0  0  0
   20.5226   16.9936   19.2343 H   0  0  0  0  0  0  0  0  0  0  0  0
   19.8638   19.0064   19.2923 C   0  0  0  0  0  0  0  0  0  0  0  0
   19.7595   19.9426   18.7444 H   0  0  0  0  0  0  0  0  0  0  0  0
   19.3544   19.0230   20.7165 C   0  0  0  0  0  0  0  0  0  0  0  0
   19.2494   17.9951   21.0867 H   0  0  0  0  0  0  0  0  0  0  0  0
   18.3533   19.4736   20.7425 H   0  0  0  0  0  0  0  0  0  0  0  0
   20.3058   19.8201   21.6370 C   0  0  0  0  0  0  0  0  0  0  0  0
   21.2925   19.3369   21.6528 H   0  0  0  0  0  0  0  0  0  0  0  0
   20.4579   20.8209   21.2100 H   0  0  0  0  0  0  0  0  0  0  0  0
   19.7787   19.9764   23.0834 C   0  0  0  0  0  0  0  0  0  0  0  0
   18.7962   20.4682   23.0698 H   0  0  0  0  0  0  0  0  0  0  0  0
   20.4534   20.6470   23.6334 H   0  0  0  0  0  0  0  0  0  0  0  0
   19.6754   18.6340   23.8531 C   0  0  0  0  0  0  0  0  0  0  0  0
   18.9394   17.9733   23.3814 H   0  0  0  0  0  0  0  0  0  0  0  0
   20.6399   18.1125   23.8357 H   0  0  0  0  0  0  0  0  0  0  0  0
   19.2646   18.8200   25.3093 C   0  0  0  0  0  0  0  0  0  0  0  0
   20.1407   18.9726   26.1374 O   0  5  0  0  0  0  0  0  0  0  0  0
   18.0787   18.8274   25.5745 O   0  0  0  0  0  0  0  0  0  0  0  0
  1  2  1  0  0  0  0
  1  3  1  0  0  0  0
  1  4  2  0  0  0  0
  4  5  1  0  0  0  0
  4  6  1  0  0  0  0
  6  7  1  0  0  0  0
  6  8  1  0  0  0  0
  6  9  1  0  0  0  0
  9 10  1  0  0  0  0
  9 11  1  0  0  0  0
  9 12  1  0  0  0  0
 12 13  1  0  0  0  0
 12 14  1  0  0  0  0
 12 15  1  0  0  0  0
 15 16  1  0  0  0  0
 15 17  1  0  0  0  0
 15 18  1  0  0  0  0
 18 19  1  0  0  0  0
 18 20  2  0  0  0  0
M  END
> <VM2 Rank>
13

> <Conf_Id>
350

> <Probability>
3.32

> <Sum Probability>
79.68

> <Delta G>
0.855

> <G>
-21.034

> <E>
-36.029

> <-TS>
14.996

> <U+W>
-52.126

> <U>
7.601

> <W>
-59.727

> <W(PB)>
-61.964

> <W(SA)>
2.236

> <Valence>
9.602

> <Coulomb>
-2.686

> <VdW>
0.685

> <VdW6>
-6.453

> <VdW12>
7.139

> <Bond>
0.125

> <Angle>
2.485

> <Pdih>
6.991

> <Idih>
0.001

> <Tether>
0.000

$$$$
VeraChem MOL file


 20 19  0  0  0  0  0  0  0  0999 V2000     
   19.8561   17.5665   19.8302 C   0  0  0  0  0  0  0  0  0  0  0  0
   18.9629   17.4943   20.4468 H   0  0  0  0  0  0  0  0  0  0  0  0
   20.1965   16.6519   19.3480 H   0  0  0  0  0  0  0  0  0  0  0  0
   20.5160   18.7172   19.6578 C   0  0  0  0  0  0  0  0  0  0  0  0
   21.4041   18.7280   19.0263 H   0  0  0  0  0  0  0  0  0  0  0  0
   20.1672   20.0675   20.2642 C   0  0  0  0  0  0  0  0  0  0  0  0
   19.7573   20.7103   19.4738 H   0  0  0  0  0  0  0  0  0  0  0  0
   21.0940   20.5617   20.5852 H   0  0  0  0  0  0  0  0  0  0  0  0
   19.1837   20.0450   21.4606 C   0  0  0  0  0  0  0  0  0  0  0  0
   18.9016   21.0798   21.6981 H   0  0  0  0  0  0  0  0  0  0  0  0
   18.2544   19.5344   21.1756 H   0  0  0  0  0  0  0  0  0  0  0  0
   19.7916   19.3954   22.7257 C   0  0  0  0  0  0  0  0  0  0  0  0
   20.7034   19.9355   23.0159 H   0  0  0  0  0  0  0  0  0  0  0  0
   20.0924   18.3609   22.5132 H   0  0  0  0  0  0  0  0  0  0  0  0
   18.7950   19.4011   23.9109 C   0  0  0  0  0  0  0  0  0  0  0  0
   18.4978   20.4289   24.1512 H   0  0  0  0  0  0  0  0  0  0  0  0
   17.8836   18.8543   23.6409 H   0  0  0  0  0  0  0  0  0  0  0  0
   19.3715   18.7681   25.1722 C   0  0  0  0  0  0  0  0  0  0  0  0
   19.9893   19.4793   25.9399 O   0  5  0  0  0  0  0  0  0  0  0  0
   19.2005   17.5777   25.3467 O   0  0  0  0  0  0  0  0  0  0  0  0
  1  2  1  0  0  0  0
  1  3  1  0  0  0  0
  1  4  2  0  0  0  0
  4  5  1  0  0  0  0
  4  6  1  0  0  0  0
  6  7  1  0  0  0  0
  6  8  1  0  0  0  0
  6  9  1  0  0  0  0
  9 10  1  0  0  0  0
  9 11  1  0  0  0  0
  9 12  1  0  0  0  0
 12 13  1  0  0  0  0
 12 14  1  0  0  0  0
 12 15  1  0  0  0  0
 15 16  1  0  0  0  0
 15 17  1  0  0  0  0
 15 18  1  0  0  0  0
 18 19  1  0  0  0  0
 18 20  2  0  0  0  0
M  END
> <VM2 Rank>
14

> <Conf_Id>
55

> <Probability>
1.72

> <Sum Probability>
81.40

> <Delta G>
1.245

> <G>
-20.643

> <E>
-36.098

> <-TS>
15.455

> <U+W>
-52.194

> <U>
8.773

> <W>
-60.967

> <W(PB)>
-63.158

> <W(SA)>
2.191

> <Valence>
8.762

> <Coulomb>
-1.079

> <VdW>
1.090

> <VdW6>
-7.279

> <VdW12>
8.369

> <Bond>
0.166

> <Angle>
3.199

> <Pdih>
5.396

> <Idih>
0.001

> <Tether>
0.000

$$$$
VeraChem MOL file


 20 19  0  0  0  0  0  0  0  0999 V2000     
   20.9385   17.8929   19.9699 C   0  0  0  0  0  0  0  0  0  0  0  0
   21.5538   18.2755   20.7812 H   0  0  0  0  0  0  0  0  0  0  0  0
   21.2746   16.9769   19.4871 H   0  0  0  0  0  0  0  0  0  0  0  0
   19.8204   18.5075   19.5680 C   0  0  0  0  0  0  0  0  0  0  0  0
   19.2461   18.0774   18.7478 H   0  0  0  0  0  0  0  0  0  0  0  0
   19.2249   19.7834   20.1426 C   0  0  0  0  0  0  0  0  0  0  0  0
   18.1343   19.6691   20.2034 H   0  0  0  0  0  0  0  0  0  0  0  0
   19.3893   20.5993   19.4263 H   0  0  0  0  0  0  0  0  0  0  0  0
   19.7508   20.2161   21.5337 C   0  0  0  0  0  0  0  0  0  0  0  0
   20.8441   20.3153   21.5097 H   0  0  0  0  0  0  0  0  0  0  0  0
   19.3593   21.2179   21.7572 H   0  0  0  0  0  0  0  0  0  0  0  0
   19.3201   19.2532   22.6648 C   0  0  0  0  0  0  0  0  0  0  0  0
   19.6907   18.2397   22.4614 H   0  0  0  0  0  0  0  0  0  0  0  0
   18.2238   19.1876   22.6959 H   0  0  0  0  0  0  0  0  0  0  0  0
   19.8438   19.7175   24.0462 C   0  0  0  0  0  0  0  0  0  0  0  0
   20.9388   19.7758   24.0351 H   0  0  0  0  0  0  0  0  0  0  0  0
   19.4675   20.7214   24.2764 H   0  0  0  0  0  0  0  0  0  0  0  0
   19.4303   18.7858   25.1798 C   0  0  0  0  0  0  0  0  0  0  0  0
   20.1756   17.8716   25.4722 O   0  5  0  0  0  0  0  0  0  0  0  0
   18.3666   18.9901   25.7308 O   0  0  0  0  0  0  0  0  0  0  0  0
  1  2  1  0  0  0  0
  1  3  1  0  0  0  0
  1  4  2  0  0  0  0
  4  5  1  0  0  0  0
  4  6  1  0  0  0  0
  6  7  1  0  0  0  0
  6  8  1  0  0  0  0
  6  9  1  0  0  0  0
  9 10  1  0  0  0  0
  9 11  1  0  0  0  0
  9 12  1  0  0  0  0
 12 13  1  0  0  0  0
 12 14  1  0  0  0  0
 12 15  1  0  0  0  0
 15 16  1  0  0  0  0
 15 17  1  0  0  0  0
 15 18  1  0  0  0  0
 18 19  1  0  0  0  0
 18 20  2  0  0  0  0
M  END
> <VM2 Rank>
15

> <Conf_Id>
297

> <Probability>
1.56

> <Sum Probability>
82.97

> <Delta G>
1.303

> <G>
-20.585

> <E>
-36.041

> <-TS>
15.456

> <U+W>
-52.137

> <U>
8.773

> <W>
-60.910

> <W(PB)>
-63.120

> <W(SA)>
2.210

> <Valence>
8.762

> <Coulomb>
-1.079

> <VdW>
1.090

> <VdW6>
-7.279

> <VdW12>
8.369

> <Bond>
0.166

> <Angle>
3.199

> <Pdih>
5.396

> <Idih>
0.000

> <Tether>
0.000

$$$$
VeraChem MOL file


 20 19  0  0  0  0  0  0  0  0999 V2000     
   19.5297   18.5190   18.5565 C   0  0  0  0  0  0  0  0  0  0  0  0
   18.7844   18.5315   17.7630 H   0  0  0  0  0  0  0  0  0  0  0  0
   20.3346   17.7901   18.4765 H   0  0  0  0  0  0  0  0  0  0  0  0
   19.4544   19.3649   19.5873 C   0  0  0  0  0  0  0  0  0  0  0  0
   18.6399   20.0863   19.6490 H   0  0  0  0  0  0  0  0  0  0  0  0
   20.4511   19.4068   20.7242 C   0  0  0  0  0  0  0  0  0  0  0  0
   20.7665   20.4443   20.8982 H   0  0  0  0  0  0  0  0  0  0  0  0
   21.3550   18.8418   20.4585 H   0  0  0  0  0  0  0  0  0  0  0  0
   19.8440   18.8270   22.0190 C   0  0  0  0  0  0  0  0  0  0  0  0
   18.9416   19.3952   22.2837 H   0  0  0  0  0  0  0  0  0  0  0  0
   19.5255   17.7909   21.8396 H   0  0  0  0  0  0  0  0  0  0  0  0
   20.8492   18.8652   23.1922 C   0  0  0  0  0  0  0  0  0  0  0  0
   21.1617   19.9016   23.3813 H   0  0  0  0  0  0  0  0  0  0  0  0
   21.7537   18.3083   22.9125 H   0  0  0  0  0  0  0  0  0  0  0  0
   20.2677   18.2583   24.4955 C   0  0  0  0  0  0  0  0  0  0  0  0
   19.9254   17.2320   24.3158 H   0  0  0  0  0  0  0  0  0  0  0  0
   21.0548   18.2018   25.2565 H   0  0  0  0  0  0  0  0  0  0  0  0
   19.1136   19.0595   25.0914 C   0  0  0  0  0  0  0  0  0  0  0  0
   19.3758   20.0918   25.6769 O   0  5  0  0  0  0  0  0  0  0  0  0
   17.9855   18.6255   24.9650 O   0  0  0  0  0  0  0  0  0  0  0  0
  1  2  1  0  0  0  0
  1  3  1  0  0  0  0
  1  4  2  0  0  0  0
  4  5  1  0  0  0  0
  4  6  1  0  0  0  0
  6  7  1  0  0  0  0
  6  8  1  0  0  0  0
  6  9  1  0  0  0  0
  9 10  1  0  0  0  0
  9 11  1  0  0  0  0
  9 12  1  0  0  0  0
 12 13  1  0  0  0  0
 12 14  1  0  0  0  0
 12 15  1  0  0  0  0
 15 16  1  0  0  0  0
 15 17  1  0  0  0  0
 15 18  1  0  0  0  0
 18 19  1  0  0  0  0
 18 20  2  0  0  0  0
M  END
> <VM2 Rank>
16

> <Conf_Id>
412

> <Probability>
1.48

> <Sum Probability>
84.45

> <Delta G>
1.336

> <G>
-20.552

> <E>
-35.756

> <-TS>
15.204

> <U+W>
-51.853

> <U>
8.963

> <W>
-60.816

> <W(PB)>
-63.056

> <W(SA)>
2.240

> <Valence>
9.327

> <Coulomb>
-0.780

> <VdW>
0.417

> <VdW6>
-6.635

> <VdW12>
7.052

> <Bond>
0.105

> <Angle>
2.399

> <Pdih>
6.822

> <Idih>
0.000

> <Tether>
0.000

$$$$
VeraChem MOL file


 20 19  0  0  0  0  0  0  0  0999 V2000     
   19.1061   19.7954   18.8819 C   0  0  0  0  0  0  0  0  0  0  0  0
   18.4278   19.6319   18.0461 H   0  0  0  0  0  0  0  0  0  0  0  0
   19.3089   20.8261   19.1683 H   0  0  0  0  0  0  0  0  0  0  0  0
   19.6634   18.7688   19.5294 C   0  0  0  0  0  0  0  0  0  0  0  0
   19.4465   17.7444   19.2273 H   0  0  0  0  0  0  0  0  0  0  0  0
   20.6138   18.9180   20.6965 C   0  0  0  0  0  0  0  0  0  0  0  0
   20.9719   19.9542   20.7653 H   0  0  0  0  0  0  0  0  0  0  0  0
   21.4983   18.2881   20.5325 H   0  0  0  0  0  0  0  0  0  0  0  0
   19.9338   18.5207   22.0235 C   0  0  0  0  0  0  0  0  0  0  0  0
   19.0464   19.1503   22.1778 H   0  0  0  0  0  0  0  0  0  0  0  0
   19.5791   17.4830   21.9569 H   0  0  0  0  0  0  0  0  0  0  0  0
   20.8934   18.6645   23.2263 C   0  0  0  0  0  0  0  0  0  0  0  0
   21.2390   19.7048   23.3045 H   0  0  0  0  0  0  0  0  0  0  0  0
   21.7854   18.0471   23.0540 H   0  0  0  0  0  0  0  0  0  0  0  0
   20.2383   18.2391   24.5660 C   0  0  0  0  0  0  0  0  0  0  0  0
   19.8637   17.2107   24.4950 H   0  0  0  0  0  0  0  0  0  0  0  0
   20.9924   18.2481   25.3618 H   0  0  0  0  0  0  0  0  0  0  0  0
   19.0938   19.1447   25.0119 C   0  0  0  0  0  0  0  0  0  0  0  0
   19.3727   20.2311   25.4800 O   0  5  0  0  0  0  0  0  0  0  0  0
   17.9557   18.7356   24.8924 O   0  0  0  0  0  0  0  0  0  0  0  0
  1  2  1  0  0  0  0
  1  3  1  0  0  0  0
  1  4  2  0  0  0  0
  4  5  1  0  0  0  0
  4  6  1  0  0  0  0
  6  7  1  0  0  0  0
  6  8  1  0  0  0  0
  6  9  1  0  0  0  0
  9 10  1  0  0  0  0
  9 11  1  0  0  0  0
  9 12  1  0  0  0  0
 12 13  1  0  0  0  0
 12 14  1  0  0  0  0
 12 15  1  0  0  0  0
 15 16  1  0  0  0  0
 15 17  1  0  0  0  0
 15 18  1  0  0  0  0
 18 19  1  0  0  0  0
 18 20  2  0  0  0  0
M  END
> <VM2 Rank>
17

> <Conf_Id>
232

> <Probability>
1.35

> <Sum Probability>
85.80

> <Delta G>
1.391

> <G>
-20.498

> <E>
-35.704

> <-TS>
15.207

> <U+W>
-51.801

> <U>
9.411

> <W>
-61.212

> <W(PB)>
-63.461

> <W(SA)>
2.249

> <Valence>
9.329

> <Coulomb>
-0.325

> <VdW>
0.406

> <VdW6>
-6.640

> <VdW12>
7.046

> <Bond>
0.105

> <Angle>
2.401

> <Pdih>
6.823

> <Idih>
0.000

> <Tether>
0.000

$$$$
VeraChem MOL file


 20 19  0  0  0  0  0  0  0  0999 V2000     
   19.9491   18.1919   18.6169 C   0  0  0  0  0  0  0  0  0  0  0  0
   19.0815   18.7666   18.2967 H   0  0  0  0  0  0  0  0  0  0  0  0
   20.2711   17.3724   17.9767 H   0  0  0  0  0  0  0  0  0  0  0  0
   20.5944   18.4762   19.7511 C   0  0  0  0  0  0  0  0  0  0  0  0
   21.4602   17.8879   20.0541 H   0  0  0  0  0  0  0  0  0  0  0  0
   20.2064   19.5976   20.6891 C   0  0  0  0  0  0  0  0  0  0  0  0
   19.5061   20.2832   20.1929 H   0  0  0  0  0  0  0  0  0  0  0  0
   21.0972   20.1865   20.9457 H   0  0  0  0  0  0  0  0  0  0  0  0
   19.5614   19.0474   21.9784 C   0  0  0  0  0  0  0  0  0  0  0  0
   18.6736   18.4551   21.7173 H   0  0  0  0  0  0  0  0  0  0  0  0
   20.2647   18.3638   22.4738 H   0  0  0  0  0  0  0  0  0  0  0  0
   19.1616   20.1809   22.9498 C   0  0  0  0  0  0  0  0  0  0  0  0
   18.4714   20.8674   22.4410 H   0  0  0  0  0  0  0  0  0  0  0  0
   20.0494   20.7689   23.2215 H   0  0  0  0  0  0  0  0  0  0  0  0
   18.4832   19.6496   24.2391 C   0  0  0  0  0  0  0  0  0  0  0  0
   18.1153   20.4937   24.8342 H   0  0  0  0  0  0  0  0  0  0  0  0
   17.6102   19.0370   23.9832 H   0  0  0  0  0  0  0  0  0  0  0  0
   19.4084   18.8296   25.1338 C   0  0  0  0  0  0  0  0  0  0  0  0
   20.2340   19.4227   25.7999 O   0  5  0  0  0  0  0  0  0  0  0  0
   19.2725   17.6220   25.1499 O   0  0  0  0  0  0  0  0  0  0  0  0
  1  2  1  0  0  0  0
  1  3  1  0  0  0  0
  1  4  2  0  0  0  0
  4  5  1  0  0  0  0
  4  6  1  0  0  0  0
  6  7  1  0  0  0  0
  6  8  1  0  0  0  0
  6  9  1  0  0  0  0
  9 10  1  0  0  0  0
  9 11  1  0  0  0  0
  9 12  1  0  0  0  0
 12 13  1  0  0  0  0
 12 14  1  0  0  0  0
 12 15  1  0  0  0  0
 15 16  1  0  0  0  0
 15 17  1  0  0  0  0
 15 18  1  0  0  0  0
 18 19  1  0  0  0  0
 18 20  2  0  0  0  0
M  END
> <VM2 Rank>
18

> <Conf_Id>
40

> <Probability>
1.34

> <Sum Probability>
87.14

> <Delta G>
1.398

> <G>
-20.491

> <E>
-35.696

> <-TS>
15.205

> <U+W>
-51.793

> <U>
8.964

> <W>
-60.756

> <W(PB)>
-63.007

> <W(SA)>
2.251

> <Valence>
9.327

> <Coulomb>
-0.779

> <VdW>
0.417

> <VdW6>
-6.635

> <VdW12>
7.052

> <Bond>
0.105

> <Angle>
2.400

> <Pdih>
6.822

> <Idih>
0.000

> <Tether>
0.000

$$$$
VeraChem MOL file


 20 19  0  0  0  0  0  0  0  0999 V2000     
   20.6146   17.7278   19.1010 C   0  0  0  0  0  0  0  0  0  0  0  0
   20.3332   17.0205   18.3227 H   0  0  0  0  0  0  0  0  0  0  0  0
   21.6230   17.6535   19.5047 H   0  0  0  0  0  0  0  0  0  0  0  0
   19.7524   18.6474   19.5423 C   0  0  0  0  0  0  0  0  0  0  0  0
   18.7470   18.7041   19.1254 H   0  0  0  0  0  0  0  0  0  0  0  0
   20.0714   19.6616   20.6180 C   0  0  0  0  0  0  0  0  0  0  0  0
   19.7666   20.6616   20.2818 H   0  0  0  0  0  0  0  0  0  0  0  0
   21.1553   19.7031   20.7921 H   0  0  0  0  0  0  0  0  0  0  0  0
   19.3522   19.3177   21.9392 C   0  0  0  0  0  0  0  0  0  0  0  0
   18.2678   19.2800   21.7668 H   0  0  0  0  0  0  0  0  0  0  0  0
   19.6568   18.3138   22.2662 H   0  0  0  0  0  0  0  0  0  0  0  0
   19.6652   20.3471   23.0485 C   0  0  0  0  0  0  0  0  0  0  0  0
   19.3751   21.3494   22.7051 H   0  0  0  0  0  0  0  0  0  0  0  0
   20.7481   20.3773   23.2335 H   0  0  0  0  0  0  0  0  0  0  0  0
   18.9260   20.0367   24.3760 C   0  0  0  0  0  0  0  0  0  0  0  0
   19.0885   20.8560   25.0862 H   0  0  0  0  0  0  0  0  0  0  0  0
   17.8448   19.9765   24.2025 H   0  0  0  0  0  0  0  0  0  0  0  0
   19.3832   18.7482   25.0538 C   0  0  0  0  0  0  0  0  0  0  0  0
   20.4502   18.7551   25.6357 O   0  5  0  0  0  0  0  0  0  0  0  0
   18.6559   17.7764   24.9936 O   0  0  0  0  0  0  0  0  0  0  0  0
  1  2  1  0  0  0  0
  1  3  1  0  0  0  0
  1  4  2  0  0  0  0
  4  5  1  0  0  0  0
  4  6  1  0  0  0  0
  6  7  1  0  0  0  0
  6  8  1  0  0  0  0
  6  9  1  0  0  0  0
  9 10  1  0  0  0  0
  9 11  1  0  0  0  0
  9 12  1  0  0  0  0
 12 13  1  0  0  0  0
 12 14  1  0  0  0  0
 12 15  1  0  0  0  0
 15 16  1  0  0  0  0
 15 17  1  0  0  0  0
 15 18  1  0  0  0  0
 18 19  1  0  0  0  0
 18 20  2  0  0  0  0
M  END
> <VM2 Rank>
19

> <Conf_Id>
558

> <Probability>
1.32

> <Sum Probability>
88.45

> <Delta G>
1.407

> <G>
-20.482

> <E>
-35.688

> <-TS>
15.207

> <U+W>
-51.785

> <U>
9.412

> <W>
-61.197

> <W(PB)>
-63.440

> <W(SA)>
2.243

> <Valence>
9.329

> <Coulomb>
-0.323

> <VdW>
0.406

> <VdW6>
-6.640

> <VdW12>
7.047

> <Bond>
0.105

> <Angle>
2.401

> <Pdih>
6.823

> <Idih>
0.000

> <Tether>
0.000

$$$$
VeraChem MOL file


 20 19  0  0  0  0  0  0  0  0999 V2000     
   20.7856   17.7538   19.5834 C   0  0  0  0  0  0  0  0  0  0  0  0
   21.1263   17.1680   18.7313 H   0  0  0  0  0  0  0  0  0  0  0  0
   21.2097   17.5022   20.5532 H   0  0  0  0  0  0  0  0  0  0  0  0
   19.8870   18.7321   19.4245 C   0  0  0  0  0  0  0  0  0  0  0  0
   19.4978   18.9374   18.4275 H   0  0  0  0  0  0  0  0  0  0  0  0
   19.3195   19.6296   20.5115 C   0  0  0  0  0  0  0  0  0  0  0  0
   18.2260   19.5280   20.5180 H   0  0  0  0  0  0  0  0  0  0  0  0
   19.5182   20.6760   20.2442 H   0  0  0  0  0  0  0  0  0  0  0  0
   19.8622   19.3575   21.9341 C   0  0  0  0  0  0  0  0  0  0  0  0
   19.6489   18.3165   22.2135 H   0  0  0  0  0  0  0  0  0  0  0  0
   20.9543   19.4768   21.9400 H   0  0  0  0  0  0  0  0  0  0  0  0
   19.2370   20.3109   22.9776 C   0  0  0  0  0  0  0  0  0  0  0  0
   18.1450   20.1875   22.9876 H   0  0  0  0  0  0  0  0  0  0  0  0
   19.4350   21.3505   22.6835 H   0  0  0  0  0  0  0  0  0  0  0  0
   19.7931   20.0779   24.4064 C   0  0  0  0  0  0  0  0  0  0  0  0
   20.8857   20.1731   24.4078 H   0  0  0  0  0  0  0  0  0  0  0  0
   19.4062   20.8508   25.0809 H   0  0  0  0  0  0  0  0  0  0  0  0
   19.4215   18.7235   25.0034 C   0  0  0  0  0  0  0  0  0  0  0  0
   20.2783   17.8633   25.0570 O   0  5  0  0  0  0  0  0  0  0  0  0
   18.2867   18.5694   25.4102 O   0  0  0  0  0  0  0  0  0  0  0  0
  1  2  1  0  0  0  0
  1  3  1  0  0  0  0
  1  4  2  0  0  0  0
  4  5  1  0  0  0  0
  4  6  1  0  0  0  0
  6  7  1  0  0  0  0
  6  8  1  0  0  0  0
  6  9  1  0  0  0  0
  9 10  1  0  0  0  0
  9 11  1  0  0  0  0
  9 12  1  0  0  0  0
 12 13  1  0  0  0  0
 12 14  1  0  0  0  0
 12 15  1  0  0  0  0
 15 16  1  0  0  0  0
 15 17  1  0  0  0  0
 15 18  1  0  0  0  0
 18 19  1  0  0  0  0
 18 20  2  0  0  0  0
M  END
> <VM2 Rank>
20

> <Conf_Id>
332

> <Probability>
1.18

> <Sum Probability>
89.63

> <Delta G>
1.471

> <G>
-20.417

> <E>
-35.990

> <-TS>
15.572

> <U+W>
-52.086

> <U>
9.323

> <W>
-61.409

> <W(PB)>
-63.641

> <W(SA)>
2.232

> <Valence>
8.234

> <Coulomb>
-0.022

> <VdW>
1.111

> <VdW6>
-7.367

> <VdW12>
8.478

> <Bond>
0.158

> <Angle>
3.010

> <Pdih>
5.066

> <Idih>
0.000

> <Tether>
0.000

$$$$
VeraChem MOL file


 20 19  0  0  0  0  0  0  0  0999 V2000     
   21.1011   18.4808   19.1431 C   0  0  0  0  0  0  0  0  0  0  0  0
   20.4253   18.4884   18.2894 H   0  0  0  0  0  0  0  0  0  0  0  0
   22.0712   18.0050   19.0101 H   0  0  0  0  0  0  0  0  0  0  0  0
   20.7560   19.0299   20.3106 C   0  0  0  0  0  0  0  0  0  0  0  0
   21.4483   19.0135   21.1520 H   0  0  0  0  0  0  0  0  0  0  0  0
   19.4295   19.7122   20.5679 C   0  0  0  0  0  0  0  0  0  0  0  0
   18.9616   19.9833   19.6119 H   0  0  0  0  0  0  0  0  0  0  0  0
   19.5916   20.6577   21.1007 H   0  0  0  0  0  0  0  0  0  0  0  0
   18.4474   18.8143   21.3583 C   0  0  0  0  0  0  0  0  0  0  0  0
   17.4887   19.3399   21.4645 H   0  0  0  0  0  0  0  0  0  0  0  0
   18.2381   17.9132   20.7656 H   0  0  0  0  0  0  0  0  0  0  0  0
   18.9480   18.3846   22.7601 C   0  0  0  0  0  0  0  0  0  0  0  0
   19.8707   17.7962   22.6657 H   0  0  0  0  0  0  0  0  0  0  0  0
   18.2021   17.7135   23.2080 H   0  0  0  0  0  0  0  0  0  0  0  0
   19.1896   19.5748   23.7243 C   0  0  0  0  0  0  0  0  0  0  0  0
   19.9949   20.2167   23.3499 H   0  0  0  0  0  0  0  0  0  0  0  0
   18.2866   20.1926   23.7974 H   0  0  0  0  0  0  0  0  0  0  0  0
   19.5712   19.1258   25.1302 C   0  0  0  0  0  0  0  0  0  0  0  0
   20.7488   18.9591   25.3797 O   0  5  0  0  0  0  0  0  0  0  0  0
   18.6794   18.9365   25.9337 O   0  0  0  0  0  0  0  0  0  0  0  0
  1  2  1  0  0  0  0
  1  3  1  0  0  0  0
  1  4  2  0  0  0  0
  4  5  1  0  0  0  0
  4  6  1  0  0  0  0
  6  7  1  0  0  0  0
  6  8  1  0  0  0  0
  6  9  1  0  0  0  0
  9 10  1  0  0  0  0
  9 11  1  0  0  0  0
  9 12  1  0  0  0  0
 12 13  1  0  0  0  0
 12 14  1  0  0  0  0
 12 15  1  0  0  0  0
 15 16  1  0  0  0  0
 15 17  1  0  0  0  0
 15 18  1  0  0  0  0
 18 19  1  0  0  0  0
 18 20  2  0  0  0  0
M  END
> <VM2 Rank>
21

> <Conf_Id>
528

> <Probability>
1.05

> <Sum Probability>
90.68

> <Delta G>
1.542

> <G>
-20.346

> <E>
-35.613

> <-TS>
15.267

> <U+W>
-51.709

> <U>
8.691

> <W>
-60.400

> <W(PB)>
-62.593

> <W(SA)>
2.193

> <Valence>
9.775

> <Coulomb>
-1.698

> <VdW>
0.614

> <VdW6>
-7.233

> <VdW12>
7.847

> <Bond>
0.151

> <Angle>
2.692

> <Pdih>
6.931

> <Idih>
0.001

> <Tether>
0.000

$$$$
VeraChem MOL file


 20 19  0  0  0  0  0  0  0  0999 V2000     
   19.5970   18.0277   18.9490 C   0  0  0  0  0  0  0  0  0  0  0  0
   20.3363   18.4618   18.2778 H   0  0  0  0  0  0  0  0  0  0  0  0
   19.1050   17.1114   18.6274 H   0  0  0  0  0  0  0  0  0  0  0  0
   19.3044   18.5925   20.1234 C   0  0  0  0  0  0  0  0  0  0  0  0
   18.5595   18.1429   20.7795 H   0  0  0  0  0  0  0  0  0  0  0  0
   19.9424   19.8667   20.6341 C   0  0  0  0  0  0  0  0  0  0  0  0
   19.1732   20.5316   21.0467 H   0  0  0  0  0  0  0  0  0  0  0  0
   20.3948   20.4150   19.7968 H   0  0  0  0  0  0  0  0  0  0  0  0
   21.0385   19.5949   21.6925 C   0  0  0  0  0  0  0  0  0  0  0  0
   21.8355   18.9970   21.2297 H   0  0  0  0  0  0  0  0  0  0  0  0
   21.5005   20.5486   21.9819 H   0  0  0  0  0  0  0  0  0  0  0  0
   20.5422   18.8650   22.9658 C   0  0  0  0  0  0  0  0  0  0  0  0
   21.4042   18.6784   23.6211 H   0  0  0  0  0  0  0  0  0  0  0  0
   20.1407   17.8775   22.7006 H   0  0  0  0  0  0  0  0  0  0  0  0
   19.4752   19.6609   23.7612 C   0  0  0  0  0  0  0  0  0  0  0  0
   19.8497   20.6636   23.9990 H   0  0  0  0  0  0  0  0  0  0  0  0
   18.5640   19.7855   23.1653 H   0  0  0  0  0  0  0  0  0  0  0  0
   19.0844   18.9791   25.0674 C   0  0  0  0  0  0  0  0  0  0  0  0
   19.7187   19.2502   26.0679 O   0  5  0  0  0  0  0  0  0  0  0  0
   18.1682   18.1811   25.0467 O   0  0  0  0  0  0  0  0  0  0  0  0
  1  2  1  0  0  0  0
  1  3  1  0  0  0  0
  1  4  2  0  0  0  0
  4  5  1  0  0  0  0
  4  6  1  0  0  0  0
  6  7  1  0  0  0  0
  6  8  1  0  0  0  0
  6  9  1  0  0  0  0
  9 10  1  0  0  0  0
  9 11  1  0  0  0  0
  9 12  1  0  0  0  0
 12 13  1  0  0  0  0
 12 14  1  0  0  0  0
 12 15  1  0  0  0  0
 15 16  1  0  0  0  0
 15 17  1  0  0  0  0
 15 18  1  0  0  0  0
 18 19  1  0  0  0  0
 18 20  2  0  0  0  0
M  END
> <VM2 Rank>
22

> <Conf_Id>
168

> <Probability>
1.00

> <Sum Probability>
91.68

> <Delta G>
1.569

> <G>
-20.320

> <E>
-35.586

> <-TS>
15.267

> <U+W>
-51.683

> <U>
8.691

> <W>
-60.374

> <W(PB)>
-62.581

> <W(SA)>
2.207

> <Valence>
9.775

> <Coulomb>
-1.698

> <VdW>
0.614

> <VdW6>
-7.233

> <VdW12>
7.847

> <Bond>
0.151

> <Angle>
2.692

> <Pdih>
6.931

> <Idih>
0.001

> <Tether>
0.000

$$$$
VeraChem MOL file


 20 19  0  0  0  0  0  0  0  0999 V2000     
   20.2575   18.2020   18.3039 C   0  0  0  0  0  0  0  0  0  0  0  0
   19.6540   17.3088   18.4577 H   0  0  0  0  0  0  0  0  0  0  0  0
   20.9056   18.2242   17.4294 H   0  0  0  0  0  0  0  0  0  0  0  0
   20.2096   19.2312   19.1536 C   0  0  0  0  0  0  0  0  0  0  0  0
   20.8225   20.1158   18.9818 H   0  0  0  0  0  0  0  0  0  0  0  0
   19.3347   19.2724   20.3867 C   0  0  0  0  0  0  0  0  0  0  0  0
   18.5762   18.4790   20.3415 H   0  0  0  0  0  0  0  0  0  0  0  0
   18.7920   20.2266   20.4205 H   0  0  0  0  0  0  0  0  0  0  0  0
   20.1739   19.1084   21.6711 C   0  0  0  0  0  0  0  0  0  0  0  0
   20.7178   18.1545   21.6303 H   0  0  0  0  0  0  0  0  0  0  0  0
   20.9294   19.9048   21.7181 H   0  0  0  0  0  0  0  0  0  0  0  0
   19.2958   19.1511   22.9408 C   0  0  0  0  0  0  0  0  0  0  0  0
   18.5402   18.3545   22.8947 H   0  0  0  0  0  0  0  0  0  0  0  0
   18.7506   20.1043   22.9815 H   0  0  0  0  0  0  0  0  0  0  0  0
   20.1402   18.9854   24.2323 C   0  0  0  0  0  0  0  0  0  0  0  0
   20.6821   18.0329   24.2012 H   0  0  0  0  0  0  0  0  0  0  0  0
   20.8924   19.7810   24.2881 H   0  0  0  0  0  0  0  0  0  0  0  0
   19.3463   19.0159   25.5392 C   0  0  0  0  0  0  0  0  0  0  0  0
   19.9736   18.8905   26.5721 O   0  5  0  0  0  0  0  0  0  0  0  0
   18.1394   19.1612   25.5083 O   0  0  0  0  0  0  0  0  0  0  0  0
  1  2  1  0  0  0  0
  1  3  1  0  0  0  0
  1  4  2  0  0  0  0
  4  5  1  0  0  0  0
  4  6  1  0  0  0  0
  6  7  1  0  0  0  0
  6  8  1  0  0  0  0
  6  9  1  0  0  0  0
  9 10  1  0  0  0  0
  9 11  1  0  0  0  0
  9 12  1  0  0  0  0
 12 13  1  0  0  0  0
 12 14  1  0  0  0  0
 12 15  1  0  0  0  0
 15 16  1  0  0  0  0
 15 17  1  0  0  0  0
 15 18  1  0  0  0  0
 18 19  1  0  0  0  0
 18 20  2  0  0  0  0
M  END
> <VM2 Rank>
23

> <Conf_Id>
33

> <Probability>
0.86

> <Sum Probability>
92.55

> <Delta G>
1.657

> <G>
-20.231

> <E>
-35.649

> <-TS>
15.418

> <U+W>
-51.745

> <U>
7.593

> <W>
-59.338

> <W(PB)>
-61.574

> <W(SA)>
2.236

> <Valence>
9.570

> <Coulomb>
-3.091

> <VdW>
1.114

> <VdW6>
-6.064

> <VdW12>
7.178

> <Bond>
0.117

> <Angle>
2.692

> <Pdih>
6.761

> <Idih>
0.000

> <Tether>
0.000

$$$$
VeraChem MOL file


 20 19  0  0  0  0  0  0  0  0999 V2000     
   19.0972   17.5637   20.1213 C   0  0  0  0  0  0  0  0  0  0  0  0
   19.2868   16.5692   19.7213 H   0  0  0  0  0  0  0  0  0  0  0  0
   18.1661   17.7164   20.6644 H   0  0  0  0  0  0  0  0  0  0  0  0
   19.9780   18.5540   19.9552 C   0  0  0  0  0  0  0  0  0  0  0  0
   20.9058   18.3793   19.4113 H   0  0  0  0  0  0  0  0  0  0  0  0
   19.7848   19.9600   20.4821 C   0  0  0  0  0  0  0  0  0  0  0  0
   18.7497   20.1109   20.8142 H   0  0  0  0  0  0  0  0  0  0  0  0
   19.9460   20.6732   19.6629 H   0  0  0  0  0  0  0  0  0  0  0  0
   20.7657   20.2973   21.6308 C   0  0  0  0  0  0  0  0  0  0  0  0
   21.7945   20.2094   21.2558 H   0  0  0  0  0  0  0  0  0  0  0  0
   20.6340   21.3494   21.9180 H   0  0  0  0  0  0  0  0  0  0  0  0
   20.6136   19.4050   22.8880 C   0  0  0  0  0  0  0  0  0  0  0  0
   21.4027   19.6709   23.6048 H   0  0  0  0  0  0  0  0  0  0  0  0
   20.7802   18.3518   22.6234 H   0  0  0  0  0  0  0  0  0  0  0  0
   19.2366   19.5502   23.5865 C   0  0  0  0  0  0  0  0  0  0  0  0
   19.0362   20.6038   23.8138 H   0  0  0  0  0  0  0  0  0  0  0  0
   18.4333   19.1995   22.9289 H   0  0  0  0  0  0  0  0  0  0  0  0
   19.1493   18.7617   24.8883 C   0  0  0  0  0  0  0  0  0  0  0  0
   19.5327   19.2977   25.9094 O   0  5  0  0  0  0  0  0  0  0  0  0
   18.7131   17.6283   24.8464 O   0  0  0  0  0  0  0  0  0  0  0  0
  1  2  1  0  0  0  0
  1  3  1  0  0  0  0
  1  4  2  0  0  0  0
  4  5  1  0  0  0  0
  4  6  1  0  0  0  0
  6  7  1  0  0  0  0
  6  8  1  0  0  0  0
  6  9  1  0  0  0  0
  9 10  1  0  0  0  0
  9 11  1  0  0  0  0
  9 12  1  0  0  0  0
 12 13  1  0  0  0  0
 12 14  1  0  0  0  0
 12 15  1  0  0  0  0
 15 16  1  0  0  0  0
 15 17  1  0  0  0  0
 15 18  1  0  0  0  0
 18 19  1  0  0  0  0
 18 20  2  0  0  0  0
M  END
> <VM2 Rank>
24

> <Conf_Id>
550

> <Probability>
0.70

> <Sum Probability>
93.25

> <Delta G>
1.785

> <G>
-20.104

> <E>
-35.457

> <-TS>
15.354

> <U+W>
-51.554

> <U>
9.796

> <W>
-61.350

> <W(PB)>
-63.512

> <W(SA)>
2.162

> <Valence>
9.746

> <Coulomb>
-0.310

> <VdW>
0.360

> <VdW6>
-7.585

> <VdW12>
7.945

> <Bond>
0.150

> <Angle>
2.663

> <Pdih>
6.933

> <Idih>
0.000

> <Tether>
0.000

$$$$
VeraChem MOL file


 20 19  0  0  0  0  0  0  0  0999 V2000     
   19.0087   17.6202   20.1112 C   0  0  0  0  0  0  0  0  0  0  0  0
   18.1033   17.3248   19.5840 H   0  0  0  0  0  0  0  0  0  0  0  0
   19.4360   16.9054   20.8125 H   0  0  0  0  0  0  0  0  0  0  0  0
   19.5671   18.8163   19.9075 C   0  0  0  0  0  0  0  0  0  0  0  0
   19.1213   19.5187   19.2038 H   0  0  0  0  0  0  0  0  0  0  0  0
   20.8228   19.2972   20.6030 C   0  0  0  0  0  0  0  0  0  0  0  0
   21.5321   19.6602   19.8475 H   0  0  0  0  0  0  0  0  0  0  0  0
   21.3255   18.4662   21.1141 H   0  0  0  0  0  0  0  0  0  0  0  0
   20.5384   20.4425   21.6042 C   0  0  0  0  0  0  0  0  0  0  0  0
   21.4903   20.8026   22.0177 H   0  0  0  0  0  0  0  0  0  0  0  0
   20.1020   21.2904   21.0587 H   0  0  0  0  0  0  0  0  0  0  0  0
   19.5925   20.0572   22.7690 C   0  0  0  0  0  0  0  0  0  0  0  0
   18.6216   19.7306   22.3721 H   0  0  0  0  0  0  0  0  0  0  0  0
   19.3929   20.9546   23.3707 H   0  0  0  0  0  0  0  0  0  0  0  0
   20.1689   18.9548   23.6950 C   0  0  0  0  0  0  0  0  0  0  0  0
   20.2885   18.0147   23.1448 H   0  0  0  0  0  0  0  0  0  0  0  0
   21.1601   19.2474   24.0611 H   0  0  0  0  0  0  0  0  0  0  0  0
   19.2827   18.6765   24.9038 C   0  0  0  0  0  0  0  0  0  0  0  0
   19.4411   19.3562   25.8987 O   0  5  0  0  0  0  0  0  0  0  0  0
   18.4488   17.7970   24.8156 O   0  0  0  0  0  0  0  0  0  0  0  0
  1  2  1  0  0  0  0
  1  3  1  0  0  0  0
  1  4  2  0  0  0  0
  4  5  1  0  0  0  0
  4  6  1  0  0  0  0
  6  7  1  0  0  0  0
  6  8  1  0  0  0  0
  6  9  1  0  0  0  0
  9 10  1  0  0  0  0
  9 11  1  0  0  0  0
  9 12  1  0  0  0  0
 12 13  1  0  0  0  0
 12 14  1  0  0  0  0
 12 15  1  0  0  0  0
 15 16  1  0  0  0  0
 15 17  1  0  0  0  0
 15 18  1  0  0  0  0
 18 19  1  0  0  0  0
 18 20  2  0  0  0  0
M  END
> <VM2 Rank>
25

> <Conf_Id>
565

> <Probability>
0.66

> <Sum Probability>
93.91

> <Delta G>
1.814

> <G>
-20.074

> <E>
-35.428

> <-TS>
15.354

> <U+W>
-51.524

> <U>
9.796

> <W>
-61.320

> <W(PB)>
-63.481

> <W(SA)>
2.161

> <Valence>
9.746

> <Coulomb>
-0.310

> <VdW>
0.360

> <VdW6>
-7.585

> <VdW12>
7.945

> <Bond>
0.150

> <Angle>
2.663

> <Pdih>
6.933

> <Idih>
0.000

> <Tether>
0.000

$$$$
VeraChem MOL file


 20 19  0  0  0  0  0  0  0  0999 V2000     
   20.6907   17.6974   19.4989 C   0  0  0  0  0  0  0  0  0  0  0  0
   19.8379   17.0764   19.2294 H   0  0  0  0  0  0  0  0  0  0  0  0
   21.6834   17.3070   19.2814 H   0  0  0  0  0  0  0  0  0  0  0  0
   20.5297   18.8905   20.0771 C   0  0  0  0  0  0  0  0  0  0  0  0
   21.3971   19.4970   20.3361 H   0  0  0  0  0  0  0  0  0  0  0  0
   19.1826   19.4992   20.4035 C   0  0  0  0  0  0  0  0  0  0  0  0
   18.3997   19.0050   19.8126 H   0  0  0  0  0  0  0  0  0  0  0  0
   19.1688   20.5569   20.1085 H   0  0  0  0  0  0  0  0  0  0  0  0
   18.8270   19.3709   21.9020 C   0  0  0  0  0  0  0  0  0  0  0  0
   17.7926   19.7095   22.0508 H   0  0  0  0  0  0  0  0  0  0  0  0
   18.8541   18.3114   22.1923 H   0  0  0  0  0  0  0  0  0  0  0  0
   19.7667   20.1930   22.8157 C   0  0  0  0  0  0  0  0  0  0  0  0
   19.7690   21.2403   22.4847 H   0  0  0  0  0  0  0  0  0  0  0  0
   20.7985   19.8282   22.7202 H   0  0  0  0  0  0  0  0  0  0  0  0
   19.3445   20.1375   24.3069 C   0  0  0  0  0  0  0  0  0  0  0  0
   19.9685   20.8250   24.8900 H   0  0  0  0  0  0  0  0  0  0  0  0
   18.3076   20.4760   24.4205 H   0  0  0  0  0  0  0  0  0  0  0  0
   19.4769   18.7540   24.9372 C   0  0  0  0  0  0  0  0  0  0  0  0
   20.5862   18.3750   25.2579 O   0  5  0  0  0  0  0  0  0  0  0  0
   18.4667   18.1004   25.1088 O   0  0  0  0  0  0  0  0  0  0  0  0
  1  2  1  0  0  0  0
  1  3  1  0  0  0  0
  1  4  2  0  0  0  0
  4  5  1  0  0  0  0
  4  6  1  0  0  0  0
  6  7  1  0  0  0  0
  6  8  1  0  0  0  0
  6  9  1  0  0  0  0
  9 10  1  0  0  0  0
  9 11  1  0  0  0  0
  9 12  1  0  0  0  0
 12 13  1  0  0  0  0
 12 14  1  0  0  0  0
 12 15  1  0  0  0  0
 15 16  1  0  0  0  0
 15 17  1  0  0  0  0
 15 18  1  0  0  0  0
 18 19  1  0  0  0  0
 18 20  2  0  0  0  0
M  END
> <VM2 Rank>
26

> <Conf_Id>
526

> <Probability>
0.53

> <Sum Probability>
94.44

> <Delta G>
1.946

> <G>
-19.942

> <E>
-35.310

> <-TS>
15.368

> <U+W>
-51.407

> <U>
10.461

> <W>
-61.868

> <W(PB)>
-64.045

> <W(SA)>
2.178

> <Valence>
9.554

> <Coulomb>
0.484

> <VdW>
0.423

> <VdW6>
-7.224

> <VdW12>
7.647

> <Bond>
0.126

> <Angle>
2.492

> <Pdih>
6.936

> <Idih>
0.001

> <Tether>
0.000

$$$$
VeraChem MOL file


 20 19  0  0  0  0  0  0  0  0999 V2000     
   19.9073   18.3620   18.6775 C   0  0  0  0  0  0  0  0  0  0  0  0
   20.5477   17.7595   18.0357 H   0  0  0  0  0  0  0  0  0  0  0  0
   18.8500   18.4149   18.4230 H   0  0  0  0  0  0  0  0  0  0  0  0
   20.4027   19.0073   19.7367 C   0  0  0  0  0  0  0  0  0  0  0  0
   21.4648   18.9437   19.9715 H   0  0  0  0  0  0  0  0  0  0  0  0
   19.5754   19.8675   20.6681 C   0  0  0  0  0  0  0  0  0  0  0  0
   18.6436   20.1641   20.1677 H   0  0  0  0  0  0  0  0  0  0  0  0
   20.1124   20.7984   20.8939 H   0  0  0  0  0  0  0  0  0  0  0  0
   19.2200   19.1384   21.9835 C   0  0  0  0  0  0  0  0  0  0  0  0
   18.5102   19.7585   22.5480 H   0  0  0  0  0  0  0  0  0  0  0  0
   18.6989   18.1994   21.7514 H   0  0  0  0  0  0  0  0  0  0  0  0
   20.4587   18.8467   22.8636 C   0  0  0  0  0  0  0  0  0  0  0  0
   20.9882   19.7841   23.0838 H   0  0  0  0  0  0  0  0  0  0  0  0
   21.1604   18.2096   22.3094 H   0  0  0  0  0  0  0  0  0  0  0  0
   20.0908   18.1398   24.1941 C   0  0  0  0  0  0  0  0  0  0  0  0
   19.5317   17.2184   23.9912 H   0  0  0  0  0  0  0  0  0  0  0  0
   21.0077   17.8459   24.7183 H   0  0  0  0  0  0  0  0  0  0  0  0
   19.2754   19.0041   25.1517 C   0  0  0  0  0  0  0  0  0  0  0  0
   19.8537   19.8774   25.7682 O   0  5  0  0  0  0  0  0  0  0  0  0
   18.0872   18.7749   25.2647 O   0  0  0  0  0  0  0  0  0  0  0  0
  1  2  1  0  0  0  0
  1  3  1  0  0  0  0
  1  4  2  0  0  0  0
  4  5  1  0  0  0  0
  4  6  1  0  0  0  0
  6  7  1  0  0  0  0
  6  8  1  0  0  0  0
  6  9  1  0  0  0  0
  9 10  1  0  0  0  0
  9 11  1  0  0  0  0
  9 12  1  0  0  0  0
 12 13  1  0  0  0  0
 12 14  1  0  0  0  0
 12 15  1  0  0  0  0
 15 16  1  0  0  0  0
 15 17  1  0  0  0  0
 15 18  1  0  0  0  0
 18 19  1  0  0  0  0
 18 20  2  0  0  0  0
M  END
> <VM2 Rank>
27

> <Conf_Id>
220

> <Probability>
0.50

> <Sum Probability>
94.94

> <Delta G>
1.984

> <G>
-19.904

> <E>
-35.247

> <-TS>
15.343

> <U+W>
-51.343

> <U>
9.191

> <W>
-60.535

> <W(PB)>
-62.743

> <W(SA)>
2.208

> <Valence>
9.572

> <Coulomb>
-0.885

> <VdW>
0.504

> <VdW6>
-7.168

> <VdW12>
7.672

> <Bond>
0.127

> <Angle>
2.504

> <Pdih>
6.941

> <Idih>
0.001

> <Tether>
0.000

$$$$
VeraChem MOL file


 20 19  0  0  0  0  0  0  0  0999 V2000     
   21.2235   19.6609   19.9314 C   0  0  0  0  0  0  0  0  0  0  0  0
   22.2677   19.7312   19.6321 H   0  0  0  0  0  0  0  0  0  0  0  0
   20.6932   20.5965   20.0948 H   0  0  0  0  0  0  0  0  0  0  0  0
   20.6325   18.4705   20.0817 C   0  0  0  0  0  0  0  0  0  0  0  0
   21.2106   17.5643   19.9026 H   0  0  0  0  0  0  0  0  0  0  0  0
   19.1920   18.2219   20.4984 C   0  0  0  0  0  0  0  0  0  0  0  0
   19.1498   17.3065   21.1016 H   0  0  0  0  0  0  0  0  0  0  0  0
   18.6024   17.9935   19.6007 H   0  0  0  0  0  0  0  0  0  0  0  0
   18.5037   19.3719   21.2795 C   0  0  0  0  0  0  0  0  0  0  0  0
   18.4901   20.2773   20.6586 H   0  0  0  0  0  0  0  0  0  0  0  0
   17.4498   19.1068   21.4395 H   0  0  0  0  0  0  0  0  0  0  0  0
   19.1469   19.6989   22.6514 C   0  0  0  0  0  0  0  0  0  0  0  0
   18.6390   20.5760   23.0756 H   0  0  0  0  0  0  0  0  0  0  0  0
   20.1981   19.9872   22.5190 H   0  0  0  0  0  0  0  0  0  0  0  0
   19.0595   18.5333   23.6706 C   0  0  0  0  0  0  0  0  0  0  0  0
   18.0207   18.1992   23.7765 H   0  0  0  0  0  0  0  0  0  0  0  0
   19.6454   17.6746   23.3239 H   0  0  0  0  0  0  0  0  0  0  0  0
   19.5743   18.9189   25.0528 C   0  0  0  0  0  0  0  0  0  0  0  0
   20.7471   18.7245   25.3046 O   0  5  0  0  0  0  0  0  0  0  0  0
   18.7914   19.4172   25.8375 O   0  0  0  0  0  0  0  0  0  0  0  0
  1  2  1  0  0  0  0
  1  3  1  0  0  0  0
  1  4  2  0  0  0  0
  4  5  1  0  0  0  0
  4  6  1  0  0  0  0
  6  7  1  0  0  0  0
  6  8  1  0  0  0  0
  6  9  1  0  0  0  0
  9 10  1  0  0  0  0
  9 11  1  0  0  0  0
  9 12  1  0  0  0  0
 12 13  1  0  0  0  0
 12 14  1  0  0  0  0
 12 15  1  0  0  0  0
 15 16  1  0  0  0  0
 15 17  1  0  0  0  0
 15 18  1  0  0  0  0
 18 19  1  0  0  0  0
 18 20  2  0  0  0  0
M  END
> <VM2 Rank>
28

> <Conf_Id>
147

> <Probability>
0.45

> <Sum Probability>
95.39

> <Delta G>
2.048

> <G>
-19.841

> <E>
-35.284

> <-TS>
15.444

> <U+W>
-51.381

> <U>
10.000

> <W>
-61.381

> <W(PB)>
-63.541

> <W(SA)>
2.161

> <Valence>
9.399

> <Coulomb>
-0.504

> <VdW>
1.105

> <VdW6>
-7.975

> <VdW12>
9.080

> <Bond>
0.216

> <Angle>
3.417

> <Pdih>
5.765

> <Idih>
0.001

> <Tether>
0.000

$$$$
VeraChem MOL file


 20 19  0  0  0  0  0  0  0  0999 V2000     
   18.6727   18.8897   19.6026 C   0  0  0  0  0  0  0  0  0  0  0  0
   17.8635   18.3996   19.0642 H   0  0  0  0  0  0  0  0  0  0  0  0
   18.5509   19.9488   19.8187 H   0  0  0  0  0  0  0  0  0  0  0  0
   19.7631   18.2077   19.9697 C   0  0  0  0  0  0  0  0  0  0  0  0
   19.8341   17.1482   19.7250 H   0  0  0  0  0  0  0  0  0  0  0  0
   20.9614   18.7570   20.7266 C   0  0  0  0  0  0  0  0  0  0  0  0
   21.7695   18.9512   20.0091 H   0  0  0  0  0  0  0  0  0  0  0  0
   21.3546   17.9732   21.3859 H   0  0  0  0  0  0  0  0  0  0  0  0
   20.7060   20.0378   21.5636 C   0  0  0  0  0  0  0  0  0  0  0  0
   21.6618   20.3804   21.9827 H   0  0  0  0  0  0  0  0  0  0  0  0
   20.3674   20.8450   20.9007 H   0  0  0  0  0  0  0  0  0  0  0  0
   19.6904   19.8633   22.7215 C   0  0  0  0  0  0  0  0  0  0  0  0
   18.7177   19.5399   22.3281 H   0  0  0  0  0  0  0  0  0  0  0  0
   19.5221   20.8430   23.1896 H   0  0  0  0  0  0  0  0  0  0  0  0
   20.1595   18.8658   23.8123 C   0  0  0  0  0  0  0  0  0  0  0  0
   20.2370   17.8535   23.4000 H   0  0  0  0  0  0  0  0  0  0  0  0
   21.1535   19.1461   24.1804 H   0  0  0  0  0  0  0  0  0  0  0  0
   19.2130   18.8096   25.0062 C   0  0  0  0  0  0  0  0  0  0  0  0
   19.3892   19.5971   25.9148 O   0  5  0  0  0  0  0  0  0  0  0  0
   18.3158   17.9901   24.9907 O   0  0  0  0  0  0  0  0  0  0  0  0
  1  2  1  0  0  0  0
  1  3  1  0  0  0  0
  1  4  2  0  0  0  0
  4  5  1  0  0  0  0
  4  6  1  0  0  0  0
  6  7  1  0  0  0  0
  6  8  1  0  0  0  0
  6  9  1  0  0  0  0
  9 10  1  0  0  0  0
  9 11  1  0  0  0  0
  9 12  1  0  0  0  0
 12 13  1  0  0  0  0
 12 14  1  0  0  0  0
 12 15  1  0  0  0  0
 15 16  1  0  0  0  0
 15 17  1  0  0  0  0
 15 18  1  0  0  0  0
 18 19  1  0  0  0  0
 18 20  2  0  0  0  0
M  END
> <VM2 Rank>
29

> <Conf_Id>
372

> <Probability>
0.44

> <Sum Probability>
95.83

> <Delta G>
2.062

> <G>
-19.826

> <E>
-35.269

> <-TS>
15.443

> <U+W>
-51.366

> <U>
10.000

> <W>
-61.366

> <W(PB)>
-63.511

> <W(SA)>
2.145

> <Valence>
9.399

> <Coulomb>
-0.503

> <VdW>
1.105

> <VdW6>
-7.975

> <VdW12>
9.080

> <Bond>
0.216

> <Angle>
3.417

> <Pdih>
5.765

> <Idih>
0.001

> <Tether>
0.000

$$$$
VeraChem MOL file


 20 19  0  0  0  0  0  0  0  0999 V2000     
   19.6800   18.1469   18.9853 C   0  0  0  0  0  0  0  0  0  0  0  0
   20.1841   17.4757   18.2920 H   0  0  0  0  0  0  0  0  0  0  0  0
   18.6004   18.0470   19.0840 H   0  0  0  0  0  0  0  0  0  0  0  0
   20.3636   19.0538   19.6883 C   0  0  0  0  0  0  0  0  0  0  0  0
   21.4444   19.1359   19.5764 H   0  0  0  0  0  0  0  0  0  0  0  0
   19.7335   20.0190   20.6697 C   0  0  0  0  0  0  0  0  0  0  0  0
   18.6393   20.0097   20.5733 H   0  0  0  0  0  0  0  0  0  0  0  0
   20.0570   21.0398   20.4264 H   0  0  0  0  0  0  0  0  0  0  0  0
   20.1248   19.7078   22.1319 C   0  0  0  0  0  0  0  0  0  0  0  0
   21.2192   19.7130   22.2283 H   0  0  0  0  0  0  0  0  0  0  0  0
   19.7503   20.5148   22.7764 H   0  0  0  0  0  0  0  0  0  0  0  0
   19.5617   18.3539   22.6254 C   0  0  0  0  0  0  0  0  0  0  0  0
   19.9407   17.5454   21.9860 H   0  0  0  0  0  0  0  0  0  0  0  0
   18.4675   18.3478   22.5254 H   0  0  0  0  0  0  0  0  0  0  0  0
   19.9458   18.0486   24.0965 C   0  0  0  0  0  0  0  0  0  0  0  0
   19.6289   17.0312   24.3541 H   0  0  0  0  0  0  0  0  0  0  0  0
   21.0352   18.0823   24.2183 H   0  0  0  0  0  0  0  0  0  0  0  0
   19.3123   18.9948   25.1125 C   0  0  0  0  0  0  0  0  0  0  0  0
   20.0109   19.8543   25.6128 O   0  5  0  0  0  0  0  0  0  0  0  0
   18.1383   18.8390   25.3855 O   0  0  0  0  0  0  0  0  0  0  0  0
  1  2  1  0  0  0  0
  1  3  1  0  0  0  0
  1  4  2  0  0  0  0
  4  5  1  0  0  0  0
  4  6  1  0  0  0  0
  6  7  1  0  0  0  0
  6  8  1  0  0  0  0
  6  9  1  0  0  0  0
  9 10  1  0  0  0  0
  9 11  1  0  0  0  0
  9 12  1  0  0  0  0
 12 13  1  0  0  0  0
 12 14  1  0  0  0  0
 12 15  1  0  0  0  0
 15 16  1  0  0  0  0
 15 17  1  0  0  0  0
 15 18  1  0  0  0  0
 18 19  1  0  0  0  0
 18 20  2  0  0  0  0
M  END
> <VM2 Rank>
30

> <Conf_Id>
192

> <Probability>
0.42

> <Sum Probability>
96.25

> <Delta G>
2.085

> <G>
-19.804

> <E>
-35.222

> <-TS>
15.419

> <U+W>
-51.319

> <U>
9.294

> <W>
-60.613

> <W(PB)>
-62.807

> <W(SA)>
2.194

> <Valence>
9.495

> <Coulomb>
-0.611

> <VdW>
0.409

> <VdW6>
-7.332

> <VdW12>
7.741

> <Bond>
0.126

> <Angle>
2.497

> <Pdih>
6.872

> <Idih>
0.000

> <Tether>
0.000

$$$$
VeraChem MOL file


 20 19  0  0  0  0  0  0  0  0999 V2000     
   20.9611   18.5331   19.1505 C   0  0  0  0  0  0  0  0  0  0  0  0
   21.8624   19.0306   19.5048 H   0  0  0  0  0  0  0  0  0  0  0  0
   21.0818   17.7463   18.4079 H   0  0  0  0  0  0  0  0  0  0  0  0
   19.7527   18.8696   19.6095 C   0  0  0  0  0  0  0  0  0  0  0  0
   18.8632   18.3575   19.2436 H   0  0  0  0  0  0  0  0  0  0  0  0
   19.5064   19.9505   20.6404 C   0  0  0  0  0  0  0  0  0  0  0  0
   18.7466   20.6447   20.2574 H   0  0  0  0  0  0  0  0  0  0  0  0
   20.4156   20.5452   20.8025 H   0  0  0  0  0  0  0  0  0  0  0  0
   19.0198   19.3747   21.9894 C   0  0  0  0  0  0  0  0  0  0  0  0
   18.7322   20.2079   22.6451 H   0  0  0  0  0  0  0  0  0  0  0  0
   18.1127   18.7764   21.8276 H   0  0  0  0  0  0  0  0  0  0  0  0
   20.0957   18.5149   22.6943 C   0  0  0  0  0  0  0  0  0  0  0  0
   21.0041   19.1125   22.8526 H   0  0  0  0  0  0  0  0  0  0  0  0
   20.3794   17.6777   22.0426 H   0  0  0  0  0  0  0  0  0  0  0  0
   19.6098   17.9473   24.0532 C   0  0  0  0  0  0  0  0  0  0  0  0
   18.6852   17.3738   23.9151 H   0  0  0  0  0  0  0  0  0  0  0  0
   20.3591   17.2514   24.4483 H   0  0  0  0  0  0  0  0  0  0  0  0
   19.3685   19.0118   25.1197 C   0  0  0  0  0  0  0  0  0  0  0  0
   20.3358   19.5015   25.6689 O   0  5  0  0  0  0  0  0  0  0  0  0
   18.2211   19.3147   25.3820 O   0  0  0  0  0  0  0  0  0  0  0  0
  1  2  1  0  0  0  0
  1  3  1  0  0  0  0
  1  4  2  0  0  0  0
  4  5  1  0  0  0  0
  4  6  1  0  0  0  0
  6  7  1  0  0  0  0
  6  8  1  0  0  0  0
  6  9  1  0  0  0  0
  9 10  1  0  0  0  0
  9 11  1  0  0  0  0
  9 12  1  0  0  0  0
 12 13  1  0  0  0  0
 12 14  1  0  0  0  0
 12 15  1  0  0  0  0
 15 16  1  0  0  0  0
 15 17  1  0  0  0  0
 15 18  1  0  0  0  0
 18 19  1  0  0  0  0
 18 20  2  0  0  0  0
M  END
> <VM2 Rank>
31

> <Conf_Id>
545

> <Probability>
0.40

> <Sum Probability>
96.65

> <Delta G>
2.114

> <G>
-19.774

> <E>
-35.193

> <-TS>
15.419

> <U+W>
-51.290

> <U>
9.294

> <W>
-60.584

> <W(PB)>
-62.766

> <W(SA)>
2.182

> <Valence>
9.495

> <Coulomb>
-0.611

> <VdW>
0.409

> <VdW6>
-7.332

> <VdW12>
7.741

> <Bond>
0.126

> <Angle>
2.497

> <Pdih>
6.872

> <Idih>
0.000

> <Tether>
0.000

$$$$
VeraChem MOL file


 20 19  0  0  0  0  0  0  0  0999 V2000     
   19.6683   17.8243   19.3583 C   0  0  0  0  0  0  0  0  0  0  0  0
   19.8619   16.7952   19.0608 H   0  0  0  0  0  0  0  0  0  0  0  0
   18.7451   18.2824   19.0072 H   0  0  0  0  0  0  0  0  0  0  0  0
   20.5306   18.4943   20.1275 C   0  0  0  0  0  0  0  0  0  0  0  0
   21.4478   18.0165   20.4707 H   0  0  0  0  0  0  0  0  0  0  0  0
   20.3297   19.9243   20.5821 C   0  0  0  0  0  0  0  0  0  0  0  0
   19.4947   20.3887   20.0403 H   0  0  0  0  0  0  0  0  0  0  0  0
   21.2247   20.5094   20.3323 H   0  0  0  0  0  0  0  0  0  0  0  0
   20.0777   20.0248   22.1034 C   0  0  0  0  0  0  0  0  0  0  0  0
   20.9173   19.5657   22.6435 H   0  0  0  0  0  0  0  0  0  0  0  0
   20.0624   21.0847   22.3919 H   0  0  0  0  0  0  0  0  0  0  0  0
   18.7478   19.3616   22.5331 C   0  0  0  0  0  0  0  0  0  0  0  0
   18.7660   18.2907   22.2880 H   0  0  0  0  0  0  0  0  0  0  0  0
   17.9217   19.8022   21.9588 H   0  0  0  0  0  0  0  0  0  0  0  0
   18.4578   19.5336   24.0468 C   0  0  0  0  0  0  0  0  0  0  0  0
   18.4595   20.5970   24.3149 H   0  0  0  0  0  0  0  0  0  0  0  0
   17.4559   19.1506   24.2736 H   0  0  0  0  0  0  0  0  0  0  0  0
   19.4432   18.8015   24.9534 C   0  0  0  0  0  0  0  0  0  0  0  0
   20.3042   19.4523   25.5124 O   0  5  0  0  0  0  0  0  0  0  0  0
   19.3117   17.6012   25.0909 O   0  0  0  0  0  0  0  0  0  0  0  0
  1  2  1  0  0  0  0
  1  3  1  0  0  0  0
  1  4  2  0  0  0  0
  4  5  1  0  0  0  0
  4  6  1  0  0  0  0
  6  7  1  0  0  0  0
  6  8  1  0  0  0  0
  6  9  1  0  0  0  0
  9 10  1  0  0  0  0
  9 11  1  0  0  0  0
  9 12  1  0  0  0  0
 12 13  1  0  0  0  0
 12 14  1  0  0  0  0
 12 15  1  0  0  0  0
 15 16  1  0  0  0  0
 15 17  1  0  0  0  0
 15 18  1  0  0  0  0
 18 19  1  0  0  0  0
 18 20  2  0  0  0  0
M  END
> <VM2 Rank>
32

> <Conf_Id>
300

> <Probability>
0.37

> <Sum Probability>
97.03

> <Delta G>
2.155

> <G>
-19.733

> <E>
-35.159

> <-TS>
15.426

> <U+W>
-51.255

> <U>
10.179

> <W>
-61.434

> <W(PB)>
-63.629

> <W(SA)>
2.195

> <Valence>
9.483

> <Coulomb>
0.361

> <VdW>
0.335

> <VdW6>
-7.385

> <VdW12>
7.720

> <Bond>
0.125

> <Angle>
2.487

> <Pdih>
6.870

> <Idih>
0.001

> <Tether>
0.000

$$$$
VeraChem MOL file


 20 19  0  0  0  0  0  0  0  0999 V2000     
   21.0593   18.2441   19.5373 C   0  0  0  0  0  0  0  0  0  0  0  0
   21.6352   19.1545   19.3793 H   0  0  0  0  0  0  0  0  0  0  0  0
   21.5332   17.2996   19.2759 H   0  0  0  0  0  0  0  0  0  0  0  0
   19.8206   18.2802   20.0358 C   0  0  0  0  0  0  0  0  0  0  0  0
   19.2622   17.3571   20.1890 H   0  0  0  0  0  0  0  0  0  0  0  0
   19.0977   19.5527   20.4233 C   0  0  0  0  0  0  0  0  0  0  0  0
   18.1161   19.5717   19.9314 H   0  0  0  0  0  0  0  0  0  0  0  0
   19.6436   20.4337   20.0596 H   0  0  0  0  0  0  0  0  0  0  0  0
   18.8918   19.6670   21.9505 C   0  0  0  0  0  0  0  0  0  0  0  0
   18.2599   20.5409   22.1596 H   0  0  0  0  0  0  0  0  0  0  0  0
   18.3395   18.7881   22.3111 H   0  0  0  0  0  0  0  0  0  0  0  0
   20.2245   19.8066   22.7236 C   0  0  0  0  0  0  0  0  0  0  0  0
   20.7841   20.6648   22.3279 H   0  0  0  0  0  0  0  0  0  0  0  0
   20.8500   18.9187   22.5568 H   0  0  0  0  0  0  0  0  0  0  0  0
   20.0120   20.0021   24.2472 C   0  0  0  0  0  0  0  0  0  0  0  0
   20.9752   20.2114   24.7274 H   0  0  0  0  0  0  0  0  0  0  0  0
   19.3694   20.8713   24.4321 H   0  0  0  0  0  0  0  0  0  0  0  0
   19.4053   18.7902   24.9487 C   0  0  0  0  0  0  0  0  0  0  0  0
   20.1327   17.8487   25.1969 O   0  5  0  0  0  0  0  0  0  0  0  0
   18.2271   18.8264   25.2447 O   0  0  0  0  0  0  0  0  0  0  0  0
  1  2  1  0  0  0  0
  1  3  1  0  0  0  0
  1  4  2  0  0  0  0
  4  5  1  0  0  0  0
  4  6  1  0  0  0  0
  6  7  1  0  0  0  0
  6  8  1  0  0  0  0
  6  9  1  0  0  0  0
  9 10  1  0  0  0  0
  9 11  1  0  0  0  0
  9 12  1  0  0  0  0
 12 13  1  0  0  0  0
 12 14  1  0  0  0  0
 12 15  1  0  0  0  0
 15 16  1  0  0  0  0
 15 17  1  0  0  0  0
 15 18  1  0  0  0  0
 18 19  1  0  0  0  0
 18 20  2  0  0  0  0
M  END
> <VM2 Rank>
33

> <Conf_Id>
555

> <Probability>
0.37

> <Sum Probability>
97.39

> <Delta G>
2.169

> <G>
-19.719

> <E>
-35.145

> <-TS>
15.425

> <U+W>
-51.241

> <U>
10.178

> <W>
-61.419

> <W(PB)>
-63.641

> <W(SA)>
2.222

> <Valence>
9.483

> <Coulomb>
0.360

> <VdW>
0.335

> <VdW6>
-7.385

> <VdW12>
7.720

> <Bond>
0.125

> <Angle>
2.487

> <Pdih>
6.870

> <Idih>
0.001

> <Tether>
0.000

$$$$
VeraChem MOL file


 20 19  0  0  0  0  0  0  0  0999 V2000     
   20.4991   17.6628   19.6786 C   0  0  0  0  0  0  0  0  0  0  0  0
   20.4964   16.5785   19.5820 H   0  0  0  0  0  0  0  0  0  0  0  0
   21.3625   18.1996   19.2889 H   0  0  0  0  0  0  0  0  0  0  0  0
   19.4821   18.3077   20.2560 C   0  0  0  0  0  0  0  0  0  0  0  0
   18.6227   17.7536   20.6319 H   0  0  0  0  0  0  0  0  0  0  0  0
   19.4139   19.8118   20.4125 C   0  0  0  0  0  0  0  0  0  0  0  0
   18.3770   20.1298   20.5845 H   0  0  0  0  0  0  0  0  0  0  0  0
   19.7134   20.2742   19.4623 H   0  0  0  0  0  0  0  0  0  0  0  0
   20.3296   20.3601   21.5351 C   0  0  0  0  0  0  0  0  0  0  0  0
   21.3225   19.8943   21.4710 H   0  0  0  0  0  0  0  0  0  0  0  0
   20.4870   21.4311   21.3486 H   0  0  0  0  0  0  0  0  0  0  0  0
   19.7636   20.2113   22.9698 C   0  0  0  0  0  0  0  0  0  0  0  0
   18.7648   20.6656   23.0264 H   0  0  0  0  0  0  0  0  0  0  0  0
   20.4024   20.7875   23.6535 H   0  0  0  0  0  0  0  0  0  0  0  0
   19.6976   18.7489   23.4802 C   0  0  0  0  0  0  0  0  0  0  0  0
   18.9552   18.1770   22.9146 H   0  0  0  0  0  0  0  0  0  0  0  0
   20.6665   18.2545   23.3422 H   0  0  0  0  0  0  0  0  0  0  0  0
   19.3227   18.6551   24.9547 C   0  0  0  0  0  0  0  0  0  0  0  0
   20.2186   18.6583   25.7759 O   0  5  0  0  0  0  0  0  0  0  0  0
   18.1439   18.6021   25.2452 O   0  0  0  0  0  0  0  0  0  0  0  0
  1  2  1  0  0  0  0
  1  3  1  0  0  0  0
  1  4  2  0  0  0  0
  4  5  1  0  0  0  0
  4  6  1  0  0  0  0
  6  7  1  0  0  0  0
  6  8  1  0  0  0  0
  6  9  1  0  0  0  0
  9 10  1  0  0  0  0
  9 11  1  0  0  0  0
  9 12  1  0  0  0  0
 12 13  1  0  0  0  0
 12 14  1  0  0  0  0
 12 15  1  0  0  0  0
 15 16  1  0  0  0  0
 15 17  1  0  0  0  0
 15 18  1  0  0  0  0
 18 19  1  0  0  0  0
 18 20  2  0  0  0  0
M  END
> <VM2 Rank>
34

> <Conf_Id>
157

> <Probability>
0.23

> <Sum Probability>
97.62

> <Delta G>
2.456

> <G>
-19.432

> <E>
-34.093

> <-TS>
14.661

> <U+W>
-50.190

> <U>
10.645

> <W>
-60.834

> <W(PB)>
-62.994

> <W(SA)>
2.160

> <Valence>
11.230

> <Coulomb>
-1.075

> <VdW>
0.490

> <VdW6>
-7.547

> <VdW12>
8.036

> <Bond>
0.159

> <Angle>
3.006

> <Pdih>
8.064

> <Idih>
0.002

> <Tether>
0.000

$$$$
VeraChem MOL file


 20 19  0  0  0  0  0  0  0  0999 V2000     
   19.4449   19.9233   19.2819 C   0  0  0  0  0  0  0  0  0  0  0  0
   18.4476   19.7620   19.6853 H   0  0  0  0  0  0  0  0  0  0  0  0
   19.5123   20.4654   18.3402 H   0  0  0  0  0  0  0  0  0  0  0  0
   20.5487   19.4879   19.9001 C   0  0  0  0  0  0  0  0  0  0  0  0
   21.5208   19.6822   19.4477 H   0  0  0  0  0  0  0  0  0  0  0  0
   20.6142   18.7208   21.2104 C   0  0  0  0  0  0  0  0  0  0  0  0
   21.1757   19.3228   21.9362 H   0  0  0  0  0  0  0  0  0  0  0  0
   21.2069   17.8097   21.0545 H   0  0  0  0  0  0  0  0  0  0  0  0
   19.2398   18.3312   21.8087 C   0  0  0  0  0  0  0  0  0  0  0  0
   18.6721   19.2400   22.0517 H   0  0  0  0  0  0  0  0  0  0  0  0
   18.6589   17.7912   21.0486 H   0  0  0  0  0  0  0  0  0  0  0  0
   19.3459   17.4322   23.0655 C   0  0  0  0  0  0  0  0  0  0  0  0
   19.8705   16.5036   22.8029 H   0  0  0  0  0  0  0  0  0  0  0  0
   18.3337   17.1362   23.3740 H   0  0  0  0  0  0  0  0  0  0  0  0
   20.0601   18.0961   24.2745 C   0  0  0  0  0  0  0  0  0  0  0  0
   20.0975   17.3854   25.1082 H   0  0  0  0  0  0  0  0  0  0  0  0
   21.1000   18.3366   24.0260 H   0  0  0  0  0  0  0  0  0  0  0  0
   19.3748   19.3596   24.7872 C   0  0  0  0  0  0  0  0  0  0  0  0
   19.9309   20.4264   24.6155 O   0  5  0  0  0  0  0  0  0  0  0  0
   18.3117   19.2404   25.3643 O   0  0  0  0  0  0  0  0  0  0  0  0
  1  2  1  0  0  0  0
  1  3  1  0  0  0  0
  1  4  2  0  0  0  0
  4  5  1  0  0  0  0
  4  6  1  0  0  0  0
  6  7  1  0  0  0  0
  6  8  1  0  0  0  0
  6  9  1  0  0  0  0
  9 10  1  0  0  0  0
  9 11  1  0  0  0  0
  9 12  1  0  0  0  0
 12 13  1  0  0  0  0
 12 14  1  0  0  0  0
 12 15  1  0  0  0  0
 15 16  1  0  0  0  0
 15 17  1  0  0  0  0
 15 18  1  0  0  0  0
 18 19  1  0  0  0  0
 18 20  2  0  0  0  0
M  END
> <VM2 Rank>
35

> <Conf_Id>
61

> <Probability>
0.22

> <Sum Probability>
97.84

> <Delta G>
2.468

> <G>
-19.421

> <E>
-35.131

> <-TS>
15.711

> <U+W>
-51.228

> <U>
10.870

> <W>
-62.097

> <W(PB)>
-64.246

> <W(SA)>
2.149

> <Valence>
8.803

> <Coulomb>
1.019

> <VdW>
1.048

> <VdW6>
-8.312

> <VdW12>
9.360

> <Bond>
0.212

> <Angle>
3.379

> <Pdih>
5.211

> <Idih>
0.001

> <Tether>
0.000

$$$$
VeraChem MOL file


 20 19  0  0  0  0  0  0  0  0999 V2000     
   20.1144   20.1251   19.3682 C   0  0  0  0  0  0  0  0  0  0  0  0
   20.9119   20.5050   20.0032 H   0  0  0  0  0  0  0  0  0  0  0  0
   19.9844   20.6076   18.4010 H   0  0  0  0  0  0  0  0  0  0  0  0
   19.3179   19.1169   19.7413 C   0  0  0  0  0  0  0  0  0  0  0  0
   18.5343   18.7817   19.0623 H   0  0  0  0  0  0  0  0  0  0  0  0
   19.3775   18.3480   21.0508 C   0  0  0  0  0  0  0  0  0  0  0  0
   19.4321   17.2747   20.8256 H   0  0  0  0  0  0  0  0  0  0  0  0
   18.4282   18.4947   21.5818 H   0  0  0  0  0  0  0  0  0  0  0  0
   20.5577   18.7286   21.9787 C   0  0  0  0  0  0  0  0  0  0  0  0
   21.4969   18.6468   21.4147 H   0  0  0  0  0  0  0  0  0  0  0  0
   20.4639   19.7802   22.2828 H   0  0  0  0  0  0  0  0  0  0  0  0
   20.6689   17.8311   23.2361 C   0  0  0  0  0  0  0  0  0  0  0  0
   21.5738   18.1130   23.7920 H   0  0  0  0  0  0  0  0  0  0  0  0
   20.8128   16.7877   22.9245 H   0  0  0  0  0  0  0  0  0  0  0  0
   19.4503   17.9123   24.1958 C   0  0  0  0  0  0  0  0  0  0  0  0
   18.5392   17.5648   23.6957 H   0  0  0  0  0  0  0  0  0  0  0  0
   19.6128   17.2393   25.0456 H   0  0  0  0  0  0  0  0  0  0  0  0
   19.1953   19.3055   24.7640 C   0  0  0  0  0  0  0  0  0  0  0  0
   19.9825   19.7439   25.5799 O   0  5  0  0  0  0  0  0  0  0  0  0
   18.2065   19.9066   24.3931 O   0  0  0  0  0  0  0  0  0  0  0  0
  1  2  1  0  0  0  0
  1  3  1  0  0  0  0
  1  4  2  0  0  0  0
  4  5  1  0  0  0  0
  4  6  1  0  0  0  0
  6  7  1  0  0  0  0
  6  8  1  0  0  0  0
  6  9  1  0  0  0  0
  9 10  1  0  0  0  0
  9 11  1  0  0  0  0
  9 12  1  0  0  0  0
 12 13  1  0  0  0  0
 12 14  1  0  0  0  0
 12 15  1  0  0  0  0
 15 16  1  0  0  0  0
 15 17  1  0  0  0  0
 15 18  1  0  0  0  0
 18 19  1  0  0  0  0
 18 20  2  0  0  0  0
M  END
> <VM2 Rank>
36

> <Conf_Id>
184

> <Probability>
0.22

> <Sum Probability>
98.06

> <Delta G>
2.485

> <G>
-19.404

> <E>
-35.114

> <-TS>
15.710

> <U+W>
-51.210

> <U>
10.869

> <W>
-62.080

> <W(PB)>
-64.254

> <W(SA)>
2.174

> <Valence>
8.803

> <Coulomb>
1.019

> <VdW>
1.048

> <VdW6>
-8.312

> <VdW12>
9.360

> <Bond>
0.212

> <Angle>
3.379

> <Pdih>
5.211

> <Idih>
0.001

> <Tether>
0.000

$$$$
VeraChem MOL file


 20 19  0  0  0  0  0  0  0  0999 V2000     
   20.4028   17.6340   19.6652 C   0  0  0  0  0  0  0  0  0  0  0  0
   21.0174   16.7357   19.6479 H   0  0  0  0  0  0  0  0  0  0  0  0
   19.5059   17.6410   19.0479 H   0  0  0  0  0  0  0  0  0  0  0  0
   20.7368   18.6855   20.4178 C   0  0  0  0  0  0  0  0  0  0  0  0
   21.6431   18.6629   21.0219 H   0  0  0  0  0  0  0  0  0  0  0  0
   19.9371   19.9693   20.4802 C   0  0  0  0  0  0  0  0  0  0  0  0
   19.6656   20.2600   19.4564 H   0  0  0  0  0  0  0  0  0  0  0  0
   20.5599   20.7871   20.8666 H   0  0  0  0  0  0  0  0  0  0  0  0
   18.6391   19.8505   21.3170 C   0  0  0  0  0  0  0  0  0  0  0  0
   17.9729   20.6734   21.0242 H   0  0  0  0  0  0  0  0  0  0  0  0
   18.1073   18.9253   21.0562 H   0  0  0  0  0  0  0  0  0  0  0  0
   18.8418   19.9335   22.8510 C   0  0  0  0  0  0  0  0  0  0  0  0
   17.8541   20.0193   23.3248 H   0  0  0  0  0  0  0  0  0  0  0  0
   19.3861   20.8530   23.1067 H   0  0  0  0  0  0  0  0  0  0  0  0
   19.5722   18.7112   23.4641 C   0  0  0  0  0  0  0  0  0  0  0  0
   19.0928   17.7801   23.1392 H   0  0  0  0  0  0  0  0  0  0  0  0
   20.6136   18.6771   23.1287 H   0  0  0  0  0  0  0  0  0  0  0  0
   19.5817   18.7333   24.9883 C   0  0  0  0  0  0  0  0  0  0  0  0
   20.4926   19.3105   25.5485 O   0  5  0  0  0  0  0  0  0  0  0  0
   18.6669   18.1902   25.5757 O   0  0  0  0  0  0  0  0  0  0  0  0
  1  2  1  0  0  0  0
  1  3  1  0  0  0  0
  1  4  2  0  0  0  0
  4  5  1  0  0  0  0
  4  6  1  0  0  0  0
  6  7  1  0  0  0  0
  6  8  1  0  0  0  0
  6  9  1  0  0  0  0
  9 10  1  0  0  0  0
  9 11  1  0  0  0  0
  9 12  1  0  0  0  0
 12 13  1  0  0  0  0
 12 14  1  0  0  0  0
 12 15  1  0  0  0  0
 15 16  1  0  0  0  0
 15 17  1  0  0  0  0
 15 18  1  0  0  0  0
 18 19  1  0  0  0  0
 18 20  2  0  0  0  0
M  END
> <VM2 Rank>
37

> <Conf_Id>
210

> <Probability>
0.21

> <Sum Probability>
98.27

> <Delta G>
2.503

> <G>
-19.386

> <E>
-34.047

> <-TS>
14.662

> <U+W>
-50.144

> <U>
10.644

> <W>
-60.787

> <W(PB)>
-62.966

> <W(SA)>
2.179

> <Valence>
11.231

> <Coulomb>
-1.076

> <VdW>
0.489

> <VdW6>
-7.546

> <VdW12>
8.036

> <Bond>
0.159

> <Angle>
3.005

> <Pdih>
8.064

> <Idih>
0.002

> <Tether>
0.000

$$$$
VeraChem MOL file


 20 19  0  0  0  0  0  0  0  0999 V2000     
   19.9218   18.4958   18.7070 C   0  0  0  0  0  0  0  0  0  0  0  0
   19.9914   17.7231   17.9432 H   0  0  0  0  0  0  0  0  0  0  0  0
   20.1575   19.5165   18.4099 H   0  0  0  0  0  0  0  0  0  0  0  0
   19.5635   18.1986   19.9588 C   0  0  0  0  0  0  0  0  0  0  0  0
   19.3325   17.1703   20.2361 H   0  0  0  0  0  0  0  0  0  0  0  0
   19.4445   19.2164   21.0712 C   0  0  0  0  0  0  0  0  0  0  0  0
   18.4851   19.0759   21.5858 H   0  0  0  0  0  0  0  0  0  0  0  0
   19.4390   20.2336   20.6570 H   0  0  0  0  0  0  0  0  0  0  0  0
   20.6074   19.0755   22.0787 C   0  0  0  0  0  0  0  0  0  0  0  0
   20.5676   18.0834   22.5492 H   0  0  0  0  0  0  0  0  0  0  0  0
   21.5586   19.1188   21.5305 H   0  0  0  0  0  0  0  0  0  0  0  0
   20.6171   20.1742   23.1700 C   0  0  0  0  0  0  0  0  0  0  0  0
   20.7132   21.1583   22.6917 H   0  0  0  0  0  0  0  0  0  0  0  0
   21.5134   20.0461   23.7927 H   0  0  0  0  0  0  0  0  0  0  0  0
   19.3665   20.1758   24.0911 C   0  0  0  0  0  0  0  0  0  0  0  0
   19.4542   20.9894   24.8205 H   0  0  0  0  0  0  0  0  0  0  0  0
   18.4586   20.3763   23.5110 H   0  0  0  0  0  0  0  0  0  0  0  0
   19.1692   18.8821   24.8760 C   0  0  0  0  0  0  0  0  0  0  0  0
   19.9302   18.6482   25.7945 O   0  5  0  0  0  0  0  0  0  0  0  0
   18.2507   18.1514   24.5608 O   0  0  0  0  0  0  0  0  0  0  0  0
  1  2  1  0  0  0  0
  1  3  1  0  0  0  0
  1  4  2  0  0  0  0
  4  5  1  0  0  0  0
  4  6  1  0  0  0  0
  6  7  1  0  0  0  0
  6  8  1  0  0  0  0
  6  9  1  0  0  0  0
  9 10  1  0  0  0  0
  9 11  1  0  0  0  0
  9 12  1  0  0  0  0
 12 13  1  0  0  0  0
 12 14  1  0  0  0  0
 12 15  1  0  0  0  0
 15 16  1  0  0  0  0
 15 17  1  0  0  0  0
 15 18  1  0  0  0  0
 18 19  1  0  0  0  0
 18 20  2  0  0  0  0
M  END
> <VM2 Rank>
38

> <Conf_Id>
245

> <Probability>
0.20

> <Sum Probability>
98.47

> <Delta G>
2.520

> <G>
-19.368

> <E>
-34.753

> <-TS>
15.384

> <U+W>
-50.849

> <U>
10.197

> <W>
-61.045

> <W(PB)>
-63.242

> <W(SA)>
2.197

> <Valence>
9.837

> <Coulomb>
0.032

> <VdW>
0.327

> <VdW6>
-7.642

> <VdW12>
7.969

> <Bond>
0.151

> <Angle>
2.748

> <Pdih>
6.937

> <Idih>
0.001

> <Tether>
0.000

$$$$
VeraChem MOL file


 20 19  0  0  0  0  0  0  0  0999 V2000     
   19.7785   19.0698   18.6686 C   0  0  0  0  0  0  0  0  0  0  0  0
   19.5019   19.6823   17.8120 H   0  0  0  0  0  0  0  0  0  0  0  0
   20.4738   18.2501   18.4948 H   0  0  0  0  0  0  0  0  0  0  0  0
   19.2837   19.3190   19.8838 C   0  0  0  0  0  0  0  0  0  0  0  0
   18.5893   20.1449   20.0370 H   0  0  0  0  0  0  0  0  0  0  0  0
   19.6202   18.5127   21.1183 C   0  0  0  0  0  0  0  0  0  0  0  0
   20.1045   17.5683   20.8354 H   0  0  0  0  0  0  0  0  0  0  0  0
   18.6911   18.2510   21.6410 H   0  0  0  0  0  0  0  0  0  0  0  0
   20.5497   19.3067   22.0632 C   0  0  0  0  0  0  0  0  0  0  0  0
   21.4271   19.6453   21.4952 H   0  0  0  0  0  0  0  0  0  0  0  0
   20.0354   20.2149   22.4064 H   0  0  0  0  0  0  0  0  0  0  0  0
   21.0384   18.4872   23.2829 C   0  0  0  0  0  0  0  0  0  0  0  0
   21.7504   19.0970   23.8562 H   0  0  0  0  0  0  0  0  0  0  0  0
   21.5990   17.6114   22.9291 H   0  0  0  0  0  0  0  0  0  0  0  0
   19.9059   18.0160   24.2356 C   0  0  0  0  0  0  0  0  0  0  0  0
   19.2161   17.3428   23.7140 H   0  0  0  0  0  0  0  0  0  0  0  0
   20.3413   17.4369   25.0582 H   0  0  0  0  0  0  0  0  0  0  0  0
   19.1014   19.1537   24.8578 C   0  0  0  0  0  0  0  0  0  0  0  0
   19.6351   19.8296   25.7156 O   0  5  0  0  0  0  0  0  0  0  0  0
   17.9581   19.3233   24.4823 O   0  0  0  0  0  0  0  0  0  0  0  0
  1  2  1  0  0  0  0
  1  3  1  0  0  0  0
  1  4  2  0  0  0  0
  4  5  1  0  0  0  0
  4  6  1  0  0  0  0
  6  7  1  0  0  0  0
  6  8  1  0  0  0  0
  6  9  1  0  0  0  0
  9 10  1  0  0  0  0
  9 11  1  0  0  0  0
  9 12  1  0  0  0  0
 12 13  1  0  0  0  0
 12 14  1  0  0  0  0
 12 15  1  0  0  0  0
 15 16  1  0  0  0  0
 15 17  1  0  0  0  0
 15 18  1  0  0  0  0
 18 19  1  0  0  0  0
 18 20  2  0  0  0  0
M  END
> <VM2 Rank>
39

> <Conf_Id>
217

> <Probability>
0.19

> <Sum Probability>
98.66

> <Delta G>
2.566

> <G>
-19.323

> <E>
-34.707

> <-TS>
15.384

> <U+W>
-50.803

> <U>
10.196

> <W>
-61.000

> <W(PB)>
-63.182

> <W(SA)>
2.182

> <Valence>
9.837

> <Coulomb>
0.032

> <VdW>
0.327

> <VdW6>
-7.642

> <VdW12>
7.969

> <Bond>
0.151

> <Angle>
2.748

> <Pdih>
6.937

> <Idih>
0.001

> <Tether>
0.000

$$$$
VeraChem MOL file


 20 19  0  0  0  0  0  0  0  0999 V2000     
   20.5713   18.0502   19.4879 C   0  0  0  0  0  0  0  0  0  0  0  0
   20.6300   17.4255   18.5983 H   0  0  0  0  0  0  0  0  0  0  0  0
   21.1388   17.7236   20.3565 H   0  0  0  0  0  0  0  0  0  0  0  0
   19.8338   19.1662   19.4928 C   0  0  0  0  0  0  0  0  0  0  0  0
   19.2883   19.4436   18.5911 H   0  0  0  0  0  0  0  0  0  0  0  0
   19.6516   20.1327   20.6526 C   0  0  0  0  0  0  0  0  0  0  0  0
   18.6001   20.4478   20.6896 H   0  0  0  0  0  0  0  0  0  0  0  0
   20.2188   21.0480   20.4375 H   0  0  0  0  0  0  0  0  0  0  0  0
   20.0537   19.6040   22.0518 C   0  0  0  0  0  0  0  0  0  0  0  0
   21.0953   19.2570   22.0399 H   0  0  0  0  0  0  0  0  0  0  0  0
   20.0227   20.4429   22.7604 H   0  0  0  0  0  0  0  0  0  0  0  0
   19.1162   18.4835   22.5630 C   0  0  0  0  0  0  0  0  0  0  0  0
   19.1091   17.6512   21.8475 H   0  0  0  0  0  0  0  0  0  0  0  0
   18.0849   18.8588   22.6159 H   0  0  0  0  0  0  0  0  0  0  0  0
   19.5377   17.9426   23.9539 C   0  0  0  0  0  0  0  0  0  0  0  0
   18.9151   17.0789   24.2151 H   0  0  0  0  0  0  0  0  0  0  0  0
   20.5753   17.5887   23.9236 H   0  0  0  0  0  0  0  0  0  0  0  0
   19.4029   18.9606   25.0828 C   0  0  0  0  0  0  0  0  0  0  0  0
   20.4135   19.4813   25.5125 O   0  5  0  0  0  0  0  0  0  0  0  0
   18.2902   19.1970   25.5107 O   0  0  0  0  0  0  0  0  0  0  0  0
  1  2  1  0  0  0  0
  1  3  1  0  0  0  0
  1  4  2  0  0  0  0
  4  5  1  0  0  0  0
  4  6  1  0  0  0  0
  6  7  1  0  0  0  0
  6  8  1  0  0  0  0
  6  9  1  0  0  0  0
  9 10  1  0  0  0  0
  9 11  1  0  0  0  0
  9 12  1  0  0  0  0
 12 13  1  0  0  0  0
 12 14  1  0  0  0  0
 12 15  1  0  0  0  0
 15 16  1  0  0  0  0
 15 17  1  0  0  0  0
 15 18  1  0  0  0  0
 18 19  1  0  0  0  0
 18 20  2  0  0  0  0
M  END
> <VM2 Rank>
40

> <Conf_Id>
484

> <Probability>
0.18

> <Sum Probability>
98.84

> <Delta G>
2.594

> <G>
-19.294

> <E>
-35.038

> <-TS>
15.744

> <U+W>
-51.135

> <U>
9.738

> <W>
-60.873

> <W(PB)>
-63.018

> <W(SA)>
2.145

> <Valence>
9.029

> <Coulomb>
-0.281

> <VdW>
0.990

> <VdW6>
-8.096

> <VdW12>
9.086

> <Bond>
0.190

> <Angle>
3.359

> <Pdih>
5.480

> <Idih>
0.000

> <Tether>
0.000

$$$$
VeraChem MOL file


 20 19  0  0  0  0  0  0  0  0999 V2000     
   19.8186   17.4133   19.5528 C   0  0  0  0  0  0  0  0  0  0  0  0
   19.2348   16.7881   20.2268 H   0  0  0  0  0  0  0  0  0  0  0  0
   20.2563   16.9350   18.6782 H   0  0  0  0  0  0  0  0  0  0  0  0
   19.9962   18.7157   19.7890 C   0  0  0  0  0  0  0  0  0  0  0  0
   20.5850   19.3244   19.1031 H   0  0  0  0  0  0  0  0  0  0  0  0
   19.4183   19.4473   20.9801 C   0  0  0  0  0  0  0  0  0  0  0  0
   18.6280   18.8409   21.4420 H   0  0  0  0  0  0  0  0  0  0  0  0
   18.9487   20.3815   20.6448 H   0  0  0  0  0  0  0  0  0  0  0  0
   20.5132   19.7605   22.0244 C   0  0  0  0  0  0  0  0  0  0  0  0
   20.9285   18.8197   22.4115 H   0  0  0  0  0  0  0  0  0  0  0  0
   21.3424   20.2814   21.5265 H   0  0  0  0  0  0  0  0  0  0  0  0
   20.0154   20.6384   23.1991 C   0  0  0  0  0  0  0  0  0  0  0  0
   19.6544   21.5982   22.8057 H   0  0  0  0  0  0  0  0  0  0  0  0
   20.8686   20.8743   23.8501 H   0  0  0  0  0  0  0  0  0  0  0  0
   18.8973   19.9881   24.0590 C   0  0  0  0  0  0  0  0  0  0  0  0
   18.6022   20.6818   24.8548 H   0  0  0  0  0  0  0  0  0  0  0  0
   18.0000   19.8088   23.4559 H   0  0  0  0  0  0  0  0  0  0  0  0
   19.3064   18.6788   24.7280 C   0  0  0  0  0  0  0  0  0  0  0  0
   20.1070   18.7284   25.6414 O   0  5  0  0  0  0  0  0  0  0  0  0
   18.7985   17.6475   24.3341 O   0  0  0  0  0  0  0  0  0  0  0  0
  1  2  1  0  0  0  0
  1  3  1  0  0  0  0
  1  4  2  0  0  0  0
  4  5  1  0  0  0  0
  4  6  1  0  0  0  0
  6  7  1  0  0  0  0
  6  8  1  0  0  0  0
  6  9  1  0  0  0  0
  9 10  1  0  0  0  0
  9 11  1  0  0  0  0
  9 12  1  0  0  0  0
 12 13  1  0  0  0  0
 12 14  1  0  0  0  0
 12 15  1  0  0  0  0
 15 16  1  0  0  0  0
 15 17  1  0  0  0  0
 15 18  1  0  0  0  0
 18 19  1  0  0  0  0
 18 20  2  0  0  0  0
M  END
> <VM2 Rank>
41

> <Conf_Id>
440

> <Probability>
0.14

> <Sum Probability>
98.98

> <Delta G>
2.724

> <G>
-19.165

> <E>
-34.522

> <-TS>
15.358

> <U+W>
-50.619

> <U>
11.125

> <W>
-61.744

> <W(PB)>
-63.912

> <W(SA)>
2.168

> <Valence>
9.852

> <Coulomb>
0.993

> <VdW>
0.281

> <VdW6>
-7.706

> <VdW12>
7.986

> <Bond>
0.153

> <Angle>
2.748

> <Pdih>
6.950

> <Idih>
0.001

> <Tether>
0.000

$$$$
VeraChem MOL file


 20 19  0  0  0  0  0  0  0  0999 V2000     
   21.1164   17.8044   19.7204 C   0  0  0  0  0  0  0  0  0  0  0  0
   21.7701   17.5522   20.5540 H   0  0  0  0  0  0  0  0  0  0  0  0
   21.2280   17.2280   18.8036 H   0  0  0  0  0  0  0  0  0  0  0  0
   20.2095   18.7801   19.8166 C   0  0  0  0  0  0  0  0  0  0  0  0
   19.5637   19.0167   18.9713 H   0  0  0  0  0  0  0  0  0  0  0  0
   19.9994   19.6224   21.0553 C   0  0  0  0  0  0  0  0  0  0  0  0
   19.9475   20.6825   20.7740 H   0  0  0  0  0  0  0  0  0  0  0  0
   20.8587   19.5132   21.7301 H   0  0  0  0  0  0  0  0  0  0  0  0
   18.7032   19.2149   21.7909 C   0  0  0  0  0  0  0  0  0  0  0  0
   17.8675   19.2340   21.0781 H   0  0  0  0  0  0  0  0  0  0  0  0
   18.7904   18.1752   22.1357 H   0  0  0  0  0  0  0  0  0  0  0  0
   18.3527   20.1371   22.9846 C   0  0  0  0  0  0  0  0  0  0  0  0
   17.3851   19.8241   23.4008 H   0  0  0  0  0  0  0  0  0  0  0  0
   18.2126   21.1636   22.6197 H   0  0  0  0  0  0  0  0  0  0  0  0
   19.4074   20.1419   24.1249 C   0  0  0  0  0  0  0  0  0  0  0  0
   20.3685   20.5231   23.7616 H   0  0  0  0  0  0  0  0  0  0  0  0
   19.0820   20.8264   24.9169 H   0  0  0  0  0  0  0  0  0  0  0  0
   19.6348   18.7778   24.7703 C   0  0  0  0  0  0  0  0  0  0  0  0
   20.6975   18.2202   24.5790 O   0  5  0  0  0  0  0  0  0  0  0  0
   18.7500   18.3190   25.4661 O   0  0  0  0  0  0  0  0  0  0  0  0
  1  2  1  0  0  0  0
  1  3  1  0  0  0  0
  1  4  2  0  0  0  0
  4  5  1  0  0  0  0
  4  6  1  0  0  0  0
  6  7  1  0  0  0  0
  6  8  1  0  0  0  0
  6  9  1  0  0  0  0
  9 10  1  0  0  0  0
  9 11  1  0  0  0  0
  9 12  1  0  0  0  0
 12 13  1  0  0  0  0
 12 14  1  0  0  0  0
 12 15  1  0  0  0  0
 15 16  1  0  0  0  0
 15 17  1  0  0  0  0
 15 18  1  0  0  0  0
 18 19  1  0  0  0  0
 18 20  2  0  0  0  0
M  END
> <VM2 Rank>
42

> <Conf_Id>
177

> <Probability>
0.14

> <Sum Probability>
99.12

> <Delta G>
2.742

> <G>
-19.147

> <E>
-34.505

> <-TS>
15.358

> <U+W>
-50.601

> <U>
11.126

> <W>
-61.727

> <W(PB)>
-63.877

> <W(SA)>
2.149

> <Valence>
9.852

> <Coulomb>
0.993

> <VdW>
0.281

> <VdW6>
-7.706

> <VdW12>
7.987

> <Bond>
0.153

> <Angle>
2.748

> <Pdih>
6.950

> <Idih>
0.001

> <Tether>
0.000

$$$$
VeraChem MOL file


 20 19  0  0  0  0  0  0  0  0999 V2000     
   20.7733   17.7201   20.4913 C   0  0  0  0  0  0  0  0  0  0  0  0
   20.4342   17.4182   21.4802 H   0  0  0  0  0  0  0  0  0  0  0  0
   21.5717   17.1307   20.0441 H   0  0  0  0  0  0  0  0  0  0  0  0
   20.2447   18.7620   19.8396 C   0  0  0  0  0  0  0  0  0  0  0  0
   20.6255   19.0151   18.8505 H   0  0  0  0  0  0  0  0  0  0  0  0
   19.1338   19.6771   20.3312 C   0  0  0  0  0  0  0  0  0  0  0  0
   18.2240   19.4612   19.7555 H   0  0  0  0  0  0  0  0  0  0  0  0
   19.3924   20.7150   20.0823 H   0  0  0  0  0  0  0  0  0  0  0  0
   18.8054   19.6001   21.8428 C   0  0  0  0  0  0  0  0  0  0  0  0
   17.8912   20.1790   22.0314 H   0  0  0  0  0  0  0  0  0  0  0  0
   18.5704   18.5645   22.1226 H   0  0  0  0  0  0  0  0  0  0  0  0
   19.9394   20.1627   22.7336 C   0  0  0  0  0  0  0  0  0  0  0  0
   20.1342   21.2064   22.4528 H   0  0  0  0  0  0  0  0  0  0  0  0
   20.8726   19.6121   22.5557 H   0  0  0  0  0  0  0  0  0  0  0  0
   19.5938   20.1028   24.2440 C   0  0  0  0  0  0  0  0  0  0  0  0
   20.3703   20.6214   24.8184 H   0  0  0  0  0  0  0  0  0  0  0  0
   18.6505   20.6273   24.4387 H   0  0  0  0  0  0  0  0  0  0  0  0
   19.4865   18.6846   24.7976 C   0  0  0  0  0  0  0  0  0  0  0  0
   20.5153   18.0750   25.0140 O   0  5  0  0  0  0  0  0  0  0  0  0
   18.3788   18.2335   25.0139 O   0  0  0  0  0  0  0  0  0  0  0  0
  1  2  1  0  0  0  0
  1  3  1  0  0  0  0
  1  4  2  0  0  0  0
  4  5  1  0  0  0  0
  4  6  1  0  0  0  0
  6  7  1  0  0  0  0
  6  8  1  0  0  0  0
  6  9  1  0  0  0  0
  9 10  1  0  0  0  0
  9 11  1  0  0  0  0
  9 12  1  0  0  0  0
 12 13  1  0  0  0  0
 12 14  1  0  0  0  0
 12 15  1  0  0  0  0
 15 16  1  0  0  0  0
 15 17  1  0  0  0  0
 15 18  1  0  0  0  0
 18 19  1  0  0  0  0
 18 20  2  0  0  0  0
M  END
> <VM2 Rank>
43

> <Conf_Id>
510

> <Probability>
0.12

> <Sum Probability>
99.24

> <Delta G>
2.837

> <G>
-19.051

> <E>
-34.881

> <-TS>
15.830

> <U+W>
-50.977

> <U>
11.076

> <W>
-62.053

> <W(PB)>
-64.205

> <W(SA)>
2.151

> <Valence>
8.972

> <Coulomb>
1.263

> <VdW>
0.841

> <VdW6>
-8.354

> <VdW12>
9.195

> <Bond>
0.189

> <Angle>
3.355

> <Pdih>
5.428

> <Idih>
0.001

> <Tether>
0.000

$$$$
VeraChem MOL file


 20 19  0  0  0  0  0  0  0  0999 V2000     
   19.7322   17.3114   20.1645 C   0  0  0  0  0  0  0  0  0  0  0  0
   18.6497   17.2077   20.2176 H   0  0  0  0  0  0  0  0  0  0  0  0
   20.3190   16.3993   20.0711 H   0  0  0  0  0  0  0  0  0  0  0  0
   20.3216   18.5091   20.2150 C   0  0  0  0  0  0  0  0  0  0  0  0
   21.4069   18.5889   20.1610 H   0  0  0  0  0  0  0  0  0  0  0  0
   19.5753   19.8205   20.3440 C   0  0  0  0  0  0  0  0  0  0  0  0
   18.4902   19.6561   20.3862 H   0  0  0  0  0  0  0  0  0  0  0  0
   19.7619   20.4072   19.4347 H   0  0  0  0  0  0  0  0  0  0  0  0
   20.0297   20.6681   21.5582 C   0  0  0  0  0  0  0  0  0  0  0  0
   21.1261   20.6686   21.6281 H   0  0  0  0  0  0  0  0  0  0  0  0
   19.7404   21.7107   21.3680 H   0  0  0  0  0  0  0  0  0  0  0  0
   19.4097   20.2514   22.9157 C   0  0  0  0  0  0  0  0  0  0  0  0
   18.3137   20.2443   22.8387 H   0  0  0  0  0  0  0  0  0  0  0  0
   19.6606   21.0199   23.6599 H   0  0  0  0  0  0  0  0  0  0  0  0
   19.8998   18.8799   23.4459 C   0  0  0  0  0  0  0  0  0  0  0  0
   19.5374   18.0695   22.8056 H   0  0  0  0  0  0  0  0  0  0  0  0
   20.9954   18.8387   23.4382 H   0  0  0  0  0  0  0  0  0  0  0  0
   19.4236   18.5914   24.8649 C   0  0  0  0  0  0  0  0  0  0  0  0
   20.1407   18.9220   25.7887 O   0  5  0  0  0  0  0  0  0  0  0  0
   18.3384   18.0642   25.0112 O   0  0  0  0  0  0  0  0  0  0  0  0
  1  2  1  0  0  0  0
  1  3  1  0  0  0  0
  1  4  2  0  0  0  0
  4  5  1  0  0  0  0
  4  6  1  0  0  0  0
  6  7  1  0  0  0  0
  6  8  1  0  0  0  0
  6  9  1  0  0  0  0
  9 10  1  0  0  0  0
  9 11  1  0  0  0  0
  9 12  1  0  0  0  0
 12 13  1  0  0  0  0
 12 14  1  0  0  0  0
 12 15  1  0  0  0  0
 15 16  1  0  0  0  0
 15 17  1  0  0  0  0
 15 18  1  0  0  0  0
 18 19  1  0  0  0  0
 18 20  2  0  0  0  0
M  END
> <VM2 Rank>
44

> <Conf_Id>
85

> <Probability>
0.11

> <Sum Probability>
99.36

> <Delta G>
2.872

> <G>
-19.016

> <E>
-34.233

> <-TS>
15.216

> <U+W>
-50.329

> <U>
11.028

> <W>
-61.357

> <W(PB)>
-63.524

> <W(SA)>
2.167

> <Valence>
11.008

> <Coulomb>
-0.464

> <VdW>
0.484

> <VdW6>
-7.638

> <VdW12>
8.122

> <Bond>
0.158

> <Angle>
3.060

> <Pdih>
7.789

> <Idih>
0.001

> <Tether>
0.000

$$$$
VeraChem MOL file


 20 19  0  0  0  0  0  0  0  0999 V2000     
   18.8632   17.7062   20.0559 C   0  0  0  0  0  0  0  0  0  0  0  0
   19.4645   16.8376   20.3192 H   0  0  0  0  0  0  0  0  0  0  0  0
   17.8305   17.5298   19.7601 H   0  0  0  0  0  0  0  0  0  0  0  0
   19.3682   18.9422   20.0959 C   0  0  0  0  0  0  0  0  0  0  0  0
   18.7475   19.7971   19.8288 H   0  0  0  0  0  0  0  0  0  0  0  0
   20.7920   19.2678   20.4961 C   0  0  0  0  0  0  0  0  0  0  0  0
   21.2954   19.7106   19.6264 H   0  0  0  0  0  0  0  0  0  0  0  0
   21.3520   18.3559   20.7438 H   0  0  0  0  0  0  0  0  0  0  0  0
   20.8846   20.2797   21.6651 C   0  0  0  0  0  0  0  0  0  0  0  0
   21.8829   20.7372   21.6358 H   0  0  0  0  0  0  0  0  0  0  0  0
   20.1727   21.1017   21.5089 H   0  0  0  0  0  0  0  0  0  0  0  0
   20.6918   19.6688   23.0759 C   0  0  0  0  0  0  0  0  0  0  0  0
   20.9513   20.4335   23.8212 H   0  0  0  0  0  0  0  0  0  0  0  0
   21.4000   18.8421   23.2244 H   0  0  0  0  0  0  0  0  0  0  0  0
   19.2516   19.1744   23.3648 C   0  0  0  0  0  0  0  0  0  0  0  0
   18.5250   19.9610   23.1295 H   0  0  0  0  0  0  0  0  0  0  0  0
   19.0107   18.3088   22.7397 H   0  0  0  0  0  0  0  0  0  0  0  0
   19.0499   18.7611   24.8182 C   0  0  0  0  0  0  0  0  0  0  0  0
   18.6509   19.5992   25.6025 O   0  5  0  0  0  0  0  0  0  0  0  0
   19.3187   17.6186   25.1336 O   0  0  0  0  0  0  0  0  0  0  0  0
  1  2  1  0  0  0  0
  1  3  1  0  0  0  0
  1  4  2  0  0  0  0
  4  5  1  0  0  0  0
  4  6  1  0  0  0  0
  6  7  1  0  0  0  0
  6  8  1  0  0  0  0
  6  9  1  0  0  0  0
  9 10  1  0  0  0  0
  9 11  1  0  0  0  0
  9 12  1  0  0  0  0
 12 13  1  0  0  0  0
 12 14  1  0  0  0  0
 12 15  1  0  0  0  0
 15 16  1  0  0  0  0
 15 17  1  0  0  0  0
 15 18  1  0  0  0  0
 18 19  1  0  0  0  0
 18 20  2  0  0  0  0
M  END
> <VM2 Rank>
45

> <Conf_Id>
91

> <Probability>
0.11

> <Sum Probability>
99.47

> <Delta G>
2.879

> <G>
-19.010

> <E>
-34.226

> <-TS>
15.217

> <U+W>
-50.323

> <U>
11.028

> <W>
-61.351

> <W(PB)>
-63.501

> <W(SA)>
2.150

> <Valence>
11.008

> <Coulomb>
-0.464

> <VdW>
0.484

> <VdW6>
-7.638

> <VdW12>
8.122

> <Bond>
0.158

> <Angle>
3.060

> <Pdih>
7.789

> <Idih>
0.001

> <Tether>
0.000

$$$$
VeraChem MOL file


 20 19  0  0  0  0  0  0  0  0999 V2000     
   21.3392   19.7208   20.5989 C   0  0  0  0  0  0  0  0  0  0  0  0
   22.3401   19.8473   20.1901 H   0  0  0  0  0  0  0  0  0  0  0  0
   21.1802   20.0555   21.6219 H   0  0  0  0  0  0  0  0  0  0  0  0
   20.3628   19.1792   19.8620 C   0  0  0  0  0  0  0  0  0  0  0  0
   20.5829   18.8640   18.8425 H   0  0  0  0  0  0  0  0  0  0  0  0
   18.9242   18.9356   20.2913 C   0  0  0  0  0  0  0  0  0  0  0  0
   18.6095   17.9460   19.9338 H   0  0  0  0  0  0  0  0  0  0  0  0
   18.2776   19.6506   19.7655 H   0  0  0  0  0  0  0  0  0  0  0  0
   18.6420   19.0228   21.8117 C   0  0  0  0  0  0  0  0  0  0  0  0
   18.9748   19.9949   22.1992 H   0  0  0  0  0  0  0  0  0  0  0  0
   17.5551   18.9914   21.9675 H   0  0  0  0  0  0  0  0  0  0  0  0
   19.2894   17.8657   22.6105 C   0  0  0  0  0  0  0  0  0  0  0  0
   20.3774   17.8620   22.4618 H   0  0  0  0  0  0  0  0  0  0  0  0
   18.9180   16.9078   22.2224 H   0  0  0  0  0  0  0  0  0  0  0  0
   18.9840   17.9477   24.1284 C   0  0  0  0  0  0  0  0  0  0  0  0
   17.9006   17.9772   24.2966 H   0  0  0  0  0  0  0  0  0  0  0  0
   19.3585   17.0459   24.6268 H   0  0  0  0  0  0  0  0  0  0  0  0
   19.6181   19.1499   24.8224 C   0  0  0  0  0  0  0  0  0  0  0  0
   20.8074   19.1071   25.0691 O   0  5  0  0  0  0  0  0  0  0  0  0
   18.9039   20.0892   25.1136 O   0  0  0  0  0  0  0  0  0  0  0  0
  1  2  1  0  0  0  0
  1  3  1  0  0  0  0
  1  4  2  0  0  0  0
  4  5  1  0  0  0  0
  4  6  1  0  0  0  0
  6  7  1  0  0  0  0
  6  8  1  0  0  0  0
  6  9  1  0  0  0  0
  9 10  1  0  0  0  0
  9 11  1  0  0  0  0
  9 12  1  0  0  0  0
 12 13  1  0  0  0  0
 12 14  1  0  0  0  0
 12 15  1  0  0  0  0
 15 16  1  0  0  0  0
 15 17  1  0  0  0  0
 15 18  1  0  0  0  0
 18 19  1  0  0  0  0
 18 20  2  0  0  0  0
M  END
> <VM2 Rank>
46

> <Conf_Id>
376

> <Probability>
0.11

> <Sum Probability>
99.57

> <Delta G>
2.907

> <G>
-18.981

> <E>
-34.809

> <-TS>
15.828

> <U+W>
-50.905

> <U>
11.076

> <W>
-61.981

> <W(PB)>
-64.112

> <W(SA)>
2.131

> <Valence>
8.972

> <Coulomb>
1.262

> <VdW>
0.841

> <VdW6>
-8.354

> <VdW12>
9.195

> <Bond>
0.189

> <Angle>
3.355

> <Pdih>
5.428

> <Idih>
0.001

> <Tether>
0.000

$$$$
VeraChem MOL file


 20 19  0  0  0  0  0  0  0  0999 V2000     
   19.9934   18.6779   18.8432 C   0  0  0  0  0  0  0  0  0  0  0  0
   20.4029   17.9184   18.1795 H   0  0  0  0  0  0  0  0  0  0  0  0
   19.8281   19.6706   18.4275 H   0  0  0  0  0  0  0  0  0  0  0  0
   19.7091   18.3998   20.1181 C   0  0  0  0  0  0  0  0  0  0  0  0
   19.8799   17.3991   20.5139 H   0  0  0  0  0  0  0  0  0  0  0  0
   19.1338   19.4011   21.0968 C   0  0  0  0  0  0  0  0  0  0  0  0
   18.3169   18.9423   21.6687 H   0  0  0  0  0  0  0  0  0  0  0  0
   18.6812   20.2376   20.5475 H   0  0  0  0  0  0  0  0  0  0  0  0
   20.2040   19.9682   22.0600 C   0  0  0  0  0  0  0  0  0  0  0  0
   20.9652   20.4974   21.4707 H   0  0  0  0  0  0  0  0  0  0  0  0
   19.7373   20.7259   22.7043 H   0  0  0  0  0  0  0  0  0  0  0  0
   20.9068   18.9070   22.9455 C   0  0  0  0  0  0  0  0  0  0  0  0
   21.6606   19.4104   23.5665 H   0  0  0  0  0  0  0  0  0  0  0  0
   21.4593   18.2049   22.3072 H   0  0  0  0  0  0  0  0  0  0  0  0
   19.9505   18.1086   23.8730 C   0  0  0  0  0  0  0  0  0  0  0  0
   19.2302   17.5325   23.2811 H   0  0  0  0  0  0  0  0  0  0  0  0
   20.5302   17.3796   24.4510 H   0  0  0  0  0  0  0  0  0  0  0  0
   19.1840   18.9730   24.8699 C   0  0  0  0  0  0  0  0  0  0  0  0
   19.7973   19.4474   25.8060 O   0  5  0  0  0  0  0  0  0  0  0  0
   17.9922   19.1349   24.6955 O   0  0  0  0  0  0  0  0  0  0  0  0
  1  2  1  0  0  0  0
  1  3  1  0  0  0  0
  1  4  2  0  0  0  0
  4  5  1  0  0  0  0
  4  6  1  0  0  0  0
  6  7  1  0  0  0  0
  6  8  1  0  0  0  0
  6  9  1  0  0  0  0
  9 10  1  0  0  0  0
  9 11  1  0  0  0  0
  9 12  1  0  0  0  0
 12 13  1  0  0  0  0
 12 14  1  0  0  0  0
 12 15  1  0  0  0  0
 15 16  1  0  0  0  0
 15 17  1  0  0  0  0
 15 18  1  0  0  0  0
 18 19  1  0  0  0  0
 18 20  2  0  0  0  0
M  END
> <VM2 Rank>
47

> <Conf_Id>
342

> <Probability>
0.07

> <Sum Probability>
99.65

> <Delta G>
3.138

> <G>
-18.750

> <E>
-34.409

> <-TS>
15.659

> <U+W>
-50.505

> <U>
10.403

> <W>
-60.908

> <W(PB)>
-63.053

> <W(SA)>
2.145

> <Valence>
10.022

> <Coulomb>
0.092

> <VdW>
0.289

> <VdW6>
-8.408

> <VdW12>
8.698

> <Bond>
0.179

> <Angle>
2.939

> <Pdih>
6.902

> <Idih>
0.001

> <Tether>
0.000

$$$$
VeraChem MOL file


 20 19  0  0  0  0  0  0  0  0999 V2000     
   20.4528   18.8165   18.9025 C   0  0  0  0  0  0  0  0  0  0  0  0
   20.1425   19.7654   18.4680 H   0  0  0  0  0  0  0  0  0  0  0  0
   20.6911   18.0053   18.2166 H   0  0  0  0  0  0  0  0  0  0  0  0
   20.5361   18.6491   20.2248 C   0  0  0  0  0  0  0  0  0  0  0  0
   20.8510   17.6919   20.6392 H   0  0  0  0  0  0  0  0  0  0  0  0
   20.2264   19.7305   21.2378 C   0  0  0  0  0  0  0  0  0  0  0  0
   20.2637   20.7147   20.7518 H   0  0  0  0  0  0  0  0  0  0  0  0
   21.0013   19.7516   22.0151 H   0  0  0  0  0  0  0  0  0  0  0  0
   18.8309   19.5542   21.8829 C   0  0  0  0  0  0  0  0  0  0  0  0
   18.6444   20.3963   22.5634 H   0  0  0  0  0  0  0  0  0  0  0  0
   18.0667   19.6234   21.0968 H   0  0  0  0  0  0  0  0  0  0  0  0
   18.6361   18.2224   22.6527 C   0  0  0  0  0  0  0  0  0  0  0  0
   18.7218   17.3796   21.9541 H   0  0  0  0  0  0  0  0  0  0  0  0
   17.6100   18.1891   23.0441 H   0  0  0  0  0  0  0  0  0  0  0  0
   19.6254   18.0105   23.8311 C   0  0  0  0  0  0  0  0  0  0  0  0
   19.4204   17.0450   24.3079 H   0  0  0  0  0  0  0  0  0  0  0  0
   20.6574   17.9627   23.4652 H   0  0  0  0  0  0  0  0  0  0  0  0
   19.5403   19.0804   24.9158 C   0  0  0  0  0  0  0  0  0  0  0  0
   20.4532   19.8768   25.0128 O   0  5  0  0  0  0  0  0  0  0  0  0
   18.5697   19.0775   25.6476 O   0  0  0  0  0  0  0  0  0  0  0  0
  1  2  1  0  0  0  0
  1  3  1  0  0  0  0
  1  4  2  0  0  0  0
  4  5  1  0  0  0  0
  4  6  1  0  0  0  0
  6  7  1  0  0  0  0
  6  8  1  0  0  0  0
  6  9  1  0  0  0  0
  9 10  1  0  0  0  0
  9 11  1  0  0  0  0
  9 12  1  0  0  0  0
 12 13  1  0  0  0  0
 12 14  1  0  0  0  0
 12 15  1  0  0  0  0
 15 16  1  0  0  0  0
 15 17  1  0  0  0  0
 15 18  1  0  0  0  0
 18 19  1  0  0  0  0
 18 20  2  0  0  0  0
M  END
> <VM2 Rank>
48

> <Conf_Id>
475

> <Probability>
0.07

> <Sum Probability>
99.72

> <Delta G>
3.148

> <G>
-18.741

> <E>
-34.401

> <-TS>
15.660

> <U+W>
-50.497

> <U>
10.403

> <W>
-60.900

> <W(PB)>
-63.048

> <W(SA)>
2.148

> <Valence>
10.021

> <Coulomb>
0.093

> <VdW>
0.289

> <VdW6>
-8.409

> <VdW12>
8.698

> <Bond>
0.179

> <Angle>
2.939

> <Pdih>
6.902

> <Idih>
0.001

> <Tether>
0.000

$$$$
VeraChem MOL file


 20 19  0  0  0  0  0  0  0  0999 V2000     
   20.8982   17.9490   19.8828 C   0  0  0  0  0  0  0  0  0  0  0  0
   20.8562   17.3126   19.0006 H   0  0  0  0  0  0  0  0  0  0  0  0
   21.5625   17.6440   20.6897 H   0  0  0  0  0  0  0  0  0  0  0  0
   20.1594   19.0583   19.9696 C   0  0  0  0  0  0  0  0  0  0  0  0
   19.4991   19.3446   19.1515 H   0  0  0  0  0  0  0  0  0  0  0  0
   20.1630   19.9907   21.1624 C   0  0  0  0  0  0  0  0  0  0  0  0
   20.3571   21.0141   20.8153 H   0  0  0  0  0  0  0  0  0  0  0  0
   20.9844   19.7439   21.8479 H   0  0  0  0  0  0  0  0  0  0  0  0
   18.8168   19.9762   21.9255 C   0  0  0  0  0  0  0  0  0  0  0  0
   18.8569   20.7180   22.7348 H   0  0  0  0  0  0  0  0  0  0  0  0
   18.0202   20.3099   21.2467 H   0  0  0  0  0  0  0  0  0  0  0  0
   18.4258   18.5963   22.5142 C   0  0  0  0  0  0  0  0  0  0  0  0
   18.3120   17.8699   21.6984 H   0  0  0  0  0  0  0  0  0  0  0  0
   17.4379   18.6814   22.9874 H   0  0  0  0  0  0  0  0  0  0  0  0
   19.4310   18.0355   23.5569 C   0  0  0  0  0  0  0  0  0  0  0  0
   19.0828   17.0567   23.9067 H   0  0  0  0  0  0  0  0  0  0  0  0
   20.4114   17.8693   23.0967 H   0  0  0  0  0  0  0  0  0  0  0  0
   19.6119   18.9202   24.7868 C   0  0  0  0  0  0  0  0  0  0  0  0
   20.6590   19.5241   24.9138 O   0  5  0  0  0  0  0  0  0  0  0  0
   18.7060   18.9678   25.5959 O   0  0  0  0  0  0  0  0  0  0  0  0
  1  2  1  0  0  0  0
  1  3  1  0  0  0  0
  1  4  2  0  0  0  0
  4  5  1  0  0  0  0
  4  6  1  0  0  0  0
  6  7  1  0  0  0  0
  6  8  1  0  0  0  0
  6  9  1  0  0  0  0
  9 10  1  0  0  0  0
  9 11  1  0  0  0  0
  9 12  1  0  0  0  0
 12 13  1  0  0  0  0
 12 14  1  0  0  0  0
 12 15  1  0  0  0  0
 15 16  1  0  0  0  0
 15 17  1  0  0  0  0
 15 18  1  0  0  0  0
 18 19  1  0  0  0  0
 18 20  2  0  0  0  0
M  END
> <VM2 Rank>
49

> <Conf_Id>
562

> <Probability>
0.05

> <Sum Probability>
99.77

> <Delta G>
3.304

> <G>
-18.585

> <E>
-34.367

> <-TS>
15.783

> <U+W>
-50.464

> <U>
10.910

> <W>
-61.373

> <W(PB)>
-63.512

> <W(SA)>
2.139

> <Valence>
9.972

> <Coulomb>
0.850

> <VdW>
0.088

> <VdW6>
-8.716

> <VdW12>
8.804

> <Bond>
0.178

> <Angle>
2.916

> <Pdih>
6.877

> <Idih>
0.001

> <Tether>
0.000

$$$$
VeraChem MOL file


 20 19  0  0  0  0  0  0  0  0999 V2000     
   19.8780   17.6413   19.7514 C   0  0  0  0  0  0  0  0  0  0  0  0
   19.3208   16.9682   20.4008 H   0  0  0  0  0  0  0  0  0  0  0  0
   20.4637   17.1942   18.9502 H   0  0  0  0  0  0  0  0  0  0  0  0
   19.8492   18.9648   19.9297 C   0  0  0  0  0  0  0  0  0  0  0  0
   20.4159   19.6210   19.2698 H   0  0  0  0  0  0  0  0  0  0  0  0
   19.0609   19.6584   21.0203 C   0  0  0  0  0  0  0  0  0  0  0  0
   18.3737   18.9569   21.5112 H   0  0  0  0  0  0  0  0  0  0  0  0
   18.4282   20.4325   20.5666 H   0  0  0  0  0  0  0  0  0  0  0  0
   19.9759   20.3257   22.0750 C   0  0  0  0  0  0  0  0  0  0  0  0
   20.5942   21.0860   21.5787 H   0  0  0  0  0  0  0  0  0  0  0  0
   19.3512   20.8671   22.7985 H   0  0  0  0  0  0  0  0  0  0  0  0
   20.9051   19.3439   22.8340 C   0  0  0  0  0  0  0  0  0  0  0  0
   21.5445   19.9197   23.5172 H   0  0  0  0  0  0  0  0  0  0  0  0
   21.5824   18.8560   22.1203 H   0  0  0  0  0  0  0  0  0  0  0  0
   20.1577   18.2546   23.6506 C   0  0  0  0  0  0  0  0  0  0  0  0
   19.5654   17.6141   22.9874 H   0  0  0  0  0  0  0  0  0  0  0  0
   20.8896   17.6016   24.1398 H   0  0  0  0  0  0  0  0  0  0  0  0
   19.2435   18.8091   24.7392 C   0  0  0  0  0  0  0  0  0  0  0  0
   19.7591   19.2853   25.7317 O   0  5  0  0  0  0  0  0  0  0  0  0
   18.0415   18.7349   24.5760 O   0  0  0  0  0  0  0  0  0  0  0  0
  1  2  1  0  0  0  0
  1  3  1  0  0  0  0
  1  4  2  0  0  0  0
  4  5  1  0  0  0  0
  4  6  1  0  0  0  0
  6  7  1  0  0  0  0
  6  8  1  0  0  0  0
  6  9  1  0  0  0  0
  9 10  1  0  0  0  0
  9 11  1  0  0  0  0
  9 12  1  0  0  0  0
 12 13  1  0  0  0  0
 12 14  1  0  0  0  0
 12 15  1  0  0  0  0
 15 16  1  0  0  0  0
 15 17  1  0  0  0  0
 15 18  1  0  0  0  0
 18 19  1  0  0  0  0
 18 20  2  0  0  0  0
M  END
> <VM2 Rank>
50

> <Conf_Id>
561

> <Probability>
0.05

> <Sum Probability>
99.82

> <Delta G>
3.316

> <G>
-18.572

> <E>
-34.355

> <-TS>
15.783

> <U+W>
-50.452

> <U>
10.910

> <W>
-61.362

> <W(PB)>
-63.495

> <W(SA)>
2.133

> <Valence>
9.972

> <Coulomb>
0.850

> <VdW>
0.088

> <VdW6>
-8.717

> <VdW12>
8.804

> <Bond>
0.178

> <Angle>
2.916

> <Pdih>
6.877

> <Idih>
0.001

> <Tether>
0.000

$$$$
VeraChem MOL file


 20 19  0  0  0  0  0  0  0  0999 V2000     
   20.5592   17.9884   19.1711 C   0  0  0  0  0  0  0  0  0  0  0  0
   21.5960   17.9337   19.4994 H   0  0  0  0  0  0  0  0  0  0  0  0
   20.3505   17.7519   18.1291 H   0  0  0  0  0  0  0  0  0  0  0  0
   19.5793   18.3341   20.0101 C   0  0  0  0  0  0  0  0  0  0  0  0
   18.5480   18.3836   19.6615 H   0  0  0  0  0  0  0  0  0  0  0  0
   19.7923   18.6747   21.4684 C   0  0  0  0  0  0  0  0  0  0  0  0
   20.7907   18.3516   21.7932 H   0  0  0  0  0  0  0  0  0  0  0  0
   19.0658   18.1199   22.0745 H   0  0  0  0  0  0  0  0  0  0  0  0
   19.6353   20.1919   21.7123 C   0  0  0  0  0  0  0  0  0  0  0  0
   20.2671   20.7279   20.9906 H   0  0  0  0  0  0  0  0  0  0  0  0
   18.6008   20.4945   21.5000 H   0  0  0  0  0  0  0  0  0  0  0  0
   20.0332   20.6495   23.1377 C   0  0  0  0  0  0  0  0  0  0  0  0
   20.0200   21.7477   23.1525 H   0  0  0  0  0  0  0  0  0  0  0  0
   21.0707   20.3572   23.3514 H   0  0  0  0  0  0  0  0  0  0  0  0
   19.0960   20.1430   24.2700 C   0  0  0  0  0  0  0  0  0  0  0  0
   19.2373   20.7704   25.1576 H   0  0  0  0  0  0  0  0  0  0  0  0
   18.0463   20.2528   23.9719 H   0  0  0  0  0  0  0  0  0  0  0  0
   19.3365   18.7030   24.7189 C   0  0  0  0  0  0  0  0  0  0  0  0
   20.4371   18.4066   25.1413 O   0  5  0  0  0  0  0  0  0  0  0  0
   18.4022   17.9268   24.6782 O   0  0  0  0  0  0  0  0  0  0  0  0
  1  2  1  0  0  0  0
  1  3  1  0  0  0  0
  1  4  2  0  0  0  0
  4  5  1  0  0  0  0
  4  6  1  0  0  0  0
  6  7  1  0  0  0  0
  6  8  1  0  0  0  0
  6  9  1  0  0  0  0
  9 10  1  0  0  0  0
  9 11  1  0  0  0  0
  9 12  1  0  0  0  0
 12 13  1  0  0  0  0
 12 14  1  0  0  0  0
 12 15  1  0  0  0  0
 15 16  1  0  0  0  0
 15 17  1  0  0  0  0
 15 18  1  0  0  0  0
 18 19  1  0  0  0  0
 18 20  2  0  0  0  0
M  END
> <VM2 Rank>
51

> <Conf_Id>
121

> <Probability>
0.03

> <Sum Probability>
99.86

> <Delta G>
3.645

> <G>
-18.244

> <E>
-33.768

> <-TS>
15.524

> <U+W>
-49.864

> <U>
11.756

> <W>
-61.620

> <W(PB)>
-63.781

> <W(SA)>
2.162

> <Valence>
10.982

> <Coulomb>
0.363

> <VdW>
0.411

> <VdW6>
-8.036

> <VdW12>
8.447

> <Bond>
0.168

> <Angle>
3.178

> <Pdih>
7.632

> <Idih>
0.005

> <Tether>
0.000

$$$$
VeraChem MOL file


 20 19  0  0  0  0  0  0  0  0999 V2000     
   19.9971   18.4107   19.0679 C   0  0  0  0  0  0  0  0  0  0  0  0
   20.3277   17.9457   18.1408 H   0  0  0  0  0  0  0  0  0  0  0  0
   19.1129   19.0421   19.0125 H   0  0  0  0  0  0  0  0  0  0  0  0
   20.6580   18.1995   20.2119 C   0  0  0  0  0  0  0  0  0  0  0  0
   21.5362   17.5543   20.2051 H   0  0  0  0  0  0  0  0  0  0  0  0
   20.3209   18.7773   21.5764 C   0  0  0  0  0  0  0  0  0  0  0  0
   21.2254   19.2358   21.9979 H   0  0  0  0  0  0  0  0  0  0  0  0
   20.0662   17.9481   22.2472 H   0  0  0  0  0  0  0  0  0  0  0  0
   19.1799   19.8240   21.5779 C   0  0  0  0  0  0  0  0  0  0  0  0
   19.4048   20.5906   20.8238 H   0  0  0  0  0  0  0  0  0  0  0  0
   18.2394   19.3470   21.2703 H   0  0  0  0  0  0  0  0  0  0  0  0
   18.9787   20.5389   22.9376 C   0  0  0  0  0  0  0  0  0  0  0  0
   18.2516   21.3480   22.7850 H   0  0  0  0  0  0  0  0  0  0  0  0
   19.9125   21.0276   23.2485 H   0  0  0  0  0  0  0  0  0  0  0  0
   18.4497   19.6291   24.0820 C   0  0  0  0  0  0  0  0  0  0  0  0
   18.0129   20.2589   24.8655 H   0  0  0  0  0  0  0  0  0  0  0  0
   17.6436   18.9836   23.7126 H   0  0  0  0  0  0  0  0  0  0  0  0
   19.5052   18.7629   24.7666 C   0  0  0  0  0  0  0  0  0  0  0  0
   20.4587   19.3137   25.2814 O   0  5  0  0  0  0  0  0  0  0  0  0
   19.3228   17.5619   24.8063 O   0  0  0  0  0  0  0  0  0  0  0  0
  1  2  1  0  0  0  0
  1  3  1  0  0  0  0
  1  4  2  0  0  0  0
  4  5  1  0  0  0  0
  4  6  1  0  0  0  0
  6  7  1  0  0  0  0
  6  8  1  0  0  0  0
  6  9  1  0  0  0  0
  9 10  1  0  0  0  0
  9 11  1  0  0  0  0
  9 12  1  0  0  0  0
 12 13  1  0  0  0  0
 12 14  1  0  0  0  0
 12 15  1  0  0  0  0
 15 16  1  0  0  0  0
 15 17  1  0  0  0  0
 15 18  1  0  0  0  0
 18 19  1  0  0  0  0
 18 20  2  0  0  0  0
M  END
> <VM2 Rank>
52

> <Conf_Id>
250

> <Probability>
0.03

> <Sum Probability>
99.88

> <Delta G>
3.741

> <G>
-18.147

> <E>
-34.009

> <-TS>
15.862

> <U+W>
-50.105

> <U>
11.478

> <W>
-61.584

> <W(PB)>
-63.742

> <W(SA)>
2.158

> <Valence>
9.963

> <Coulomb>
0.356

> <VdW>
1.159

> <VdW6>
-8.703

> <VdW12>
9.862

> <Bond>
0.227

> <Angle>
3.805

> <Pdih>
5.927

> <Idih>
0.005

> <Tether>
0.000

$$$$
VeraChem MOL file


 20 19  0  0  0  0  0  0  0  0999 V2000     
   19.6594   18.7853   19.0102 C   0  0  0  0  0  0  0  0  0  0  0  0
   19.3798   18.9956   17.9793 H   0  0  0  0  0  0  0  0  0  0  0  0
   20.1883   17.8528   19.1951 H   0  0  0  0  0  0  0  0  0  0  0  0
   19.3536   19.6437   19.9898 C   0  0  0  0  0  0  0  0  0  0  0  0
   18.8197   20.5611   19.7430 H   0  0  0  0  0  0  0  0  0  0  0  0
   19.6769   19.4901   21.4667 C   0  0  0  0  0  0  0  0  0  0  0  0
   18.7325   19.4245   22.0202 H   0  0  0  0  0  0  0  0  0  0  0  0
   20.1657   20.4088   21.8177 H   0  0  0  0  0  0  0  0  0  0  0  0
   20.5756   18.2784   21.8154 C   0  0  0  0  0  0  0  0  0  0  0  0
   20.0473   17.3450   21.5778 H   0  0  0  0  0  0  0  0  0  0  0  0
   21.4678   18.3063   21.1750 H   0  0  0  0  0  0  0  0  0  0  0  0
   21.0496   18.2454   23.2900 C   0  0  0  0  0  0  0  0  0  0  0  0
   21.5883   19.1717   23.5337 H   0  0  0  0  0  0  0  0  0  0  0  0
   21.7848   17.4351   23.3864 H   0  0  0  0  0  0  0  0  0  0  0  0
   19.9234   17.9969   24.3327 C   0  0  0  0  0  0  0  0  0  0  0  0
   19.2539   17.2002   23.9865 H   0  0  0  0  0  0  0  0  0  0  0  0
   20.3742   17.6437   25.2673 H   0  0  0  0  0  0  0  0  0  0  0  0
   19.0891   19.2238   24.6958 C   0  0  0  0  0  0  0  0  0  0  0  0
   19.6604   20.1977   25.1461 O   0  5  0  0  0  0  0  0  0  0  0  0
   17.8830   19.1566   24.5612 O   0  0  0  0  0  0  0  0  0  0  0  0
  1  2  1  0  0  0  0
  1  3  1  0  0  0  0
  1  4  2  0  0  0  0
  4  5  1  0  0  0  0
  4  6  1  0  0  0  0
  6  7  1  0  0  0  0
  6  8  1  0  0  0  0
  6  9  1  0  0  0  0
  9 10  1  0  0  0  0
  9 11  1  0  0  0  0
  9 12  1  0  0  0  0
 12 13  1  0  0  0  0
 12 14  1  0  0  0  0
 12 15  1  0  0  0  0
 15 16  1  0  0  0  0
 15 17  1  0  0  0  0
 15 18  1  0  0  0  0
 18 19  1  0  0  0  0
 18 20  2  0  0  0  0
M  END
> <VM2 Rank>
53

> <Conf_Id>
458

> <Probability>
0.03

> <Sum Probability>
99.91

> <Delta G>
3.748

> <G>
-18.141

> <E>
-34.003

> <-TS>
15.862

> <U+W>
-50.099

> <U>
11.477

> <W>
-61.576

> <W(PB)>
-63.708

> <W(SA)>
2.132

> <Valence>
9.964

> <Coulomb>
0.354

> <VdW>
1.159

> <VdW6>
-8.703

> <VdW12>
9.862

> <Bond>
0.227

> <Angle>
3.805

> <Pdih>
5.927

> <Idih>
0.004

> <Tether>
0.000

$$$$
VeraChem MOL file


 20 19  0  0  0  0  0  0  0  0999 V2000     
   18.7448   18.6775   19.2641 C   0  0  0  0  0  0  0  0  0  0  0  0
   18.7039   18.6700   18.1762 H   0  0  0  0  0  0  0  0  0  0  0  0
   17.9965   18.0938   19.7979 H   0  0  0  0  0  0  0  0  0  0  0  0
   19.6794   19.3751   19.9149 C   0  0  0  0  0  0  0  0  0  0  0  0
   20.4196   19.9530   19.3620 H   0  0  0  0  0  0  0  0  0  0  0  0
   19.7973   19.4344   21.4219 C   0  0  0  0  0  0  0  0  0  0  0  0
   18.8721   19.0637   21.8805 H   0  0  0  0  0  0  0  0  0  0  0  0
   19.9142   20.4787   21.7411 H   0  0  0  0  0  0  0  0  0  0  0  0
   20.9993   18.6006   21.9180 C   0  0  0  0  0  0  0  0  0  0  0  0
   20.8264   17.5389   21.6945 H   0  0  0  0  0  0  0  0  0  0  0  0
   21.8898   18.8942   21.3455 H   0  0  0  0  0  0  0  0  0  0  0  0
   21.3137   18.7750   23.4248 C   0  0  0  0  0  0  0  0  0  0  0  0
   21.4966   19.8346   23.6514 H   0  0  0  0  0  0  0  0  0  0  0  0
   22.2587   18.2547   23.6317 H   0  0  0  0  0  0  0  0  0  0  0  0
   20.2324   18.2063   24.3862 C   0  0  0  0  0  0  0  0  0  0  0  0
   19.8996   17.2195   24.0423 H   0  0  0  0  0  0  0  0  0  0  0  0
   20.6776   18.0594   25.3771 H   0  0  0  0  0  0  0  0  0  0  0  0
   19.0098   19.0983   24.5925 C   0  0  0  0  0  0  0  0  0  0  0  0
   19.1817   20.2230   25.0206 O   0  5  0  0  0  0  0  0  0  0  0  0
   17.9126   18.6277   24.3650 O   0  0  0  0  0  0  0  0  0  0  0  0
  1  2  1  0  0  0  0
  1  3  1  0  0  0  0
  1  4  2  0  0  0  0
  4  5  1  0  0  0  0
  4  6  1  0  0  0  0
  6  7  1  0  0  0  0
  6  8  1  0  0  0  0
  6  9  1  0  0  0  0
  9 10  1  0  0  0  0
  9 11  1  0  0  0  0
  9 12  1  0  0  0  0
 12 13  1  0  0  0  0
 12 14  1  0  0  0  0
 12 15  1  0  0  0  0
 15 16  1  0  0  0  0
 15 17  1  0  0  0  0
 15 18  1  0  0  0  0
 18 19  1  0  0  0  0
 18 20  2  0  0  0  0
M  END
> <VM2 Rank>
54

> <Conf_Id>
495

> <Probability>
0.03

> <Sum Probability>
99.93

> <Delta G>
3.749

> <G>
-18.139

> <E>
-33.654

> <-TS>
15.514

> <U+W>
-49.750

> <U>
12.063

> <W>
-61.813

> <W(PB)>
-64.015

> <W(SA)>
2.202

> <Valence>
10.981

> <Coulomb>
0.680

> <VdW>
0.402

> <VdW6>
-8.075

> <VdW12>
8.477

> <Bond>
0.169

> <Angle>
3.169

> <Pdih>
7.638

> <Idih>
0.005

> <Tether>
0.000

$$$$
VeraChem MOL file


 20 19  0  0  0  0  0  0  0  0999 V2000     
   20.2126   17.5709   19.4794 C   0  0  0  0  0  0  0  0  0  0  0  0
   20.4162   17.3787   18.4274 H   0  0  0  0  0  0  0  0  0  0  0  0
   19.7542   16.7689   20.0560 H   0  0  0  0  0  0  0  0  0  0  0  0
   20.5127   18.7468   20.0370 C   0  0  0  0  0  0  0  0  0  0  0  0
   20.9710   19.5368   19.4425 H   0  0  0  0  0  0  0  0  0  0  0  0
   20.2609   19.0851   21.4898 C   0  0  0  0  0  0  0  0  0  0  0  0
   21.1623   19.5383   21.9237 H   0  0  0  0  0  0  0  0  0  0  0  0
   20.0638   18.1658   22.0553 H   0  0  0  0  0  0  0  0  0  0  0  0
   19.0684   20.0562   21.6351 C   0  0  0  0  0  0  0  0  0  0  0  0
   19.2224   20.9049   20.9546 H   0  0  0  0  0  0  0  0  0  0  0  0
   18.1474   19.5584   21.3022 H   0  0  0  0  0  0  0  0  0  0  0  0
   18.8751   20.6137   23.0674 C   0  0  0  0  0  0  0  0  0  0  0  0
   18.0998   21.3904   23.0222 H   0  0  0  0  0  0  0  0  0  0  0  0
   19.7911   21.1206   23.4014 H   0  0  0  0  0  0  0  0  0  0  0  0
   18.4373   19.5598   24.1233 C   0  0  0  0  0  0  0  0  0  0  0  0
   18.0008   20.0780   24.9849 H   0  0  0  0  0  0  0  0  0  0  0  0
   17.6506   18.9153   23.7129 H   0  0  0  0  0  0  0  0  0  0  0  0
   19.5606   18.6830   24.6733 C   0  0  0  0  0  0  0  0  0  0  0  0
   20.5043   19.2259   25.2140 O   0  5  0  0  0  0  0  0  0  0  0  0
   19.4391   17.4767   24.5886 O   0  0  0  0  0  0  0  0  0  0  0  0
  1  2  1  0  0  0  0
  1  3  1  0  0  0  0
  1  4  2  0  0  0  0
  4  5  1  0  0  0  0
  4  6  1  0  0  0  0
  6  7  1  0  0  0  0
  6  8  1  0  0  0  0
  6  9  1  0  0  0  0
  9 10  1  0  0  0  0
  9 11  1  0  0  0  0
  9 12  1  0  0  0  0
 12 13  1  0  0  0  0
 12 14  1  0  0  0  0
 12 15  1  0  0  0  0
 15 16  1  0  0  0  0
 15 17  1  0  0  0  0
 15 18  1  0  0  0  0
 18 19  1  0  0  0  0
 18 20  2  0  0  0  0
M  END
> <VM2 Rank>
55

> <Conf_Id>
539

> <Probability>
0.03

> <Sum Probability>
99.96

> <Delta G>
3.754

> <G>
-18.134

> <E>
-33.648

> <-TS>
15.514

> <U+W>
-49.745

> <U>
12.064

> <W>
-61.809

> <W(PB)>
-63.985

> <W(SA)>
2.176

> <Valence>
10.980

> <Coulomb>
0.682

> <VdW>
0.402

> <VdW6>
-8.075

> <VdW12>
8.477

> <Bond>
0.169

> <Angle>
3.169

> <Pdih>
7.637

> <Idih>
0.005

> <Tether>
0.000

$$$$
VeraChem MOL file


 20 19  0  0  0  0  0  0  0  0999 V2000     
   19.5973   18.6109   19.2624 C   0  0  0  0  0  0  0  0  0  0  0  0
   19.0504   18.7525   18.3319 H   0  0  0  0  0  0  0  0  0  0  0  0
   19.8315   17.5874   19.5467 H   0  0  0  0  0  0  0  0  0  0  0  0
   19.9637   19.6587   20.0085 C   0  0  0  0  0  0  0  0  0  0  0  0
   19.7063   20.6641   19.6765 H   0  0  0  0  0  0  0  0  0  0  0  0
   20.7211   19.6076   21.3252 C   0  0  0  0  0  0  0  0  0  0  0  0
   20.3935   20.4421   21.9582 H   0  0  0  0  0  0  0  0  0  0  0  0
   21.7827   19.8065   21.1283 H   0  0  0  0  0  0  0  0  0  0  0  0
   20.5904   18.2887   22.1309 C   0  0  0  0  0  0  0  0  0  0  0  0
   20.9878   17.4563   21.5355 H   0  0  0  0  0  0  0  0  0  0  0  0
   21.2385   18.3540   23.0155 H   0  0  0  0  0  0  0  0  0  0  0  0
   19.1483   17.9478   22.5902 C   0  0  0  0  0  0  0  0  0  0  0  0
   19.1651   16.9817   23.1132 H   0  0  0  0  0  0  0  0  0  0  0  0
   18.5046   17.8071   21.7125 H   0  0  0  0  0  0  0  0  0  0  0  0
   18.5021   19.0073   23.5242 C   0  0  0  0  0  0  0  0  0  0  0  0
   18.3946   19.9657   23.0038 H   0  0  0  0  0  0  0  0  0  0  0  0
   17.4890   18.6851   23.7914 H   0  0  0  0  0  0  0  0  0  0  0  0
   19.2634   19.2391   24.8261 C   0  0  0  0  0  0  0  0  0  0  0  0
   19.8667   20.2852   24.9627 O   0  5  0  0  0  0  0  0  0  0  0  0
   19.2181   18.3729   25.6777 O   0  0  0  0  0  0  0  0  0  0  0  0
  1  2  1  0  0  0  0
  1  3  1  0  0  0  0
  1  4  2  0  0  0  0
  4  5  1  0  0  0  0
  4  6  1  0  0  0  0
  6  7  1  0  0  0  0
  6  8  1  0  0  0  0
  6  9  1  0  0  0  0
  9 10  1  0  0  0  0
  9 11  1  0  0  0  0
  9 12  1  0  0  0  0
 12 13  1  0  0  0  0
 12 14  1  0  0  0  0
 12 15  1  0  0  0  0
 15 16  1  0  0  0  0
 15 17  1  0  0  0  0
 15 18  1  0  0  0  0
 18 19  1  0  0  0  0
 18 20  2  0  0  0  0
M  END
> <VM2 Rank>
56

> <Conf_Id>
361

> <Probability>
0.02

> <Sum Probability>
99.98

> <Delta G>
3.813

> <G>
-18.076

> <E>
-33.933

> <-TS>
15.857

> <U+W>
-50.029

> <U>
11.092

> <W>
-61.121

> <W(PB)>
-63.254

> <W(SA)>
2.133

> <Valence>
9.664

> <Coulomb>
0.659

> <VdW>
0.769

> <VdW6>
-9.171

> <VdW12>
9.940

> <Bond>
0.244

> <Angle>
3.657

> <Pdih>
5.762

> <Idih>
0.001

> <Tether>
0.000

$$$$
VeraChem MOL file


 20 19  0  0  0  0  0  0  0  0999 V2000     
   21.5038   18.3195   20.3424 C   0  0  0  0  0  0  0  0  0  0  0  0
   22.1272   19.2079   20.2565 H   0  0  0  0  0  0  0  0  0  0  0  0
   22.0043   17.3528   20.3358 H   0  0  0  0  0  0  0  0  0  0  0  0
   20.1764   18.4088   20.4584 C   0  0  0  0  0  0  0  0  0  0  0  0
   19.5689   17.5079   20.5371 H   0  0  0  0  0  0  0  0  0  0  0  0
   19.4130   19.7145   20.4641 C   0  0  0  0  0  0  0  0  0  0  0  0
   18.4659   19.5943   19.9214 H   0  0  0  0  0  0  0  0  0  0  0  0
   19.9849   20.4694   19.9077 H   0  0  0  0  0  0  0  0  0  0  0  0
   19.1354   20.2632   21.8852 C   0  0  0  0  0  0  0  0  0  0  0  0
   20.0803   20.3921   22.4308 H   0  0  0  0  0  0  0  0  0  0  0  0
   18.7129   21.2710   21.7738 H   0  0  0  0  0  0  0  0  0  0  0  0
   18.1369   19.4158   22.7160 C   0  0  0  0  0  0  0  0  0  0  0  0
   17.3645   19.0014   22.0542 H   0  0  0  0  0  0  0  0  0  0  0  0
   17.6103   20.0784   23.4170 H   0  0  0  0  0  0  0  0  0  0  0  0
   18.7924   18.2714   23.5373 C   0  0  0  0  0  0  0  0  0  0  0  0
   18.0067   17.6518   23.9850 H   0  0  0  0  0  0  0  0  0  0  0  0
   19.3817   17.6109   22.8936 H   0  0  0  0  0  0  0  0  0  0  0  0
   19.6826   18.7589   24.6776 C   0  0  0  0  0  0  0  0  0  0  0  0
   20.8841   18.6052   24.5805 O   0  5  0  0  0  0  0  0  0  0  0  0
   19.1466   19.2607   25.6464 O   0  0  0  0  0  0  0  0  0  0  0  0
  1  2  1  0  0  0  0
  1  3  1  0  0  0  0
  1  4  2  0  0  0  0
  4  5  1  0  0  0  0
  4  6  1  0  0  0  0
  6  7  1  0  0  0  0
  6  8  1  0  0  0  0
  6  9  1  0  0  0  0
  9 10  1  0  0  0  0
  9 11  1  0  0  0  0
  9 12  1  0  0  0  0
 12 13  1  0  0  0  0
 12 14  1  0  0  0  0
 12 15  1  0  0  0  0
 15 16  1  0  0  0  0
 15 17  1  0  0  0  0
 15 18  1  0  0  0  0
 18 19  1  0  0  0  0
 18 20  2  0  0  0  0
M  END
> <VM2 Rank>
57

> <Conf_Id>
466

> <Probability>
0.00

> <Sum Probability>
99.99

> <Delta G>
4.997

> <G>
-16.892

> <E>
-32.107

> <-TS>
15.215

> <U+W>
-48.203

> <U>
14.187

> <W>
-62.390

> <W(PB)>
-64.531

> <W(SA)>
2.142

> <Valence>
11.819

> <Coulomb>
2.084

> <VdW>
0.283

> <VdW6>
-8.250

> <VdW12>
8.533

> <Bond>
0.194

> <Angle>
3.125

> <Pdih>
8.498

> <Idih>
0.002

> <Tether>
0.000

$$$$
VeraChem MOL file


 20 19  0  0  0  0  0  0  0  0999 V2000     
   19.0827   17.5887   20.0291 C   0  0  0  0  0  0  0  0  0  0  0  0
   18.1163   17.9971   19.7380 H   0  0  0  0  0  0  0  0  0  0  0  0
   19.2082   16.5088   19.9739 H   0  0  0  0  0  0  0  0  0  0  0  0
   20.0758   18.3787   20.4450 C   0  0  0  0  0  0  0  0  0  0  0  0
   21.0378   17.9517   20.7262 H   0  0  0  0  0  0  0  0  0  0  0  0
   19.9775   19.8852   20.5369 C   0  0  0  0  0  0  0  0  0  0  0  0
   19.2348   20.2434   19.8112 H   0  0  0  0  0  0  0  0  0  0  0  0
   20.9320   20.3393   20.2393 H   0  0  0  0  0  0  0  0  0  0  0  0
   19.5714   20.3946   21.9416 C   0  0  0  0  0  0  0  0  0  0  0  0
   19.3886   21.4748   21.8614 H   0  0  0  0  0  0  0  0  0  0  0  0
   18.6129   19.9490   22.2416 H   0  0  0  0  0  0  0  0  0  0  0  0
   20.6441   20.1719   23.0392 C   0  0  0  0  0  0  0  0  0  0  0  0
   20.5445   20.9631   23.7953 H   0  0  0  0  0  0  0  0  0  0  0  0
   21.6461   20.2925   22.6061 H   0  0  0  0  0  0  0  0  0  0  0  0
   20.5480   18.8007   23.7636 C   0  0  0  0  0  0  0  0  0  0  0  0
   20.5821   17.9730   23.0484 H   0  0  0  0  0  0  0  0  0  0  0  0
   21.4144   18.6791   24.4239 H   0  0  0  0  0  0  0  0  0  0  0  0
   19.3000   18.6436   24.6287 C   0  0  0  0  0  0  0  0  0  0  0  0
   19.2338   19.2865   25.6583 O   0  5  0  0  0  0  0  0  0  0  0  0
   18.4377   17.8681   24.2657 O   0  0  0  0  0  0  0  0  0  0  0  0
  1  2  1  0  0  0  0
  1  3  1  0  0  0  0
  1  4  2  0  0  0  0
  4  5  1  0  0  0  0
  4  6  1  0  0  0  0
  6  7  1  0  0  0  0
  6  8  1  0  0  0  0
  6  9  1  0  0  0  0
  9 10  1  0  0  0  0
  9 11  1  0  0  0  0
  9 12  1  0  0  0  0
 12 13  1  0  0  0  0
 12 14  1  0  0  0  0
 12 15  1  0  0  0  0
 15 16  1  0  0  0  0
 15 17  1  0  0  0  0
 15 18  1  0  0  0  0
 18 19  1  0  0  0  0
 18 20  2  0  0  0  0
M  END
> <VM2 Rank>
58

> <Conf_Id>
469

> <Probability>
0.00

> <Sum Probability>
99.99

> <Delta G>
5.013

> <G>
-16.876

> <E>
-32.092

> <-TS>
15.216

> <U+W>
-48.189

> <U>
14.184

> <W>
-62.372

> <W(PB)>
-64.522

> <W(SA)>
2.150

> <Valence>
11.820

> <Coulomb>
2.080

> <VdW>
0.284

> <VdW6>
-8.249

> <VdW12>
8.533

> <Bond>
0.194

> <Angle>
3.124

> <Pdih>
8.500

> <Idih>
0.002

> <Tether>
0.000

$$$$
VeraChem MOL file


 20 19  0  0  0  0  0  0  0  0999 V2000     
   20.5547   17.8491   19.6966 C   0  0  0  0  0  0  0  0  0  0  0  0
   21.3996   17.1789   19.5476 H   0  0  0  0  0  0  0  0  0  0  0  0
   20.0893   18.2744   18.8089 H   0  0  0  0  0  0  0  0  0  0  0  0
   20.1114   18.1382   20.9228 C   0  0  0  0  0  0  0  0  0  0  0  0
   20.5892   17.6996   21.7988 H   0  0  0  0  0  0  0  0  0  0  0  0
   18.9405   19.0545   21.2072 C   0  0  0  0  0  0  0  0  0  0  0  0
   18.2947   18.6134   21.9760 H   0  0  0  0  0  0  0  0  0  0  0  0
   18.3153   19.1425   20.3086 H   0  0  0  0  0  0  0  0  0  0  0  0
   19.3894   20.4727   21.6318 C   0  0  0  0  0  0  0  0  0  0  0  0
   19.9583   20.9173   20.8037 H   0  0  0  0  0  0  0  0  0  0  0  0
   18.5012   21.1054   21.7635 H   0  0  0  0  0  0  0  0  0  0  0  0
   20.2562   20.5384   22.9162 C   0  0  0  0  0  0  0  0  0  0  0  0
   20.6075   21.5732   23.0260 H   0  0  0  0  0  0  0  0  0  0  0  0
   21.1617   19.9272   22.8004 H   0  0  0  0  0  0  0  0  0  0  0  0
   19.5132   20.1461   24.2241 C   0  0  0  0  0  0  0  0  0  0  0  0
   20.0545   20.5646   25.0805 H   0  0  0  0  0  0  0  0  0  0  0  0
   18.5102   20.5893   24.2403 H   0  0  0  0  0  0  0  0  0  0  0  0
   19.3976   18.6452   24.4819 C   0  0  0  0  0  0  0  0  0  0  0  0
   20.4217   18.0048   24.6197 O   0  5  0  0  0  0  0  0  0  0  0  0
   18.2863   18.1690   24.6076 O   0  0  0  0  0  0  0  0  0  0  0  0
  1  2  1  0  0  0  0
  1  3  1  0  0  0  0
  1  4  2  0  0  0  0
  4  5  1  0  0  0  0
  4  6  1  0  0  0  0
  6  7  1  0  0  0  0
  6  8  1  0  0  0  0
  6  9  1  0  0  0  0
  9 10  1  0  0  0  0
  9 11  1  0  0  0  0
  9 12  1  0  0  0  0
 12 13  1  0  0  0  0
 12 14  1  0  0  0  0
 12 15  1  0  0  0  0
 15 16  1  0  0  0  0
 15 17  1  0  0  0  0
 15 18  1  0  0  0  0
 18 19  1  0  0  0  0
 18 20  2  0  0  0  0
M  END
> <VM2 Rank>
59

> <Conf_Id>
553

> <Probability>
0.00

> <Sum Probability>
99.99

> <Delta G>
5.029

> <G>
-16.860

> <E>
-33.012

> <-TS>
16.152

> <U+W>
-49.109

> <U>
13.083

> <W>
-62.192

> <W(PB)>
-64.314

> <W(SA)>
2.122

> <Valence>
11.308

> <Coulomb>
1.656

> <VdW>
0.119

> <VdW6>
-9.164

> <VdW12>
9.283

> <Bond>
0.195

> <Angle>
3.446

> <Pdih>
7.656

> <Idih>
0.011

> <Tether>
0.000

$$$$
VeraChem MOL file


 20 19  0  0  0  0  0  0  0  0999 V2000     
   20.2526   17.7580   19.6575 C   0  0  0  0  0  0  0  0  0  0  0  0
   20.6029   18.4293   18.8751 H   0  0  0  0  0  0  0  0  0  0  0  0
   19.9713   16.7484   19.3632 H   0  0  0  0  0  0  0  0  0  0  0  0
   20.1667   18.1549   20.9299 C   0  0  0  0  0  0  0  0  0  0  0  0
   19.8164   17.4665   21.6990 H   0  0  0  0  0  0  0  0  0  0  0  0
   20.5453   19.5382   21.4143 C   0  0  0  0  0  0  0  0  0  0  0  0
   21.2106   20.0152   20.6822 H   0  0  0  0  0  0  0  0  0  0  0  0
   21.1268   19.4670   22.3414 H   0  0  0  0  0  0  0  0  0  0  0  0
   19.3128   20.4496   21.6219 C   0  0  0  0  0  0  0  0  0  0  0  0
   19.6534   21.4527   21.9122 H   0  0  0  0  0  0  0  0  0  0  0  0
   18.8052   20.5698   20.6550 H   0  0  0  0  0  0  0  0  0  0  0  0
   18.2792   19.9424   22.6612 C   0  0  0  0  0  0  0  0  0  0  0  0
   17.9092   18.9468   22.3808 H   0  0  0  0  0  0  0  0  0  0  0  0
   17.4072   20.6085   22.6131 H   0  0  0  0  0  0  0  0  0  0  0  0
   18.7868   19.9271   24.1305 C   0  0  0  0  0  0  0  0  0  0  0  0
   19.3500   20.8425   24.3487 H   0  0  0  0  0  0  0  0  0  0  0  0
   17.9232   19.9221   24.8056 H   0  0  0  0  0  0  0  0  0  0  0  0
   19.6369   18.7173   24.5128 C   0  0  0  0  0  0  0  0  0  0  0  0
   20.7623   18.9155   24.9271 O   0  5  0  0  0  0  0  0  0  0  0  0
   19.1284   17.6148   24.4527 O   0  0  0  0  0  0  0  0  0  0  0  0
  1  2  1  0  0  0  0
  1  3  1  0  0  0  0
  1  4  2  0  0  0  0
  4  5  1  0  0  0  0
  4  6  1  0  0  0  0
  6  7  1  0  0  0  0
  6  8  1  0  0  0  0
  6  9  1  0  0  0  0
  9 10  1  0  0  0  0
  9 11  1  0  0  0  0
  9 12  1  0  0  0  0
 12 13  1  0  0  0  0
 12 14  1  0  0  0  0
 12 15  1  0  0  0  0
 15 16  1  0  0  0  0
 15 17  1  0  0  0  0
 15 18  1  0  0  0  0
 18 19  1  0  0  0  0
 18 20  2  0  0  0  0
M  END
> <VM2 Rank>
60

> <Conf_Id>
554

> <Probability>
0.00

> <Sum Probability>
99.99

> <Delta G>
5.106

> <G>
-16.782

> <E>
-32.935

> <-TS>
16.153

> <U+W>
-49.031

> <U>
13.083

> <W>
-62.115

> <W(PB)>
-64.211

> <W(SA)>
2.096

> <Valence>
11.308

> <Coulomb>
1.656

> <VdW>
0.119

> <VdW6>
-9.164

> <VdW12>
9.283

> <Bond>
0.195

> <Angle>
3.446

> <Pdih>
7.656

> <Idih>
0.011

> <Tether>
0.000

$$$$
VeraChem MOL file


 20 19  0  0  0  0  0  0  0  0999 V2000     
   21.1394   17.9354   20.3281 C   0  0  0  0  0  0  0  0  0  0  0  0
   22.1209   17.5165   20.5431 H   0  0  0  0  0  0  0  0  0  0  0  0
   20.4715   17.3502   19.6983 H   0  0  0  0  0  0  0  0  0  0  0  0
   20.7721   19.1204   20.8236 C   0  0  0  0  0  0  0  0  0  0  0  0
   21.4537   19.6860   21.4587 H   0  0  0  0  0  0  0  0  0  0  0  0
   19.4235   19.7614   20.5778 C   0  0  0  0  0  0  0  0  0  0  0  0
   18.7958   19.1216   19.9431 H   0  0  0  0  0  0  0  0  0  0  0  0
   19.5832   20.6905   20.0149 H   0  0  0  0  0  0  0  0  0  0  0  0
   18.6624   20.1173   21.8789 C   0  0  0  0  0  0  0  0  0  0  0  0
   19.3101   20.6998   22.5483 H   0  0  0  0  0  0  0  0  0  0  0  0
   17.8360   20.7875   21.6057 H   0  0  0  0  0  0  0  0  0  0  0  0
   18.0540   18.9050   22.6311 C   0  0  0  0  0  0  0  0  0  0  0  0
   17.5387   18.2512   21.9150 H   0  0  0  0  0  0  0  0  0  0  0  0
   17.2794   19.2749   23.3170 H   0  0  0  0  0  0  0  0  0  0  0  0
   19.0678   18.0687   23.4594 C   0  0  0  0  0  0  0  0  0  0  0  0
   18.5448   17.2235   23.9216 H   0  0  0  0  0  0  0  0  0  0  0  0
   19.8391   17.6364   22.8149 H   0  0  0  0  0  0  0  0  0  0  0  0
   19.7466   18.8467   24.5835 C   0  0  0  0  0  0  0  0  0  0  0  0
   20.9247   19.1224   24.4686 O   0  5  0  0  0  0  0  0  0  0  0  0
   19.0806   19.1408   25.5570 O   0  0  0  0  0  0  0  0  0  0  0  0
  1  2  1  0  0  0  0
  1  3  1  0  0  0  0
  1  4  2  0  0  0  0
  4  5  1  0  0  0  0
  4  6  1  0  0  0  0
  6  7  1  0  0  0  0
  6  8  1  0  0  0  0
  6  9  1  0  0  0  0
  9 10  1  0  0  0  0
  9 11  1  0  0  0  0
  9 12  1  0  0  0  0
 12 13  1  0  0  0  0
 12 14  1  0  0  0  0
 12 15  1  0  0  0  0
 15 16  1  0  0  0  0
 15 17  1  0  0  0  0
 15 18  1  0  0  0  0
 18 19  1  0  0  0  0
 18 20  2  0  0  0  0
M  END
> <VM2 Rank>
61

> <Conf_Id>
303

> <Probability>
0.00

> <Sum Probability>
100.00

> <Delta G>
5.330

> <G>
-16.558

> <E>
-32.230

> <-TS>
15.672

> <U+W>
-48.327

> <U>
13.663

> <W>
-61.990

> <W(PB)>
-64.088

> <W(SA)>
2.098

> <Valence>
11.349

> <Coulomb>
2.220

> <VdW>
0.094

> <VdW6>
-8.851

> <VdW12>
8.944

> <Bond>
0.196

> <Angle>
3.357

> <Pdih>
7.794

> <Idih>
0.001

> <Tether>
0.000

$$$$
VeraChem MOL file


 20 19  0  0  0  0  0  0  0  0999 V2000     
   19.5868   17.4674   20.1284 C   0  0  0  0  0  0  0  0  0  0  0  0
   20.5902   17.3857   19.7141 H   0  0  0  0  0  0  0  0  0  0  0  0
   18.9736   16.5680   20.1380 H   0  0  0  0  0  0  0  0  0  0  0  0
   19.1227   18.6233   20.6112 C   0  0  0  0  0  0  0  0  0  0  0  0
   18.1176   18.6808   21.0289 H   0  0  0  0  0  0  0  0  0  0  0  0
   19.9182   19.9103   20.6417 C   0  0  0  0  0  0  0  0  0  0  0  0
   19.4151   20.6395   19.9930 H   0  0  0  0  0  0  0  0  0  0  0  0
   20.9202   19.7614   20.2173 H   0  0  0  0  0  0  0  0  0  0  0  0
   20.0347   20.5311   22.0558 C   0  0  0  0  0  0  0  0  0  0  0  0
   20.3996   21.5603   21.9361 H   0  0  0  0  0  0  0  0  0  0  0  0
   19.0397   20.6186   22.5133 H   0  0  0  0  0  0  0  0  0  0  0  0
   21.0095   19.7962   23.0125 C   0  0  0  0  0  0  0  0  0  0  0  0
   21.2724   20.4789   23.8323 H   0  0  0  0  0  0  0  0  0  0  0  0
   21.9478   19.5806   22.4840 H   0  0  0  0  0  0  0  0  0  0  0  0
   20.4551   18.4870   23.6383 C   0  0  0  0  0  0  0  0  0  0  0  0
   20.2193   17.7509   22.8638 H   0  0  0  0  0  0  0  0  0  0  0  0
   21.2288   18.0329   24.2680 H   0  0  0  0  0  0  0  0  0  0  0  0
   19.2223   18.6886   24.5156 C   0  0  0  0  0  0  0  0  0  0  0  0
   19.3718   19.2288   25.5943 O   0  5  0  0  0  0  0  0  0  0  0  0
   18.1499   18.2854   24.1101 O   0  0  0  0  0  0  0  0  0  0  0  0
  1  2  1  0  0  0  0
  1  3  1  0  0  0  0
  1  4  2  0  0  0  0
  4  5  1  0  0  0  0
  4  6  1  0  0  0  0
  6  7  1  0  0  0  0
  6  8  1  0  0  0  0
  6  9  1  0  0  0  0
  9 10  1  0  0  0  0
  9 11  1  0  0  0  0
  9 12  1  0  0  0  0
 12 13  1  0  0  0  0
 12 14  1  0  0  0  0
 12 15  1  0  0  0  0
 15 16  1  0  0  0  0
 15 17  1  0  0  0  0
 15 18  1  0  0  0  0
 18 19  1  0  0  0  0
 18 20  2  0  0  0  0
M  END
> <VM2 Rank>
62

> <Conf_Id>
538

> <Probability>
0.00

> <Sum Probability>
100.00

> <Delta G>
5.352

> <G>
-16.536

> <E>
-32.208

> <-TS>
15.672

> <U+W>
-48.305

> <U>
13.664

> <W>
-61.969

> <W(PB)>
-64.077

> <W(SA)>
2.108

> <Valence>
11.349

> <Coulomb>
2.222

> <VdW>
0.093

> <VdW6>
-8.852

> <VdW12>
8.945

> <Bond>
0.196

> <Angle>
3.358

> <Pdih>
7.794

> <Idih>
0.001

> <Tether>
0.000

$$$$
VeraChem MOL file


 20 19  0  0  0  0  0  0  0  0999 V2000     
   20.2047   17.3116   20.8231 C   0  0  0  0  0  0  0  0  0  0  0  0
   20.5552   17.0505   21.8208 H   0  0  0  0  0  0  0  0  0  0  0  0
   19.9103   16.4956   20.1657 H   0  0  0  0  0  0  0  0  0  0  0  0
   20.1297   18.5834   20.4226 C   0  0  0  0  0  0  0  0  0  0  0  0
   19.7719   18.8240   19.4219 H   0  0  0  0  0  0  0  0  0  0  0  0
   20.5206   19.7693   21.2787 C   0  0  0  0  0  0  0  0  0  0  0  0
   21.2197   20.3985   20.7124 H   0  0  0  0  0  0  0  0  0  0  0  0
   21.0667   19.4427   22.1717 H   0  0  0  0  0  0  0  0  0  0  0  0
   19.2998   20.6302   21.6799 C   0  0  0  0  0  0  0  0  0  0  0  0
   19.6488   21.5512   22.1663 H   0  0  0  0  0  0  0  0  0  0  0  0
   18.7869   20.9496   20.7623 H   0  0  0  0  0  0  0  0  0  0  0  0
   18.2724   19.9218   22.6006 C   0  0  0  0  0  0  0  0  0  0  0  0
   18.0018   18.9378   22.1937 H   0  0  0  0  0  0  0  0  0  0  0  0
   17.3495   20.5170   22.5866 H   0  0  0  0  0  0  0  0  0  0  0  0
   18.7202   19.7822   24.0828 C   0  0  0  0  0  0  0  0  0  0  0  0
   19.1740   20.7164   24.4346 H   0  0  0  0  0  0  0  0  0  0  0  0
   17.8348   19.6116   24.7064 H   0  0  0  0  0  0  0  0  0  0  0  0
   19.6776   18.6284   24.3698 C   0  0  0  0  0  0  0  0  0  0  0  0
   20.8030   18.8960   24.7437 O   0  5  0  0  0  0  0  0  0  0  0  0
   19.2429   17.4951   24.3068 O   0  0  0  0  0  0  0  0  0  0  0  0
  1  2  1  0  0  0  0
  1  3  1  0  0  0  0
  1  4  2  0  0  0  0
  4  5  1  0  0  0  0
  4  6  1  0  0  0  0
  6  7  1  0  0  0  0
  6  8  1  0  0  0  0
  6  9  1  0  0  0  0
  9 10  1  0  0  0  0
  9 11  1  0  0  0  0
  9 12  1  0  0  0  0
 12 13  1  0  0  0  0
 12 14  1  0  0  0  0
 12 15  1  0  0  0  0
 15 16  1  0  0  0  0
 15 17  1  0  0  0  0
 15 18  1  0  0  0  0
 18 19  1  0  0  0  0
 18 20  2  0  0  0  0
M  END
> <VM2 Rank>
63

> <Conf_Id>
167

> <Probability>
0.00

> <Sum Probability>
100.00

> <Delta G>
5.852

> <G>
-16.036

> <E>
-32.089

> <-TS>
16.052

> <U+W>
-48.185

> <U>
14.642

> <W>
-62.826

> <W(PB)>
-64.919

> <W(SA)>
2.093

> <Valence>
11.577

> <Coulomb>
3.283

> <VdW>
-0.219

> <VdW6>
-9.345

> <VdW12>
9.126

> <Bond>
0.192

> <Angle>
3.434

> <Pdih>
7.929

> <Idih>
0.022

> <Tether>
0.000

$$$$
VeraChem MOL file


 20 19  0  0  0  0  0  0  0  0999 V2000     
   18.1597   19.0856   20.5905 C   0  0  0  0  0  0  0  0  0  0  0  0
   17.7281   19.5028   21.4994 H   0  0  0  0  0  0  0  0  0  0  0  0
   17.4816   18.6025   19.8894 H   0  0  0  0  0  0  0  0  0  0  0  0
   19.4711   19.1548   20.3476 C   0  0  0  0  0  0  0  0  0  0  0  0
   19.8840   18.7271   19.4345 H   0  0  0  0  0  0  0  0  0  0  0  0
   20.4742   19.8096   21.2735 C   0  0  0  0  0  0  0  0  0  0  0  0
   19.9656   20.3978   22.0465 H   0  0  0  0  0  0  0  0  0  0  0  0
   21.0727   20.5261   20.6957 H   0  0  0  0  0  0  0  0  0  0  0  0
   21.4308   18.7816   21.9222 C   0  0  0  0  0  0  0  0  0  0  0  0
   21.9310   18.2222   21.1198 H   0  0  0  0  0  0  0  0  0  0  0  0
   22.2267   19.3148   22.4596 H   0  0  0  0  0  0  0  0  0  0  0  0
   20.7524   17.7704   22.8826 C   0  0  0  0  0  0  0  0  0  0  0  0
   21.4617   16.9495   23.0541 H   0  0  0  0  0  0  0  0  0  0  0  0
   19.8738   17.3138   22.4064 H   0  0  0  0  0  0  0  0  0  0  0  0
   20.3647   18.3553   24.2698 C   0  0  0  0  0  0  0  0  0  0  0  0
   20.2342   17.5297   24.9791 H   0  0  0  0  0  0  0  0  0  0  0  0
   21.1773   18.9782   24.6626 H   0  0  0  0  0  0  0  0  0  0  0  0
   19.0668   19.1583   24.3003 C   0  0  0  0  0  0  0  0  0  0  0  0
   19.1323   20.3454   24.5538 O   0  5  0  0  0  0  0  0  0  0  0  0
   18.0189   18.5570   24.1678 O   0  0  0  0  0  0  0  0  0  0  0  0
  1  2  1  0  0  0  0
  1  3  1  0  0  0  0
  1  4  2  0  0  0  0
  4  5  1  0  0  0  0
  4  6  1  0  0  0  0
  6  7  1  0  0  0  0
  6  8  1  0  0  0  0
  6  9  1  0  0  0  0
  9 10  1  0  0  0  0
  9 11  1  0  0  0  0
  9 12  1  0  0  0  0
 12 13  1  0  0  0  0
 12 14  1  0  0  0  0
 12 15  1  0  0  0  0
 15 16  1  0  0  0  0
 15 17  1  0  0  0  0
 15 18  1  0  0  0  0
 18 19  1  0  0  0  0
 18 20  2  0  0  0  0
M  END
> <VM2 Rank>
64

> <Conf_Id>
340

> <Probability>
0.00

> <Sum Probability>
100.00

> <Delta G>
5.862

> <G>
-16.027

> <E>
-32.080

> <-TS>
16.053

> <U+W>
-48.176

> <U>
14.640

> <W>
-62.816

> <W(PB)>
-64.895

> <W(SA)>
2.079

> <Valence>
11.577

> <Coulomb>
3.282

> <VdW>
-0.219

> <VdW6>
-9.345

> <VdW12>
9.126

> <Bond>
0.192

> <Angle>
3.435

> <Pdih>
7.929

> <Idih>
0.021

> <Tether>
0.000

$$$$
VeraChem MOL file


 20 19  0  0  0  0  0  0  0  0999 V2000     
   21.3447   19.2906   19.9179 C   0  0  0  0  0  0  0  0  0  0  0  0
   22.4302   19.2074   19.9139 H   0  0  0  0  0  0  0  0  0  0  0  0
   20.8377   19.2811   18.9544 H   0  0  0  0  0  0  0  0  0  0  0  0
   20.6652   19.3971   21.0629 C   0  0  0  0  0  0  0  0  0  0  0  0
   21.1966   19.4077   22.0123 H   0  0  0  0  0  0  0  0  0  0  0  0
   19.1582   19.5235   21.1424 C   0  0  0  0  0  0  0  0  0  0  0  0
   18.7809   19.8831   20.1755 H   0  0  0  0  0  0  0  0  0  0  0  0
   18.8716   20.2862   21.8789 H   0  0  0  0  0  0  0  0  0  0  0  0
   18.4702   18.1746   21.4629 C   0  0  0  0  0  0  0  0  0  0  0  0
   17.5358   18.1233   20.8876 H   0  0  0  0  0  0  0  0  0  0  0  0
   19.0891   17.3430   21.0985 H   0  0  0  0  0  0  0  0  0  0  0  0
   18.1111   17.9550   22.9548 C   0  0  0  0  0  0  0  0  0  0  0  0
   17.5805   16.9961   23.0281 H   0  0  0  0  0  0  0  0  0  0  0  0
   17.3908   18.7174   23.2821 H   0  0  0  0  0  0  0  0  0  0  0  0
   19.3205   17.9084   23.9319 C   0  0  0  0  0  0  0  0  0  0  0  0
   19.0387   17.3272   24.8173 H   0  0  0  0  0  0  0  0  0  0  0  0
   20.1627   17.3818   23.4670 H   0  0  0  0  0  0  0  0  0  0  0  0
   19.8083   19.2609   24.4539 C   0  0  0  0  0  0  0  0  0  0  0  0
   21.0059   19.4163   24.5901 O   0  5  0  0  0  0  0  0  0  0  0  0
   18.9869   20.0914   24.7912 O   0  0  0  0  0  0  0  0  0  0  0  0
  1  2  1  0  0  0  0
  1  3  1  0  0  0  0
  1  4  2  0  0  0  0
  4  5  1  0  0  0  0
  4  6  1  0  0  0  0
  6  7  1  0  0  0  0
  6  8  1  0  0  0  0
  6  9  1  0  0  0  0
  9 10  1  0  0  0  0
  9 11  1  0  0  0  0
  9 12  1  0  0  0  0
 12 13  1  0  0  0  0
 12 14  1  0  0  0  0
 12 15  1  0  0  0  0
 15 16  1  0  0  0  0
 15 17  1  0  0  0  0
 15 18  1  0  0  0  0
 18 19  1  0  0  0  0
 18 20  2  0  0  0  0
M  END
> <VM2 Rank>
65

> <Conf_Id>
304

> <Probability>
0.00

> <Sum Probability>
100.00

> <Delta G>
6.778

> <G>
-15.110

> <E>
-30.720

> <-TS>
15.610

> <U+W>
-46.817

> <U>
15.456

> <W>
-62.272

> <W(PB)>
-64.365

> <W(SA)>
2.093

> <Valence>
13.615

> <Coulomb>
1.409

> <VdW>
0.432

> <VdW6>
-9.298

> <VdW12>
9.730

> <Bond>
0.212

> <Angle>
3.796

> <Pdih>
9.592

> <Idih>
0.016

> <Tether>
0.000

$$$$
VeraChem MOL file


 20 19  0  0  0  0  0  0  0  0999 V2000     
   18.7798   18.5173   19.5869 C   0  0  0  0  0  0  0  0  0  0  0  0
   17.9516   17.8568   19.3360 H   0  0  0  0  0  0  0  0  0  0  0  0
   19.4180   18.8532   18.7712 H   0  0  0  0  0  0  0  0  0  0  0  0
   19.0026   18.8957   20.8483 C   0  0  0  0  0  0  0  0  0  0  0  0
   18.3477   18.5483   21.6447 H   0  0  0  0  0  0  0  0  0  0  0  0
   20.1295   19.8164   21.2678 C   0  0  0  0  0  0  0  0  0  0  0  0
   19.7736   20.5581   21.9953 H   0  0  0  0  0  0  0  0  0  0  0  0
   20.4629   20.3903   20.3926 H   0  0  0  0  0  0  0  0  0  0  0  0
   21.3437   19.0410   21.8336 C   0  0  0  0  0  0  0  0  0  0  0  0
   21.3827   18.0345   21.3944 H   0  0  0  0  0  0  0  0  0  0  0  0
   22.2586   19.5474   21.4968 H   0  0  0  0  0  0  0  0  0  0  0  0
   21.4051   18.9483   23.3797 C   0  0  0  0  0  0  0  0  0  0  0  0
   21.4941   19.9547   23.8114 H   0  0  0  0  0  0  0  0  0  0  0  0
   22.3377   18.4305   23.6417 H   0  0  0  0  0  0  0  0  0  0  0  0
   20.2284   18.1821   24.0490 C   0  0  0  0  0  0  0  0  0  0  0  0
   19.9448   17.3161   23.4389 H   0  0  0  0  0  0  0  0  0  0  0  0
   20.5658   17.7876   25.0142 H   0  0  0  0  0  0  0  0  0  0  0  0
   18.9773   19.0103   24.3468 C   0  0  0  0  0  0  0  0  0  0  0  0
   19.1086   20.1280   24.8070 O   0  5  0  0  0  0  0  0  0  0  0  0
   17.8959   18.4788   24.1888 O   0  0  0  0  0  0  0  0  0  0  0  0
  1  2  1  0  0  0  0
  1  3  1  0  0  0  0
  1  4  2  0  0  0  0
  4  5  1  0  0  0  0
  4  6  1  0  0  0  0
  6  7  1  0  0  0  0
  6  8  1  0  0  0  0
  6  9  1  0  0  0  0
  9 10  1  0  0  0  0
  9 11  1  0  0  0  0
  9 12  1  0  0  0  0
 12 13  1  0  0  0  0
 12 14  1  0  0  0  0
 12 15  1  0  0  0  0
 15 16  1  0  0  0  0
 15 17  1  0  0  0  0
 15 18  1  0  0  0  0
 18 19  1  0  0  0  0
 18 20  2  0  0  0  0
M  END
> <VM2 Rank>
66

> <Conf_Id>
286

> <Probability>
0.00

> <Sum Probability>
100.00

> <Delta G>
6.798

> <G>
-15.090

> <E>
-30.703

> <-TS>
15.613

> <U+W>
-46.799

> <U>
15.456

> <W>
-62.256

> <W(PB)>
-64.374

> <W(SA)>
2.119

> <Valence>
13.615

> <Coulomb>
1.410

> <VdW>
0.432

> <VdW6>
-9.298

> <VdW12>
9.729

> <Bond>
0.212

> <Angle>
3.795

> <Pdih>
9.592

> <Idih>
0.016

> <Tether>
0.000

$$$$
