@<TRIPOS>MOLECULE
guest-s21_vm2.mol2 : vm2 ligand conformer 1
          22          21           1
SMALL
USER_CHARGES
 
@<TRIPOS>ATOM
       1    C1      19.831436   19.134098   26.187472 C.2        1 MOL1         0.6145
       2    O1      20.058743   20.237246   26.643355 O.co2      1 MOL1        -0.6735
       3    O2      20.174473   18.099850   26.725141 O.co2      1 MOL1        -0.6735
       4    C2      19.094614   19.043256   24.855911 C.3        1 MOL1        -0.1985
       5    H1      18.397967   19.887928   24.793671 H          1 MOL1         0.0740
       6    H2      18.492885   18.126439   24.861323 H          1 MOL1         0.0740
       7    C3      20.050609   19.047985   23.637674 C.3        1 MOL1        -0.1882
       8    H3      20.654842   19.965703   23.654124 H          1 MOL1         0.0742
       9    H4      20.749639   18.204258   23.721673 H          1 MOL1         0.0742
      10    C4      19.280785   18.955370   22.302505 C.3        1 MOL1        -0.1880
      11    H5      18.582094   19.799507   22.222272 H          1 MOL1         0.0742
      12    H6      18.676844   18.037618   22.289845 H          1 MOL1         0.0742
      13    C5      20.236308   18.960253   21.089971 C.3        1 MOL1        -0.1880
      14    H7      20.840535   19.877795   21.102346 H          1 MOL1         0.0742
      15    H8      20.935093   18.116182   21.169778 H          1 MOL1         0.0742
      16    C6      19.467662   18.867903   19.755160 C.3        1 MOL1        -0.1856
      17    H9      18.768963   19.711806   19.670758 H          1 MOL1         0.0742
      18    H10     18.863500   17.950202   19.738196 H          1 MOL1         0.0742
      19    C7      20.425370   18.873039   18.546812 C.3        1 MOL1        -0.2871
      20    H11     21.020545   19.795276   18.521251 H          1 MOL1         0.0754
      21    H12     19.862430   18.806832   17.606702 H          1 MOL1         0.0754
      22    H13     21.115798   18.020444   18.589208 H          1 MOL1         0.0754
@<TRIPOS>BOND
    1     1     2    1
    2     1     3    2
    3     1     4    1
    4     4     5    1
    5     4     6    1
    6     4     7    1
    7     7     8    1
    8     7     9    1
    9     7    10    1
   10    10    11    1
   11    10    12    1
   12    10    13    1
   13    13    14    1
   14    13    15    1
   15    13    16    1
   16    16    17    1
   17    16    18    1
   18    16    19    1
   19    19    20    1
   20    19    21    1
   21    19    22    1
@<TRIPOS>SUBSTRUCTURE
       1 MOL1            1 RESIDUE      1      MOL     
@<SCITEGIC>MOL_PROPERTY
VM2 Rank
SciTegic.value.IntegerValue
1

@<SCITEGIC>MOL_PROPERTY
Conf_Id
SciTegic.value.IntegerValue
394

@<SCITEGIC>MOL_PROPERTY
Probability
SciTegic.value.DoubleValue
32.47

@<SCITEGIC>MOL_PROPERTY
Sum Probability
SciTegic.value.DoubleValue
32.47

@<SCITEGIC>MOL_PROPERTY
Delta G
SciTegic.value.DoubleValue
0.000

@<SCITEGIC>MOL_PROPERTY
G
SciTegic.value.DoubleValue
-16.998

@<SCITEGIC>MOL_PROPERTY
E
SciTegic.value.DoubleValue
-36.566

@<SCITEGIC>MOL_PROPERTY
-TS
SciTegic.value.DoubleValue
19.568

@<SCITEGIC>MOL_PROPERTY
U+W
SciTegic.value.DoubleValue
-54.451

@<SCITEGIC>MOL_PROPERTY
U
SciTegic.value.DoubleValue
5.779

@<SCITEGIC>MOL_PROPERTY
W
SciTegic.value.DoubleValue
-60.230

@<SCITEGIC>MOL_PROPERTY
W(PB)
SciTegic.value.DoubleValue
-62.557

@<SCITEGIC>MOL_PROPERTY
W(SA)
SciTegic.value.DoubleValue
2.328

@<SCITEGIC>MOL_PROPERTY
Valence
SciTegic.value.DoubleValue
7.101

@<SCITEGIC>MOL_PROPERTY
Coulomb
SciTegic.value.DoubleValue
-2.079

@<SCITEGIC>MOL_PROPERTY
VdW
SciTegic.value.DoubleValue
0.757

@<SCITEGIC>MOL_PROPERTY
VdW6
SciTegic.value.DoubleValue
-6.496

@<SCITEGIC>MOL_PROPERTY
VdW12
SciTegic.value.DoubleValue
7.253

@<SCITEGIC>MOL_PROPERTY
Bond
SciTegic.value.DoubleValue
0.100

@<SCITEGIC>MOL_PROPERTY
Angle
SciTegic.value.DoubleValue
2.262

@<SCITEGIC>MOL_PROPERTY
Pdih
SciTegic.value.DoubleValue
4.739

@<SCITEGIC>MOL_PROPERTY
Idih
SciTegic.value.DoubleValue
0.001

@<SCITEGIC>MOL_PROPERTY
Tether
SciTegic.value.DoubleValue
0.000

@<TRIPOS>MOLECULE
guest-s21_vm2.mol2 : vm2 ligand conformer 2
          22          21           1
SMALL
USER_CHARGES
 
@<TRIPOS>ATOM
       1    C1      19.728955   18.854925   25.965551 C.2        1 MOL1         0.6145
       2    O1      19.212863   19.642989   26.733108 O.co2      1 MOL1        -0.6735
       3    O2      20.523126   18.002195   26.310008 O.co2      1 MOL1        -0.6735
       4    C2      19.378348   18.956977   24.485404 C.3        1 MOL1        -0.1985
       5    H1      18.343519   19.310548   24.404519 H          1 MOL1         0.0740
       6    H2      19.410693   17.945563   24.064952 H          1 MOL1         0.0740
       7    C3      20.329458   19.903301   23.707593 C.3        1 MOL1        -0.1882
       8    H3      20.343418   20.880246   24.210412 H          1 MOL1         0.0742
       9    H4      21.355803   19.514148   23.757679 H          1 MOL1         0.0742
      10    C4      19.920911   20.112168   22.230007 C.3        1 MOL1        -0.1880
      11    H5      20.573879   20.880215   21.793288 H          1 MOL1         0.0742
      12    H6      18.898191   20.510807   22.183906 H          1 MOL1         0.0742
      13    C5      20.017878   18.825899   21.377614 C.3        1 MOL1        -0.1880
      14    H7      21.026660   18.400403   21.468247 H          1 MOL1         0.0742
      15    H8      19.315963   18.071440   21.755834 H          1 MOL1         0.0742
      16    C6      19.707670   19.102413   19.891447 C.3        1 MOL1        -0.1856
      17    H9      20.410220   19.850489   19.498718 H          1 MOL1         0.0742
      18    H10     18.699886   19.530100   19.797015 H          1 MOL1         0.0742
      19    C7      19.800792   17.818133   19.043267 C.3        1 MOL1        -0.2871
      20    H11     20.808547   17.385533   19.095047 H          1 MOL1         0.0754
      21    H12     19.577893   18.033052   17.990082 H          1 MOL1         0.0754
      22    H13     19.085086   17.063020   19.393928 H          1 MOL1         0.0754
@<TRIPOS>BOND
    1     1     2    1
    2     1     3    2
    3     1     4    1
    4     4     5    1
    5     4     6    1
    6     4     7    1
    7     7     8    1
    8     7     9    1
    9     7    10    1
   10    10    11    1
   11    10    12    1
   12    10    13    1
   13    13    14    1
   14    13    15    1
   15    13    16    1
   16    16    17    1
   17    16    18    1
   18    16    19    1
   19    19    20    1
   20    19    21    1
   21    19    22    1
@<TRIPOS>SUBSTRUCTURE
       1 MOL1            1 RESIDUE      1      MOL     
@<SCITEGIC>MOL_PROPERTY
VM2 Rank
SciTegic.value.IntegerValue
2

@<SCITEGIC>MOL_PROPERTY
Conf_Id
SciTegic.value.IntegerValue
718

@<SCITEGIC>MOL_PROPERTY
Probability
SciTegic.value.DoubleValue
8.37

@<SCITEGIC>MOL_PROPERTY
Sum Probability
SciTegic.value.DoubleValue
40.84

@<SCITEGIC>MOL_PROPERTY
Delta G
SciTegic.value.DoubleValue
0.808

@<SCITEGIC>MOL_PROPERTY
G
SciTegic.value.DoubleValue
-16.190

@<SCITEGIC>MOL_PROPERTY
E
SciTegic.value.DoubleValue
-35.868

@<SCITEGIC>MOL_PROPERTY
-TS
SciTegic.value.DoubleValue
19.677

@<SCITEGIC>MOL_PROPERTY
U+W
SciTegic.value.DoubleValue
-53.752

@<SCITEGIC>MOL_PROPERTY
U
SciTegic.value.DoubleValue
6.782

@<SCITEGIC>MOL_PROPERTY
W
SciTegic.value.DoubleValue
-60.535

@<SCITEGIC>MOL_PROPERTY
W(PB)
SciTegic.value.DoubleValue
-62.847

@<SCITEGIC>MOL_PROPERTY
W(SA)
SciTegic.value.DoubleValue
2.313

@<SCITEGIC>MOL_PROPERTY
Valence
SciTegic.value.DoubleValue
7.621

@<SCITEGIC>MOL_PROPERTY
Coulomb
SciTegic.value.DoubleValue
-1.711

@<SCITEGIC>MOL_PROPERTY
VdW
SciTegic.value.DoubleValue
0.872

@<SCITEGIC>MOL_PROPERTY
VdW6
SciTegic.value.DoubleValue
-7.188

@<SCITEGIC>MOL_PROPERTY
VdW12
SciTegic.value.DoubleValue
8.060

@<SCITEGIC>MOL_PROPERTY
Bond
SciTegic.value.DoubleValue
0.142

@<SCITEGIC>MOL_PROPERTY
Angle
SciTegic.value.DoubleValue
2.504

@<SCITEGIC>MOL_PROPERTY
Pdih
SciTegic.value.DoubleValue
4.974

@<SCITEGIC>MOL_PROPERTY
Idih
SciTegic.value.DoubleValue
0.001

@<SCITEGIC>MOL_PROPERTY
Tether
SciTegic.value.DoubleValue
0.000

@<TRIPOS>MOLECULE
guest-s21_vm2.mol2 : vm2 ligand conformer 3
          22          21           1
SMALL
USER_CHARGES
 
@<TRIPOS>ATOM
       1    C1      20.133429   19.130286   25.955959 C.2        1 MOL1         0.6145
       2    O1      19.613875   19.915931   26.723660 O.co2      1 MOL1        -0.6735
       3    O2      20.647873   18.086922   26.307023 O.co2      1 MOL1        -0.6735
       4    C2      20.118864   19.461344   24.467885 C.3        1 MOL1        -0.1985
       5    H1      21.034082   19.051130   24.026428 H          1 MOL1         0.0740
       6    H2      20.166107   20.551698   24.361482 H          1 MOL1         0.0740
       7    C3      18.865440   18.906747   23.742295 C.3        1 MOL1        -0.1882
       8    H3      18.853269   17.810572   23.817016 H          1 MOL1         0.0742
       9    H4      17.968007   19.263231   24.266678 H          1 MOL1         0.0742
      10    C4      18.772967   19.330732   22.257207 C.3        1 MOL1        -0.1880
      11    H5      18.775294   20.427103   22.186793 H          1 MOL1         0.0742
      12    H6      17.805437   18.995728   21.858905 H          1 MOL1         0.0742
      13    C5      19.906028   18.749699   21.380252 C.3        1 MOL1        -0.1880
      14    H7      20.876971   19.133821   21.718870 H          1 MOL1         0.0742
      15    H8      19.935145   17.657404   21.494031 H          1 MOL1         0.0742
      16    C6      19.714418   19.107017   19.891293 C.3        1 MOL1        -0.1856
      17    H9      19.682840   20.199107   19.773801 H          1 MOL1         0.0742
      18    H10     18.748679   18.719698   19.538073 H          1 MOL1         0.0742
      19    C7      20.847106   18.530323   19.018425 C.3        1 MOL1        -0.2871
      20    H11     21.822853   18.926341   19.329037 H          1 MOL1         0.0754
      21    H12     20.694808   18.793391   17.963591 H          1 MOL1         0.0754
      22    H13     20.881864   17.435517   19.093155 H          1 MOL1         0.0754
@<TRIPOS>BOND
    1     1     2    1
    2     1     3    2
    3     1     4    1
    4     4     5    1
    5     4     6    1
    6     4     7    1
    7     7     8    1
    8     7     9    1
    9     7    10    1
   10    10    11    1
   11    10    12    1
   12    10    13    1
   13    13    14    1
   14    13    15    1
   15    13    16    1
   16    16    17    1
   17    16    18    1
   18    16    19    1
   19    19    20    1
   20    19    21    1
   21    19    22    1
@<TRIPOS>SUBSTRUCTURE
       1 MOL1            1 RESIDUE      1      MOL     
@<SCITEGIC>MOL_PROPERTY
VM2 Rank
SciTegic.value.IntegerValue
3

@<SCITEGIC>MOL_PROPERTY
Conf_Id
SciTegic.value.IntegerValue
752

@<SCITEGIC>MOL_PROPERTY
Probability
SciTegic.value.DoubleValue
7.51

@<SCITEGIC>MOL_PROPERTY
Sum Probability
SciTegic.value.DoubleValue
48.36

@<SCITEGIC>MOL_PROPERTY
Delta G
SciTegic.value.DoubleValue
0.872

@<SCITEGIC>MOL_PROPERTY
G
SciTegic.value.DoubleValue
-16.126

@<SCITEGIC>MOL_PROPERTY
E
SciTegic.value.DoubleValue
-35.803

@<SCITEGIC>MOL_PROPERTY
-TS
SciTegic.value.DoubleValue
19.677

@<SCITEGIC>MOL_PROPERTY
U+W
SciTegic.value.DoubleValue
-53.688

@<SCITEGIC>MOL_PROPERTY
U
SciTegic.value.DoubleValue
6.782

@<SCITEGIC>MOL_PROPERTY
W
SciTegic.value.DoubleValue
-60.470

@<SCITEGIC>MOL_PROPERTY
W(PB)
SciTegic.value.DoubleValue
-62.790

@<SCITEGIC>MOL_PROPERTY
W(SA)
SciTegic.value.DoubleValue
2.320

@<SCITEGIC>MOL_PROPERTY
Valence
SciTegic.value.DoubleValue
7.621

@<SCITEGIC>MOL_PROPERTY
Coulomb
SciTegic.value.DoubleValue
-1.711

@<SCITEGIC>MOL_PROPERTY
VdW
SciTegic.value.DoubleValue
0.872

@<SCITEGIC>MOL_PROPERTY
VdW6
SciTegic.value.DoubleValue
-7.188

@<SCITEGIC>MOL_PROPERTY
VdW12
SciTegic.value.DoubleValue
8.060

@<SCITEGIC>MOL_PROPERTY
Bond
SciTegic.value.DoubleValue
0.142

@<SCITEGIC>MOL_PROPERTY
Angle
SciTegic.value.DoubleValue
2.504

@<SCITEGIC>MOL_PROPERTY
Pdih
SciTegic.value.DoubleValue
4.974

@<SCITEGIC>MOL_PROPERTY
Idih
SciTegic.value.DoubleValue
0.001

@<SCITEGIC>MOL_PROPERTY
Tether
SciTegic.value.DoubleValue
0.000

@<TRIPOS>MOLECULE
guest-s21_vm2.mol2 : vm2 ligand conformer 4
          22          21           1
SMALL
USER_CHARGES
 
@<TRIPOS>ATOM
       1    C1      19.996138   19.032815   25.987445 C.2        1 MOL1         0.6145
       2    O1      20.322376   20.080000   26.510361 O.co2      1 MOL1        -0.6735
       3    O2      20.420730   17.947641   26.331790 O.co2      1 MOL1        -0.6735
       4    C2      19.015458   19.085274   24.821323 C.3        1 MOL1        -0.1985
       5    H1      18.331768   19.926149   24.988990 H          1 MOL1         0.0740
       6    H2      18.413435   18.168847   24.840835 H          1 MOL1         0.0740
       7    C3      19.719122   19.232741   23.449680 C.3        1 MOL1        -0.1882
       8    H3      20.324539   20.149678   23.449420 H          1 MOL1         0.0742
       9    H4      20.411599   18.391552   23.314242 H          1 MOL1         0.0742
      10    C4      18.702191   19.278673   22.285721 C.3        1 MOL1        -0.1880
      11    H5      17.973571   20.077687   22.479761 H          1 MOL1         0.0742
      12    H6      18.132668   18.339737   22.253603 H          1 MOL1         0.0742
      13    C5      19.354959   19.535652   20.906805 C.3        1 MOL1        -0.1880
      14    H7      18.557014   19.677749   20.165174 H          1 MOL1         0.0742
      15    H8      19.921467   20.476432   20.937345 H          1 MOL1         0.0742
      16    C6      20.276727   18.387470   20.437432 C.3        1 MOL1        -0.1856
      17    H9      19.725013   17.437511   20.457305 H          1 MOL1         0.0742
      18    H10     21.126417   18.279338   21.124231 H          1 MOL1         0.0742
      19    C7      20.812299   18.638735   19.013443 C.3        1 MOL1        -0.2871
      20    H11     21.467220   17.816926   18.695987 H          1 MOL1         0.0754
      21    H12     21.392121   19.570071   18.970959 H          1 MOL1         0.0754
      22    H13     19.988938   18.713981   18.291106 H          1 MOL1         0.0754
@<TRIPOS>BOND
    1     1     2    1
    2     1     3    2
    3     1     4    1
    4     4     5    1
    5     4     6    1
    6     4     7    1
    7     7     8    1
    8     7     9    1
    9     7    10    1
   10    10    11    1
   11    10    12    1
   12    10    13    1
   13    13    14    1
   14    13    15    1
   15    13    16    1
   16    16    17    1
   17    16    18    1
   18    16    19    1
   19    19    20    1
   20    19    21    1
   21    19    22    1
@<TRIPOS>SUBSTRUCTURE
       1 MOL1            1 RESIDUE      1      MOL     
@<SCITEGIC>MOL_PROPERTY
VM2 Rank
SciTegic.value.IntegerValue
4

@<SCITEGIC>MOL_PROPERTY
Conf_Id
SciTegic.value.IntegerValue
132

@<SCITEGIC>MOL_PROPERTY
Probability
SciTegic.value.DoubleValue
7.45

@<SCITEGIC>MOL_PROPERTY
Sum Probability
SciTegic.value.DoubleValue
55.80

@<SCITEGIC>MOL_PROPERTY
Delta G
SciTegic.value.DoubleValue
0.878

@<SCITEGIC>MOL_PROPERTY
G
SciTegic.value.DoubleValue
-16.120

@<SCITEGIC>MOL_PROPERTY
E
SciTegic.value.DoubleValue
-35.794

@<SCITEGIC>MOL_PROPERTY
-TS
SciTegic.value.DoubleValue
19.673

@<SCITEGIC>MOL_PROPERTY
U+W
SciTegic.value.DoubleValue
-53.679

@<SCITEGIC>MOL_PROPERTY
U
SciTegic.value.DoubleValue
7.026

@<SCITEGIC>MOL_PROPERTY
W
SciTegic.value.DoubleValue
-60.705

@<SCITEGIC>MOL_PROPERTY
W(PB)
SciTegic.value.DoubleValue
-63.009

@<SCITEGIC>MOL_PROPERTY
W(SA)
SciTegic.value.DoubleValue
2.304

@<SCITEGIC>MOL_PROPERTY
Valence
SciTegic.value.DoubleValue
7.638

@<SCITEGIC>MOL_PROPERTY
Coulomb
SciTegic.value.DoubleValue
-1.488

@<SCITEGIC>MOL_PROPERTY
VdW
SciTegic.value.DoubleValue
0.877

@<SCITEGIC>MOL_PROPERTY
VdW6
SciTegic.value.DoubleValue
-7.165

@<SCITEGIC>MOL_PROPERTY
VdW12
SciTegic.value.DoubleValue
8.042

@<SCITEGIC>MOL_PROPERTY
Bond
SciTegic.value.DoubleValue
0.134

@<SCITEGIC>MOL_PROPERTY
Angle
SciTegic.value.DoubleValue
2.513

@<SCITEGIC>MOL_PROPERTY
Pdih
SciTegic.value.DoubleValue
4.990

@<SCITEGIC>MOL_PROPERTY
Idih
SciTegic.value.DoubleValue
0.001

@<SCITEGIC>MOL_PROPERTY
Tether
SciTegic.value.DoubleValue
0.000

@<TRIPOS>MOLECULE
guest-s21_vm2.mol2 : vm2 ligand conformer 5
          22          21           1
SMALL
USER_CHARGES
 
@<TRIPOS>ATOM
       1    C1      19.600495   19.027200   25.980265 C.2        1 MOL1         0.6145
       2    O1      19.226112   20.064438   26.490603 O.co2      1 MOL1        -0.6735
       3    O2      19.195052   17.930213   26.309945 O.co2      1 MOL1        -0.6735
       4    C2      20.620650   19.108051   24.850187 C.3        1 MOL1        -0.1985
       5    H1      21.247339   18.209065   24.891829 H          1 MOL1         0.0740
       6    H2      21.273728   19.967900   25.041932 H          1 MOL1         0.0740
       7    C3      19.962931   19.236190   23.454021 C.3        1 MOL1        -0.1882
       8    H3      19.299958   18.375736   23.294161 H          1 MOL1         0.0742
       9    H4      19.332110   20.135558   23.431495 H          1 MOL1         0.0742
      10    C4      21.019406   19.311592   22.327416 C.3        1 MOL1        -0.1880
      11    H5      21.616163   18.389233   22.316317 H          1 MOL1         0.0742
      12    H6      21.717570   20.130886   22.547158 H          1 MOL1         0.0742
      13    C5      20.409693   19.550611   20.925745 C.3        1 MOL1        -0.1880
      14    H7      19.816070   20.474976   20.935330 H          1 MOL1         0.0742
      15    H8      21.229483   19.715551   20.213239 H          1 MOL1         0.0742
      16    C6      19.538259   18.377027   20.424152 C.3        1 MOL1        -0.1856
      17    H9      18.667788   18.244606   21.079974 H          1 MOL1         0.0742
      18    H10     20.115540   17.443041   20.464421 H          1 MOL1         0.0742
      19    C7      19.047403   18.613679   18.981665 C.3        1 MOL1        -0.2871
      20    H11     18.427811   17.773833   18.641323 H          1 MOL1         0.0754
      21    H12     19.893772   18.712475   18.289383 H          1 MOL1         0.0754
      22    H13     18.443403   19.528277   18.917799 H          1 MOL1         0.0754
@<TRIPOS>BOND
    1     1     2    1
    2     1     3    2
    3     1     4    1
    4     4     5    1
    5     4     6    1
    6     4     7    1
    7     7     8    1
    8     7     9    1
    9     7    10    1
   10    10    11    1
   11    10    12    1
   12    10    13    1
   13    13    14    1
   14    13    15    1
   15    13    16    1
   16    16    17    1
   17    16    18    1
   18    16    19    1
   19    19    20    1
   20    19    21    1
   21    19    22    1
@<TRIPOS>SUBSTRUCTURE
       1 MOL1            1 RESIDUE      1      MOL     
@<SCITEGIC>MOL_PROPERTY
VM2 Rank
SciTegic.value.IntegerValue
5

@<SCITEGIC>MOL_PROPERTY
Conf_Id
SciTegic.value.IntegerValue
345

@<SCITEGIC>MOL_PROPERTY
Probability
SciTegic.value.DoubleValue
7.03

@<SCITEGIC>MOL_PROPERTY
Sum Probability
SciTegic.value.DoubleValue
62.83

@<SCITEGIC>MOL_PROPERTY
Delta G
SciTegic.value.DoubleValue
0.913

@<SCITEGIC>MOL_PROPERTY
G
SciTegic.value.DoubleValue
-16.086

@<SCITEGIC>MOL_PROPERTY
E
SciTegic.value.DoubleValue
-35.759

@<SCITEGIC>MOL_PROPERTY
-TS
SciTegic.value.DoubleValue
19.673

@<SCITEGIC>MOL_PROPERTY
U+W
SciTegic.value.DoubleValue
-53.644

@<SCITEGIC>MOL_PROPERTY
U
SciTegic.value.DoubleValue
7.026

@<SCITEGIC>MOL_PROPERTY
W
SciTegic.value.DoubleValue
-60.670

@<SCITEGIC>MOL_PROPERTY
W(PB)
SciTegic.value.DoubleValue
-62.962

@<SCITEGIC>MOL_PROPERTY
W(SA)
SciTegic.value.DoubleValue
2.292

@<SCITEGIC>MOL_PROPERTY
Valence
SciTegic.value.DoubleValue
7.638

@<SCITEGIC>MOL_PROPERTY
Coulomb
SciTegic.value.DoubleValue
-1.489

@<SCITEGIC>MOL_PROPERTY
VdW
SciTegic.value.DoubleValue
0.877

@<SCITEGIC>MOL_PROPERTY
VdW6
SciTegic.value.DoubleValue
-7.165

@<SCITEGIC>MOL_PROPERTY
VdW12
SciTegic.value.DoubleValue
8.042

@<SCITEGIC>MOL_PROPERTY
Bond
SciTegic.value.DoubleValue
0.134

@<SCITEGIC>MOL_PROPERTY
Angle
SciTegic.value.DoubleValue
2.513

@<SCITEGIC>MOL_PROPERTY
Pdih
SciTegic.value.DoubleValue
4.990

@<SCITEGIC>MOL_PROPERTY
Idih
SciTegic.value.DoubleValue
0.001

@<SCITEGIC>MOL_PROPERTY
Tether
SciTegic.value.DoubleValue
0.000

@<TRIPOS>MOLECULE
guest-s21_vm2.mol2 : vm2 ligand conformer 6
          22          21           1
SMALL
USER_CHARGES
 
@<TRIPOS>ATOM
       1    C1      19.732877   19.223329   26.094709 C.2        1 MOL1         0.6145
       2    O1      20.138763   20.291511   26.507862 O.co2      1 MOL1        -0.6735
       3    O2      19.790675   18.189722   26.730925 O.co2      1 MOL1        -0.6735
       4    C2      19.137887   19.172981   24.691975 C.3        1 MOL1        -0.1985
       5    H1      18.646406   20.133483   24.495660 H          1 MOL1         0.0740
       6    H2      18.358527   18.401557   24.679855 H          1 MOL1         0.0740
       7    C3      20.195934   18.880882   23.599560 C.3        1 MOL1        -0.1882
       8    H3      20.975356   19.654790   23.632959 H          1 MOL1         0.0742
       9    H4      20.687809   17.922880   23.818195 H          1 MOL1         0.0742
      10    C4      19.568663   18.835079   22.189319 C.3        1 MOL1        -0.1880
      11    H5      19.074157   19.793505   21.984261 H          1 MOL1         0.0742
      12    H6      18.791586   18.059166   22.158274 H          1 MOL1         0.0742
      13    C5      20.629479   18.547146   21.102109 C.3        1 MOL1        -0.1880
      14    H7      21.380864   19.348598   21.096462 H          1 MOL1         0.0742
      15    H8      21.163234   17.622092   21.359628 H          1 MOL1         0.0742
      16    C6      20.030585   18.389954   19.685096 C.3        1 MOL1        -0.1856
      17    H9      19.283056   17.584653   19.685336 H          1 MOL1         0.0742
      18    H10     20.827844   18.072882   18.998744 H          1 MOL1         0.0742
      19    C7      19.395138   19.688394   19.142445 C.3        1 MOL1        -0.2871
      20    H11     18.517849   19.982115   19.732187 H          1 MOL1         0.0754
      21    H12     19.066086   19.549858   18.104441 H          1 MOL1         0.0754
      22    H13     20.115991   20.516143   19.160832 H          1 MOL1         0.0754
@<TRIPOS>BOND
    1     1     2    1
    2     1     3    2
    3     1     4    1
    4     4     5    1
    5     4     6    1
    6     4     7    1
    7     7     8    1
    8     7     9    1
    9     7    10    1
   10    10    11    1
   11    10    12    1
   12    10    13    1
   13    13    14    1
   14    13    15    1
   15    13    16    1
   16    16    17    1
   17    16    18    1
   18    16    19    1
   19    19    20    1
   20    19    21    1
   21    19    22    1
@<TRIPOS>SUBSTRUCTURE
       1 MOL1            1 RESIDUE      1      MOL     
@<SCITEGIC>MOL_PROPERTY
VM2 Rank
SciTegic.value.IntegerValue
6

@<SCITEGIC>MOL_PROPERTY
Conf_Id
SciTegic.value.IntegerValue
711

@<SCITEGIC>MOL_PROPERTY
Probability
SciTegic.value.DoubleValue
6.48

@<SCITEGIC>MOL_PROPERTY
Sum Probability
SciTegic.value.DoubleValue
69.31

@<SCITEGIC>MOL_PROPERTY
Delta G
SciTegic.value.DoubleValue
0.961

@<SCITEGIC>MOL_PROPERTY
G
SciTegic.value.DoubleValue
-16.038

@<SCITEGIC>MOL_PROPERTY
E
SciTegic.value.DoubleValue
-35.715

@<SCITEGIC>MOL_PROPERTY
-TS
SciTegic.value.DoubleValue
19.677

@<SCITEGIC>MOL_PROPERTY
U+W
SciTegic.value.DoubleValue
-53.599

@<SCITEGIC>MOL_PROPERTY
U
SciTegic.value.DoubleValue
6.751

@<SCITEGIC>MOL_PROPERTY
W
SciTegic.value.DoubleValue
-60.351

@<SCITEGIC>MOL_PROPERTY
W(PB)
SciTegic.value.DoubleValue
-62.660

@<SCITEGIC>MOL_PROPERTY
W(SA)
SciTegic.value.DoubleValue
2.309

@<SCITEGIC>MOL_PROPERTY
Valence
SciTegic.value.DoubleValue
7.602

@<SCITEGIC>MOL_PROPERTY
Coulomb
SciTegic.value.DoubleValue
-1.744

@<SCITEGIC>MOL_PROPERTY
VdW
SciTegic.value.DoubleValue
0.894

@<SCITEGIC>MOL_PROPERTY
VdW6
SciTegic.value.DoubleValue
-7.110

@<SCITEGIC>MOL_PROPERTY
VdW12
SciTegic.value.DoubleValue
8.004

@<SCITEGIC>MOL_PROPERTY
Bond
SciTegic.value.DoubleValue
0.131

@<SCITEGIC>MOL_PROPERTY
Angle
SciTegic.value.DoubleValue
2.489

@<SCITEGIC>MOL_PROPERTY
Pdih
SciTegic.value.DoubleValue
4.981

@<SCITEGIC>MOL_PROPERTY
Idih
SciTegic.value.DoubleValue
0.001

@<SCITEGIC>MOL_PROPERTY
Tether
SciTegic.value.DoubleValue
0.000

@<TRIPOS>MOLECULE
guest-s21_vm2.mol2 : vm2 ligand conformer 7
          22          21           1
SMALL
USER_CHARGES
 
@<TRIPOS>ATOM
       1    C1      19.743430   19.027919   26.102207 C.2        1 MOL1         0.6145
       2    O1      19.687008   20.107310   26.657352 O.co2      1 MOL1        -0.6735
       3    O2      20.260213   18.044332   26.594085 O.co2      1 MOL1        -0.6735
       4    C2      19.152294   18.906630   24.702187 C.3        1 MOL1        -0.1985
       5    H1      18.294539   19.586556   24.634356 H          1 MOL1         0.0740
       6    H2      18.767792   17.886661   24.581867 H          1 MOL1         0.0740
       7    C3      20.177300   19.226495   23.586303 C.3        1 MOL1        -0.1882
       8    H3      20.562447   20.245699   23.729114 H          1 MOL1         0.0742
       9    H4      21.035249   18.545673   23.675473 H          1 MOL1         0.0742
      10    C4      19.554535   19.096792   22.179292 C.3        1 MOL1        -0.1880
      11    H5      18.698648   19.779984   22.092338 H          1 MOL1         0.0742
      12    H6      19.166822   18.077901   22.050038 H          1 MOL1         0.0742
      13    C5      20.582671   19.413322   21.068888 C.3        1 MOL1        -0.1880
      14    H7      21.012768   20.407363   21.252825 H          1 MOL1         0.0742
      15    H8      21.415919   18.699259   21.121306 H          1 MOL1         0.0742
      16    C6      19.976128   19.396556   19.646521 C.3        1 MOL1        -0.1856
      17    H9      20.737402   19.744344   18.934664 H          1 MOL1         0.0742
      18    H10     19.146234   20.114340   19.588444 H          1 MOL1         0.0742
      19    C7      19.486421   17.999644   19.207165 C.3        1 MOL1        -0.2871
      20    H11     20.292156   17.258177   19.285602 H          1 MOL1         0.0754
      21    H12     19.148563   18.022346   18.163013 H          1 MOL1         0.0754
      22    H13     18.643497   17.658993   19.821281 H          1 MOL1         0.0754
@<TRIPOS>BOND
    1     1     2    1
    2     1     3    2
    3     1     4    1
    4     4     5    1
    5     4     6    1
    6     4     7    1
    7     7     8    1
    8     7     9    1
    9     7    10    1
   10    10    11    1
   11    10    12    1
   12    10    13    1
   13    13    14    1
   14    13    15    1
   15    13    16    1
   16    16    17    1
   17    16    18    1
   18    16    19    1
   19    19    20    1
   20    19    21    1
   21    19    22    1
@<TRIPOS>SUBSTRUCTURE
       1 MOL1            1 RESIDUE      1      MOL     
@<SCITEGIC>MOL_PROPERTY
VM2 Rank
SciTegic.value.IntegerValue
7

@<SCITEGIC>MOL_PROPERTY
Conf_Id
SciTegic.value.IntegerValue
695

@<SCITEGIC>MOL_PROPERTY
Probability
SciTegic.value.DoubleValue
6.16

@<SCITEGIC>MOL_PROPERTY
Sum Probability
SciTegic.value.DoubleValue
75.47

@<SCITEGIC>MOL_PROPERTY
Delta G
SciTegic.value.DoubleValue
0.991

@<SCITEGIC>MOL_PROPERTY
G
SciTegic.value.DoubleValue
-16.007

@<SCITEGIC>MOL_PROPERTY
E
SciTegic.value.DoubleValue
-35.684

@<SCITEGIC>MOL_PROPERTY
-TS
SciTegic.value.DoubleValue
19.677

@<SCITEGIC>MOL_PROPERTY
U+W
SciTegic.value.DoubleValue
-53.569

@<SCITEGIC>MOL_PROPERTY
U
SciTegic.value.DoubleValue
6.751

@<SCITEGIC>MOL_PROPERTY
W
SciTegic.value.DoubleValue
-60.321

@<SCITEGIC>MOL_PROPERTY
W(PB)
SciTegic.value.DoubleValue
-62.642

@<SCITEGIC>MOL_PROPERTY
W(SA)
SciTegic.value.DoubleValue
2.321

@<SCITEGIC>MOL_PROPERTY
Valence
SciTegic.value.DoubleValue
7.602

@<SCITEGIC>MOL_PROPERTY
Coulomb
SciTegic.value.DoubleValue
-1.744

@<SCITEGIC>MOL_PROPERTY
VdW
SciTegic.value.DoubleValue
0.894

@<SCITEGIC>MOL_PROPERTY
VdW6
SciTegic.value.DoubleValue
-7.111

@<SCITEGIC>MOL_PROPERTY
VdW12
SciTegic.value.DoubleValue
8.004

@<SCITEGIC>MOL_PROPERTY
Bond
SciTegic.value.DoubleValue
0.131

@<SCITEGIC>MOL_PROPERTY
Angle
SciTegic.value.DoubleValue
2.489

@<SCITEGIC>MOL_PROPERTY
Pdih
SciTegic.value.DoubleValue
4.982

@<SCITEGIC>MOL_PROPERTY
Idih
SciTegic.value.DoubleValue
0.001

@<SCITEGIC>MOL_PROPERTY
Tether
SciTegic.value.DoubleValue
0.000

@<TRIPOS>MOLECULE
guest-s21_vm2.mol2 : vm2 ligand conformer 8
          22          21           1
SMALL
USER_CHARGES
 
@<TRIPOS>ATOM
       1    C1      19.995953   19.018074   25.802307 C.2        1 MOL1         0.6145
       2    O1      20.594647   19.981766   26.237927 O.co2      1 MOL1        -0.6735
       3    O2      20.375697   17.871961   25.940192 O.co2      1 MOL1        -0.6735
       4    C2      18.686314   19.261698   25.057576 C.3        1 MOL1        -0.1985
       5    H1      18.102116   19.977963   25.647251 H          1 MOL1         0.0740
       6    H2      18.115019   18.325666   25.038336 H          1 MOL1         0.0740
       7    C3      18.871517   19.805769   23.617201 C.3        1 MOL1        -0.1882
       8    H3      17.888676   20.080491   23.210882 H          1 MOL1         0.0742
       9    H4      19.468949   20.727522   23.650353 H          1 MOL1         0.0742
      10    C4      19.543097   18.780348   22.676417 C.3        1 MOL1        -0.1880
      11    H5      18.949237   17.856243   22.657057 H          1 MOL1         0.0742
      12    H6      20.534707   18.513374   23.067368 H          1 MOL1         0.0742
      13    C5      19.688710   19.330800   21.241408 C.3        1 MOL1        -0.1880
      14    H7      18.698056   19.595824   20.847170 H          1 MOL1         0.0742
      15    H8      20.282689   20.254862   21.261599 H          1 MOL1         0.0742
      16    C6      20.360008   18.307625   20.301452 C.3        1 MOL1        -0.1856
      17    H9      19.767764   17.382349   20.277517 H          1 MOL1         0.0742
      18    H10     21.352209   18.041576   20.691655 H          1 MOL1         0.0742
      19    C7      20.504057   18.860959   18.869520 C.3        1 MOL1        -0.2871
      20    H11     19.522715   19.106146   18.442617 H          1 MOL1         0.0754
      21    H12     20.983000   18.120989   18.215194 H          1 MOL1         0.0754
      22    H13     21.119085   19.770382   18.859908 H          1 MOL1         0.0754
@<TRIPOS>BOND
    1     1     2    1
    2     1     3    2
    3     1     4    1
    4     4     5    1
    5     4     6    1
    6     4     7    1
    7     7     8    1
    8     7     9    1
    9     7    10    1
   10    10    11    1
   11    10    12    1
   12    10    13    1
   13    13    14    1
   14    13    15    1
   15    13    16    1
   16    16    17    1
   17    16    18    1
   18    16    19    1
   19    19    20    1
   20    19    21    1
   21    19    22    1
@<TRIPOS>SUBSTRUCTURE
       1 MOL1            1 RESIDUE      1      MOL     
@<SCITEGIC>MOL_PROPERTY
VM2 Rank
SciTegic.value.IntegerValue
8

@<SCITEGIC>MOL_PROPERTY
Conf_Id
SciTegic.value.IntegerValue
134

@<SCITEGIC>MOL_PROPERTY
Probability
SciTegic.value.DoubleValue
2.88

@<SCITEGIC>MOL_PROPERTY
Sum Probability
SciTegic.value.DoubleValue
78.36

@<SCITEGIC>MOL_PROPERTY
Delta G
SciTegic.value.DoubleValue
1.444

@<SCITEGIC>MOL_PROPERTY
G
SciTegic.value.DoubleValue
-15.555

@<SCITEGIC>MOL_PROPERTY
E
SciTegic.value.DoubleValue
-35.435

@<SCITEGIC>MOL_PROPERTY
-TS
SciTegic.value.DoubleValue
19.880

@<SCITEGIC>MOL_PROPERTY
U+W
SciTegic.value.DoubleValue
-53.320

@<SCITEGIC>MOL_PROPERTY
U
SciTegic.value.DoubleValue
7.937

@<SCITEGIC>MOL_PROPERTY
W
SciTegic.value.DoubleValue
-61.257

@<SCITEGIC>MOL_PROPERTY
W(PB)
SciTegic.value.DoubleValue
-63.561

@<SCITEGIC>MOL_PROPERTY
W(SA)
SciTegic.value.DoubleValue
2.304

@<SCITEGIC>MOL_PROPERTY
Valence
SciTegic.value.DoubleValue
7.358

@<SCITEGIC>MOL_PROPERTY
Coulomb
SciTegic.value.DoubleValue
-0.021

@<SCITEGIC>MOL_PROPERTY
VdW
SciTegic.value.DoubleValue
0.600

@<SCITEGIC>MOL_PROPERTY
VdW6
SciTegic.value.DoubleValue
-7.363

@<SCITEGIC>MOL_PROPERTY
VdW12
SciTegic.value.DoubleValue
7.964

@<SCITEGIC>MOL_PROPERTY
Bond
SciTegic.value.DoubleValue
0.121

@<SCITEGIC>MOL_PROPERTY
Angle
SciTegic.value.DoubleValue
2.425

@<SCITEGIC>MOL_PROPERTY
Pdih
SciTegic.value.DoubleValue
4.811

@<SCITEGIC>MOL_PROPERTY
Idih
SciTegic.value.DoubleValue
0.001

@<SCITEGIC>MOL_PROPERTY
Tether
SciTegic.value.DoubleValue
0.000

@<TRIPOS>MOLECULE
guest-s21_vm2.mol2 : vm2 ligand conformer 9
          22          21           1
SMALL
USER_CHARGES
 
@<TRIPOS>ATOM
       1    C1      19.540657   19.147545   25.784872 C.2        1 MOL1         0.6145
       2    O1      19.508723   20.290470   26.196700 O.co2      1 MOL1        -0.6735
       3    O2      18.606823   18.374874   25.872770 O.co2      1 MOL1        -0.6735
       4    C2      20.831659   18.651747   25.139405 C.3        1 MOL1        -0.1985
       5    H1      20.825628   17.554997   25.141727 H          1 MOL1         0.0740
       6    H2      21.661757   18.965889   25.783062 H          1 MOL1         0.0740
       7    C3      21.062067   19.182976   23.700759 C.3        1 MOL1        -0.1882
       8    H3      21.037502   20.281593   23.710186 H          1 MOL1         0.0742
       9    H4      22.068417   18.892073   23.370341 H          1 MOL1         0.0742
      10    C4      20.020157   18.644790   22.694595 C.3        1 MOL1        -0.1880
      11    H5      19.011534   18.946644   23.009196 H          1 MOL1         0.0742
      12    H6      20.039431   17.546325   22.698683 H          1 MOL1         0.0742
      13    C5      20.287143   19.160653   21.264191 C.3        1 MOL1        -0.1880
      14    H7      20.267664   20.259160   21.260906 H          1 MOL1         0.0742
      15    H8      21.294167   18.857591   20.946206 H          1 MOL1         0.0742
      16    C6      19.246596   18.624199   20.258941 C.3        1 MOL1        -0.1856
      17    H9      18.238005   18.927106   20.572781 H          1 MOL1         0.0742
      18    H10     19.264245   17.525496   20.258342 H          1 MOL1         0.0742
      19    C7      19.516174   19.141745   18.831766 C.3        1 MOL1        -0.2871
      20    H11     20.507189   18.826072   18.480146 H          1 MOL1         0.0754
      21    H12     19.473222   20.238260   18.796969 H          1 MOL1         0.0754
      22    H13     18.767403   18.750823   18.130619 H          1 MOL1         0.0754
@<TRIPOS>BOND
    1     1     2    1
    2     1     3    2
    3     1     4    1
    4     4     5    1
    5     4     6    1
    6     4     7    1
    7     7     8    1
    8     7     9    1
    9     7    10    1
   10    10    11    1
   11    10    12    1
   12    10    13    1
   13    13    14    1
   14    13    15    1
   15    13    16    1
   16    16    17    1
   17    16    18    1
   18    16    19    1
   19    19    20    1
   20    19    21    1
   21    19    22    1
@<TRIPOS>SUBSTRUCTURE
       1 MOL1            1 RESIDUE      1      MOL     
@<SCITEGIC>MOL_PROPERTY
VM2 Rank
SciTegic.value.IntegerValue
9

@<SCITEGIC>MOL_PROPERTY
Conf_Id
SciTegic.value.IntegerValue
297

@<SCITEGIC>MOL_PROPERTY
Probability
SciTegic.value.DoubleValue
2.79

@<SCITEGIC>MOL_PROPERTY
Sum Probability
SciTegic.value.DoubleValue
81.14

@<SCITEGIC>MOL_PROPERTY
Delta G
SciTegic.value.DoubleValue
1.464

@<SCITEGIC>MOL_PROPERTY
G
SciTegic.value.DoubleValue
-15.535

@<SCITEGIC>MOL_PROPERTY
E
SciTegic.value.DoubleValue
-35.414

@<SCITEGIC>MOL_PROPERTY
-TS
SciTegic.value.DoubleValue
19.880

@<SCITEGIC>MOL_PROPERTY
U+W
SciTegic.value.DoubleValue
-53.299

@<SCITEGIC>MOL_PROPERTY
U
SciTegic.value.DoubleValue
7.937

@<SCITEGIC>MOL_PROPERTY
W
SciTegic.value.DoubleValue
-61.236

@<SCITEGIC>MOL_PROPERTY
W(PB)
SciTegic.value.DoubleValue
-63.533

@<SCITEGIC>MOL_PROPERTY
W(SA)
SciTegic.value.DoubleValue
2.297

@<SCITEGIC>MOL_PROPERTY
Valence
SciTegic.value.DoubleValue
7.358

@<SCITEGIC>MOL_PROPERTY
Coulomb
SciTegic.value.DoubleValue
-0.022

@<SCITEGIC>MOL_PROPERTY
VdW
SciTegic.value.DoubleValue
0.600

@<SCITEGIC>MOL_PROPERTY
VdW6
SciTegic.value.DoubleValue
-7.363

@<SCITEGIC>MOL_PROPERTY
VdW12
SciTegic.value.DoubleValue
7.963

@<SCITEGIC>MOL_PROPERTY
Bond
SciTegic.value.DoubleValue
0.121

@<SCITEGIC>MOL_PROPERTY
Angle
SciTegic.value.DoubleValue
2.425

@<SCITEGIC>MOL_PROPERTY
Pdih
SciTegic.value.DoubleValue
4.811

@<SCITEGIC>MOL_PROPERTY
Idih
SciTegic.value.DoubleValue
0.000

@<SCITEGIC>MOL_PROPERTY
Tether
SciTegic.value.DoubleValue
0.000

@<TRIPOS>MOLECULE
guest-s21_vm2.mol2 : vm2 ligand conformer 10
          22          21           1
SMALL
USER_CHARGES
 
@<TRIPOS>ATOM
       1    C1      19.582809   19.107548   25.923121 C.2        1 MOL1         0.6145
       2    O1      19.606196   20.242218   26.357303 O.co2      1 MOL1        -0.6735
       3    O2      19.702485   18.118475   26.618804 O.co2      1 MOL1        -0.6735
       4    C2      19.416914   18.914722   24.419988 C.3        1 MOL1        -0.1985
       5    H1      18.781072   19.725911   24.047740 H          1 MOL1         0.0740
       6    H2      18.876071   17.975200   24.255007 H          1 MOL1         0.0740
       7    C3      20.771202   18.891893   23.664765 C.3        1 MOL1        -0.1882
       8    H3      21.284302   19.853680   23.802494 H          1 MOL1         0.0742
       9    H4      21.416703   18.128091   24.120097 H          1 MOL1         0.0742
      10    C4      20.629364   18.585880   22.154778 C.3        1 MOL1        -0.1880
      11    H5      20.134173   17.614148   22.028621 H          1 MOL1         0.0742
      12    H6      21.634252   18.483069   21.723153 H          1 MOL1         0.0742
      13    C5      19.856292   19.679725   21.378384 C.3        1 MOL1        -0.1880
      14    H7      18.811401   19.712714   21.713458 H          1 MOL1         0.0742
      15    H8      20.291514   20.660709   21.612843 H          1 MOL1         0.0742
      16    C6      19.889936   19.480198   19.845339 C.3        1 MOL1        -0.1856
      17    H9      20.931478   19.462597   19.495833 H          1 MOL1         0.0742
      18    H10     19.416568   20.348166   19.366006 H          1 MOL1         0.0742
      19    C7      19.164802   18.198341   19.381518 C.3        1 MOL1        -0.2871
      20    H11     19.671775   17.296921   19.747904 H          1 MOL1         0.0754
      21    H12     19.142622   18.144994   18.285364 H          1 MOL1         0.0754
      22    H13     18.128015   18.181276   19.741946 H          1 MOL1         0.0754
@<TRIPOS>BOND
    1     1     2    1
    2     1     3    2
    3     1     4    1
    4     4     5    1
    5     4     6    1
    6     4     7    1
    7     7     8    1
    8     7     9    1
    9     7    10    1
   10    10    11    1
   11    10    12    1
   12    10    13    1
   13    13    14    1
   14    13    15    1
   15    13    16    1
   16    16    17    1
   17    16    18    1
   18    16    19    1
   19    19    20    1
   20    19    21    1
   21    19    22    1
@<TRIPOS>SUBSTRUCTURE
       1 MOL1            1 RESIDUE      1      MOL     
@<SCITEGIC>MOL_PROPERTY
VM2 Rank
SciTegic.value.IntegerValue
10

@<SCITEGIC>MOL_PROPERTY
Conf_Id
SciTegic.value.IntegerValue
661

@<SCITEGIC>MOL_PROPERTY
Probability
SciTegic.value.DoubleValue
1.65

@<SCITEGIC>MOL_PROPERTY
Sum Probability
SciTegic.value.DoubleValue
82.79

@<SCITEGIC>MOL_PROPERTY
Delta G
SciTegic.value.DoubleValue
1.777

@<SCITEGIC>MOL_PROPERTY
G
SciTegic.value.DoubleValue
-15.221

@<SCITEGIC>MOL_PROPERTY
E
SciTegic.value.DoubleValue
-35.031

@<SCITEGIC>MOL_PROPERTY
-TS
SciTegic.value.DoubleValue
19.810

@<SCITEGIC>MOL_PROPERTY
U+W
SciTegic.value.DoubleValue
-52.916

@<SCITEGIC>MOL_PROPERTY
U
SciTegic.value.DoubleValue
7.600

@<SCITEGIC>MOL_PROPERTY
W
SciTegic.value.DoubleValue
-60.516

@<SCITEGIC>MOL_PROPERTY
W(PB)
SciTegic.value.DoubleValue
-62.798

@<SCITEGIC>MOL_PROPERTY
W(SA)
SciTegic.value.DoubleValue
2.282

@<SCITEGIC>MOL_PROPERTY
Valence
SciTegic.value.DoubleValue
8.094

@<SCITEGIC>MOL_PROPERTY
Coulomb
SciTegic.value.DoubleValue
-1.473

@<SCITEGIC>MOL_PROPERTY
VdW
SciTegic.value.DoubleValue
0.979

@<SCITEGIC>MOL_PROPERTY
VdW6
SciTegic.value.DoubleValue
-7.827

@<SCITEGIC>MOL_PROPERTY
VdW12
SciTegic.value.DoubleValue
8.806

@<SCITEGIC>MOL_PROPERTY
Bond
SciTegic.value.DoubleValue
0.173

@<SCITEGIC>MOL_PROPERTY
Angle
SciTegic.value.DoubleValue
2.687

@<SCITEGIC>MOL_PROPERTY
Pdih
SciTegic.value.DoubleValue
5.233

@<SCITEGIC>MOL_PROPERTY
Idih
SciTegic.value.DoubleValue
0.001

@<SCITEGIC>MOL_PROPERTY
Tether
SciTegic.value.DoubleValue
0.000

@<TRIPOS>MOLECULE
guest-s21_vm2.mol2 : vm2 ligand conformer 11
          22          21           1
SMALL
USER_CHARGES
 
@<TRIPOS>ATOM
       1    C1      19.825382   19.116825   26.207004 C.2        1 MOL1         0.6145
       2    O1      20.530997   20.106750   26.230583 O.co2      1 MOL1        -0.6735
       3    O2      19.408578   18.575170   27.211398 O.co2      1 MOL1        -0.6735
       4    C2      19.426683   18.500736   24.864990 C.3        1 MOL1        -0.1985
       5    H1      18.331181   18.481118   24.826790 H          1 MOL1         0.0740
       6    H2      19.766361   17.458353   24.869936 H          1 MOL1         0.0740
       7    C3      19.982169   19.227343   23.611241 C.3        1 MOL1        -0.1882
       8    H3      19.643307   20.272638   23.615732 H          1 MOL1         0.0742
       9    H4      21.079787   19.248789   23.658813 H          1 MOL1         0.0742
      10    C4      19.532170   18.540949   22.303236 C.3        1 MOL1        -0.1880
      11    H5      18.434596   18.520696   22.257947 H          1 MOL1         0.0742
      12    H6      19.871936   17.496112   22.301114 H          1 MOL1         0.0742
      13    C5      20.085885   19.265233   21.057395 C.3        1 MOL1        -0.1880
      14    H7      19.746422   20.310168   21.059105 H          1 MOL1         0.0742
      15    H8      21.183473   19.285706   21.102227 H          1 MOL1         0.0742
      16    C6      19.636534   18.579880   19.749926 C.3        1 MOL1        -0.1856
      17    H9      18.538982   18.559374   19.700567 H          1 MOL1         0.0742
      18    H10     19.976049   17.534812   19.743729 H          1 MOL1         0.0742
      19    C7      20.191602   19.306115   18.508226 C.3        1 MOL1        -0.2871
      20    H11     19.841639   20.346137   18.472333 H          1 MOL1         0.0754
      21    H12     19.862535   18.805865   17.588141 H          1 MOL1         0.0754
      22    H13     21.289460   19.313837   18.515782 H          1 MOL1         0.0754
@<TRIPOS>BOND
    1     1     2    1
    2     1     3    2
    3     1     4    1
    4     4     5    1
    5     4     6    1
    6     4     7    1
    7     7     8    1
    8     7     9    1
    9     7    10    1
   10    10    11    1
   11    10    12    1
   12    10    13    1
   13    13    14    1
   14    13    15    1
   15    13    16    1
   16    16    17    1
   17    16    18    1
   18    16    19    1
   19    19    20    1
   20    19    21    1
   21    19    22    1
@<TRIPOS>SUBSTRUCTURE
       1 MOL1            1 RESIDUE      1      MOL     
@<SCITEGIC>MOL_PROPERTY
VM2 Rank
SciTegic.value.IntegerValue
11

@<SCITEGIC>MOL_PROPERTY
Conf_Id
SciTegic.value.IntegerValue
0

@<SCITEGIC>MOL_PROPERTY
Probability
SciTegic.value.DoubleValue
1.56

@<SCITEGIC>MOL_PROPERTY
Sum Probability
SciTegic.value.DoubleValue
84.36

@<SCITEGIC>MOL_PROPERTY
Delta G
SciTegic.value.DoubleValue
1.808

@<SCITEGIC>MOL_PROPERTY
G
SciTegic.value.DoubleValue
-15.190

@<SCITEGIC>MOL_PROPERTY
E
SciTegic.value.DoubleValue
-35.274

@<SCITEGIC>MOL_PROPERTY
-TS
SciTegic.value.DoubleValue
20.084

@<SCITEGIC>MOL_PROPERTY
U+W
SciTegic.value.DoubleValue
-53.159

@<SCITEGIC>MOL_PROPERTY
U
SciTegic.value.DoubleValue
6.763

@<SCITEGIC>MOL_PROPERTY
W
SciTegic.value.DoubleValue
-59.922

@<SCITEGIC>MOL_PROPERTY
W(PB)
SciTegic.value.DoubleValue
-62.256

@<SCITEGIC>MOL_PROPERTY
W(SA)
SciTegic.value.DoubleValue
2.334

@<SCITEGIC>MOL_PROPERTY
Valence
SciTegic.value.DoubleValue
7.600

@<SCITEGIC>MOL_PROPERTY
Coulomb
SciTegic.value.DoubleValue
-2.139

@<SCITEGIC>MOL_PROPERTY
VdW
SciTegic.value.DoubleValue
1.302

@<SCITEGIC>MOL_PROPERTY
VdW6
SciTegic.value.DoubleValue
-6.786

@<SCITEGIC>MOL_PROPERTY
VdW12
SciTegic.value.DoubleValue
8.088

@<SCITEGIC>MOL_PROPERTY
Bond
SciTegic.value.DoubleValue
0.134

@<SCITEGIC>MOL_PROPERTY
Angle
SciTegic.value.DoubleValue
2.720

@<SCITEGIC>MOL_PROPERTY
Pdih
SciTegic.value.DoubleValue
4.746

@<SCITEGIC>MOL_PROPERTY
Idih
SciTegic.value.DoubleValue
0.000

@<SCITEGIC>MOL_PROPERTY
Tether
SciTegic.value.DoubleValue
0.000

@<TRIPOS>MOLECULE
guest-s21_vm2.mol2 : vm2 ligand conformer 12
          22          21           1
SMALL
USER_CHARGES
 
@<TRIPOS>ATOM
       1    C1      19.728978   19.210524   25.988242 C.2        1 MOL1         0.6145
       2    O1      20.054940   20.327857   26.337309 O.co2      1 MOL1        -0.6735
       3    O2      19.720727   18.249183   26.731422 O.co2      1 MOL1        -0.6735
       4    C2      19.330079   18.998363   24.532168 C.3        1 MOL1        -0.1985
       5    H1      18.840943   19.915091   24.184579 H          1 MOL1         0.0740
       6    H2      18.582506   18.196883   24.497809 H          1 MOL1         0.0740
       7    C3      20.537319   18.643192   23.625505 C.3        1 MOL1        -0.1882
       8    H3      21.256661   19.473752   23.629016 H          1 MOL1         0.0742
       9    H4      21.059708   17.779246   24.059273 H          1 MOL1         0.0742
      10    C4      20.140838   18.300584   22.169433 C.3        1 MOL1        -0.1880
      11    H5      19.415526   17.475604   22.169983 H          1 MOL1         0.0742
      12    H6      21.034862   17.928846   21.652847 H          1 MOL1         0.0742
      13    C5      19.560637   19.506251   21.389849 C.3        1 MOL1        -0.1880
      14    H7      18.664708   19.876997   21.903596 H          1 MOL1         0.0742
      15    H8      20.285272   20.331845   21.391050 H          1 MOL1         0.0742
      16    C6      19.168781   19.164499   19.933222 C.3        1 MOL1        -0.1856
      17    H9      18.644313   20.026878   19.499079 H          1 MOL1         0.0742
      18    H10     18.452673   18.331166   19.927106 H          1 MOL1         0.0742
      19    C7      20.377700   18.818547   19.036850 C.3        1 MOL1        -0.2871
      20    H11     21.123617   19.623780   19.055049 H          1 MOL1         0.0754
      21    H12     20.056171   18.679623   17.996544 H          1 MOL1         0.0754
      22    H13     20.864628   17.890027   19.359613 H          1 MOL1         0.0754
@<TRIPOS>BOND
    1     1     2    1
    2     1     3    2
    3     1     4    1
    4     4     5    1
    5     4     6    1
    6     4     7    1
    7     7     8    1
    8     7     9    1
    9     7    10    1
   10    10    11    1
   11    10    12    1
   12    10    13    1
   13    13    14    1
   14    13    15    1
   15    13    16    1
   16    16    17    1
   17    16    18    1
   18    16    19    1
   19    19    20    1
   20    19    21    1
   21    19    22    1
@<TRIPOS>SUBSTRUCTURE
       1 MOL1            1 RESIDUE      1      MOL     
@<SCITEGIC>MOL_PROPERTY
VM2 Rank
SciTegic.value.IntegerValue
12

@<SCITEGIC>MOL_PROPERTY
Conf_Id
SciTegic.value.IntegerValue
470

@<SCITEGIC>MOL_PROPERTY
Probability
SciTegic.value.DoubleValue
1.56

@<SCITEGIC>MOL_PROPERTY
Sum Probability
SciTegic.value.DoubleValue
85.92

@<SCITEGIC>MOL_PROPERTY
Delta G
SciTegic.value.DoubleValue
1.809

@<SCITEGIC>MOL_PROPERTY
G
SciTegic.value.DoubleValue
-15.189

@<SCITEGIC>MOL_PROPERTY
E
SciTegic.value.DoubleValue
-34.924

@<SCITEGIC>MOL_PROPERTY
-TS
SciTegic.value.DoubleValue
19.735

@<SCITEGIC>MOL_PROPERTY
U+W
SciTegic.value.DoubleValue
-52.809

@<SCITEGIC>MOL_PROPERTY
U
SciTegic.value.DoubleValue
7.689

@<SCITEGIC>MOL_PROPERTY
W
SciTegic.value.DoubleValue
-60.498

@<SCITEGIC>MOL_PROPERTY
W(PB)
SciTegic.value.DoubleValue
-62.768

@<SCITEGIC>MOL_PROPERTY
W(SA)
SciTegic.value.DoubleValue
2.270

@<SCITEGIC>MOL_PROPERTY
Valence
SciTegic.value.DoubleValue
8.197

@<SCITEGIC>MOL_PROPERTY
Coulomb
SciTegic.value.DoubleValue
-1.561

@<SCITEGIC>MOL_PROPERTY
VdW
SciTegic.value.DoubleValue
1.053

@<SCITEGIC>MOL_PROPERTY
VdW6
SciTegic.value.DoubleValue
-7.737

@<SCITEGIC>MOL_PROPERTY
VdW12
SciTegic.value.DoubleValue
8.790

@<SCITEGIC>MOL_PROPERTY
Bond
SciTegic.value.DoubleValue
0.181

@<SCITEGIC>MOL_PROPERTY
Angle
SciTegic.value.DoubleValue
2.780

@<SCITEGIC>MOL_PROPERTY
Pdih
SciTegic.value.DoubleValue
5.235

@<SCITEGIC>MOL_PROPERTY
Idih
SciTegic.value.DoubleValue
0.001

@<SCITEGIC>MOL_PROPERTY
Tether
SciTegic.value.DoubleValue
0.000

@<TRIPOS>MOLECULE
guest-s21_vm2.mol2 : vm2 ligand conformer 13
          22          21           1
SMALL
USER_CHARGES
 
@<TRIPOS>ATOM
       1    C1      19.582503   19.113498   25.922906 C.2        1 MOL1         0.6145
       2    O1      19.592082   20.159892   26.540586 O.co2      1 MOL1        -0.6735
       3    O2      19.726140   18.024404   26.442309 O.co2      1 MOL1        -0.6735
       4    C2      19.403040   19.172075   24.410135 C.3        1 MOL1        -0.1985
       5    H1      18.765219   20.032803   24.176125 H          1 MOL1         0.0740
       6    H2      18.859411   18.271318   24.103552 H          1 MOL1         0.0740
       7    C3      20.750146   19.282302   23.649782 C.3        1 MOL1        -0.1882
       8    H3      21.308106   20.143484   24.042770 H          1 MOL1         0.0742
       9    H4      21.362898   18.394458   23.858458 H          1 MOL1         0.0742
      10    C4      20.582494   19.455089   22.121429 C.3        1 MOL1        -0.1880
      11    H5      21.572315   19.631830   21.679065 H          1 MOL1         0.0742
      12    H6      19.986440   20.355599   21.923458 H          1 MOL1         0.0742
      13    C5      19.934409   18.228540   21.434048 C.3        1 MOL1        -0.1880
      14    H7      20.471352   17.320683   21.740982 H          1 MOL1         0.0742
      15    H8      18.897707   18.109380   21.774942 H          1 MOL1         0.0742
      16    C6      19.952790   18.312815   19.890114 C.3        1 MOL1        -0.1856
      17    H9      19.577133   17.365052   19.480440 H          1 MOL1         0.0742
      18    H10     20.987877   18.415164   19.536009 H          1 MOL1         0.0742
      19    C7      19.096396   19.470387   19.332691 C.3        1 MOL1        -0.2871
      20    H11     18.062301   19.403814   19.695102 H          1 MOL1         0.0754
      21    H12     19.073052   19.437083   18.235768 H          1 MOL1         0.0754
      22    H13     19.502417   20.446282   19.626962 H          1 MOL1         0.0754
@<TRIPOS>BOND
    1     1     2    1
    2     1     3    2
    3     1     4    1
    4     4     5    1
    5     4     6    1
    6     4     7    1
    7     7     8    1
    8     7     9    1
    9     7    10    1
   10    10    11    1
   11    10    12    1
   12    10    13    1
   13    13    14    1
   14    13    15    1
   15    13    16    1
   16    16    17    1
   17    16    18    1
   18    16    19    1
   19    19    20    1
   20    19    21    1
   21    19    22    1
@<TRIPOS>SUBSTRUCTURE
       1 MOL1            1 RESIDUE      1      MOL     
@<SCITEGIC>MOL_PROPERTY
VM2 Rank
SciTegic.value.IntegerValue
13

@<SCITEGIC>MOL_PROPERTY
Conf_Id
SciTegic.value.IntegerValue
368

@<SCITEGIC>MOL_PROPERTY
Probability
SciTegic.value.DoubleValue
1.56

@<SCITEGIC>MOL_PROPERTY
Sum Probability
SciTegic.value.DoubleValue
87.48

@<SCITEGIC>MOL_PROPERTY
Delta G
SciTegic.value.DoubleValue
1.810

@<SCITEGIC>MOL_PROPERTY
G
SciTegic.value.DoubleValue
-15.188

@<SCITEGIC>MOL_PROPERTY
E
SciTegic.value.DoubleValue
-34.998

@<SCITEGIC>MOL_PROPERTY
-TS
SciTegic.value.DoubleValue
19.810

@<SCITEGIC>MOL_PROPERTY
U+W
SciTegic.value.DoubleValue
-52.883

@<SCITEGIC>MOL_PROPERTY
U
SciTegic.value.DoubleValue
7.600

@<SCITEGIC>MOL_PROPERTY
W
SciTegic.value.DoubleValue
-60.483

@<SCITEGIC>MOL_PROPERTY
W(PB)
SciTegic.value.DoubleValue
-62.769

@<SCITEGIC>MOL_PROPERTY
W(SA)
SciTegic.value.DoubleValue
2.286

@<SCITEGIC>MOL_PROPERTY
Valence
SciTegic.value.DoubleValue
8.094

@<SCITEGIC>MOL_PROPERTY
Coulomb
SciTegic.value.DoubleValue
-1.473

@<SCITEGIC>MOL_PROPERTY
VdW
SciTegic.value.DoubleValue
0.979

@<SCITEGIC>MOL_PROPERTY
VdW6
SciTegic.value.DoubleValue
-7.827

@<SCITEGIC>MOL_PROPERTY
VdW12
SciTegic.value.DoubleValue
8.806

@<SCITEGIC>MOL_PROPERTY
Bond
SciTegic.value.DoubleValue
0.173

@<SCITEGIC>MOL_PROPERTY
Angle
SciTegic.value.DoubleValue
2.687

@<SCITEGIC>MOL_PROPERTY
Pdih
SciTegic.value.DoubleValue
5.233

@<SCITEGIC>MOL_PROPERTY
Idih
SciTegic.value.DoubleValue
0.001

@<SCITEGIC>MOL_PROPERTY
Tether
SciTegic.value.DoubleValue
0.000

@<TRIPOS>MOLECULE
guest-s21_vm2.mol2 : vm2 ligand conformer 14
          22          21           1
SMALL
USER_CHARGES
 
@<TRIPOS>ATOM
       1    C1      19.738631   19.032038   25.995084 C.2        1 MOL1         0.6145
       2    O1      19.623910   20.040837   26.662710 O.co2      1 MOL1        -0.6735
       3    O2      20.181479   17.986204   26.427111 O.co2      1 MOL1        -0.6735
       4    C2      19.325222   19.088235   24.528721 C.3        1 MOL1        -0.1985
       5    H1      18.495901   19.799648   24.436347 H          1 MOL1         0.0740
       6    H2      18.938997   18.100352   24.254171 H          1 MOL1         0.0740
       7    C3      20.490962   19.500968   23.592606 C.3        1 MOL1        -0.1882
       8    H3      20.915535   20.446713   23.956955 H          1 MOL1         0.0742
       9    H4      21.295498   18.755364   23.656587 H          1 MOL1         0.0742
      10    C4      20.065934   19.686685   22.116265 C.3        1 MOL1        -0.1880
      11    H5      20.916895   20.111909   21.569111 H          1 MOL1         0.0742
      12    H6      19.256070   20.426449   22.056784 H          1 MOL1         0.0742
      13    C5      19.622054   18.369585   21.433448 C.3        1 MOL1        -0.1880
      14    H7      20.431303   17.629272   21.494717 H          1 MOL1         0.0742
      15    H8      18.769102   17.944920   21.977700 H          1 MOL1         0.0742
      16    C6      19.201723   18.554930   19.956600 C.3        1 MOL1        -0.1856
      17    H9      18.400116   19.303433   19.889812 H          1 MOL1         0.0742
      18    H10     18.774917   17.610493   19.591744 H          1 MOL1         0.0742
      19    C7      20.370084   18.959519   19.031455 C.3        1 MOL1        -0.2871
      20    H11     20.752947   19.956950   19.280395 H          1 MOL1         0.0754
      21    H12     20.039765   18.983239   17.984916 H          1 MOL1         0.0754
      22    H13     21.198229   18.242968   19.107982 H          1 MOL1         0.0754
@<TRIPOS>BOND
    1     1     2    1
    2     1     3    2
    3     1     4    1
    4     4     5    1
    5     4     6    1
    6     4     7    1
    7     7     8    1
    8     7     9    1
    9     7    10    1
   10    10    11    1
   11    10    12    1
   12    10    13    1
   13    13    14    1
   14    13    15    1
   15    13    16    1
   16    16    17    1
   17    16    18    1
   18    16    19    1
   19    19    20    1
   20    19    21    1
   21    19    22    1
@<TRIPOS>SUBSTRUCTURE
       1 MOL1            1 RESIDUE      1      MOL     
@<SCITEGIC>MOL_PROPERTY
VM2 Rank
SciTegic.value.IntegerValue
14

@<SCITEGIC>MOL_PROPERTY
Conf_Id
SciTegic.value.IntegerValue
187

@<SCITEGIC>MOL_PROPERTY
Probability
SciTegic.value.DoubleValue
1.49

@<SCITEGIC>MOL_PROPERTY
Sum Probability
SciTegic.value.DoubleValue
88.97

@<SCITEGIC>MOL_PROPERTY
Delta G
SciTegic.value.DoubleValue
1.837

@<SCITEGIC>MOL_PROPERTY
G
SciTegic.value.DoubleValue
-15.161

@<SCITEGIC>MOL_PROPERTY
E
SciTegic.value.DoubleValue
-34.896

@<SCITEGIC>MOL_PROPERTY
-TS
SciTegic.value.DoubleValue
19.735

@<SCITEGIC>MOL_PROPERTY
U+W
SciTegic.value.DoubleValue
-52.781

@<SCITEGIC>MOL_PROPERTY
U
SciTegic.value.DoubleValue
7.689

@<SCITEGIC>MOL_PROPERTY
W
SciTegic.value.DoubleValue
-60.470

@<SCITEGIC>MOL_PROPERTY
W(PB)
SciTegic.value.DoubleValue
-62.779

@<SCITEGIC>MOL_PROPERTY
W(SA)
SciTegic.value.DoubleValue
2.309

@<SCITEGIC>MOL_PROPERTY
Valence
SciTegic.value.DoubleValue
8.197

@<SCITEGIC>MOL_PROPERTY
Coulomb
SciTegic.value.DoubleValue
-1.561

@<SCITEGIC>MOL_PROPERTY
VdW
SciTegic.value.DoubleValue
1.053

@<SCITEGIC>MOL_PROPERTY
VdW6
SciTegic.value.DoubleValue
-7.737

@<SCITEGIC>MOL_PROPERTY
VdW12
SciTegic.value.DoubleValue
8.791

@<SCITEGIC>MOL_PROPERTY
Bond
SciTegic.value.DoubleValue
0.181

@<SCITEGIC>MOL_PROPERTY
Angle
SciTegic.value.DoubleValue
2.780

@<SCITEGIC>MOL_PROPERTY
Pdih
SciTegic.value.DoubleValue
5.235

@<SCITEGIC>MOL_PROPERTY
Idih
SciTegic.value.DoubleValue
0.001

@<SCITEGIC>MOL_PROPERTY
Tether
SciTegic.value.DoubleValue
0.000

@<TRIPOS>MOLECULE
guest-s21_vm2.mol2 : vm2 ligand conformer 15
          22          21           1
SMALL
USER_CHARGES
 
@<TRIPOS>ATOM
       1    C1      19.999776   18.945653   25.852295 C.2        1 MOL1         0.6145
       2    O1      20.042757   19.972336   26.500844 O.co2      1 MOL1        -0.6735
       3    O2      20.675923   17.966213   26.097251 O.co2      1 MOL1        -0.6735
       4    C2      19.058654   18.889859   24.654169 C.3        1 MOL1        -0.1985
       5    H1      18.179109   19.503446   24.883217 H          1 MOL1         0.0740
       6    H2      18.712166   17.855597   24.540639 H          1 MOL1         0.0740
       7    C3      19.724054   19.376455   23.343209 C.3        1 MOL1        -0.1882
       8    H3      20.073673   20.409711   23.474778 H          1 MOL1         0.0742
       9    H4      20.611098   18.760107   23.145550 H          1 MOL1         0.0742
      10    C4      18.750489   19.303550   22.144292 C.3        1 MOL1        -0.1880
      11    H5      17.837336   19.861786   22.391799 H          1 MOL1         0.0742
      12    H6      18.437005   18.263766   21.983190 H          1 MOL1         0.0742
      13    C5      19.338157   19.887625   20.835015 C.3        1 MOL1        -0.1880
      14    H7      18.567418   19.844671   20.053472 H          1 MOL1         0.0742
      15    H8      19.555661   20.953539   20.987465 H          1 MOL1         0.0742
      16    C6      20.617641   19.187922   20.313447 C.3        1 MOL1        -0.1856
      17    H9      21.436572   19.308225   21.034897 H          1 MOL1         0.0742
      18    H10     20.944775   19.696642   19.396260 H          1 MOL1         0.0742
      19    C7      20.412550   17.689386   20.003479 C.3        1 MOL1        -0.2871
      20    H11     20.197333   17.119532   20.916189 H          1 MOL1         0.0754
      21    H12     21.317277   17.263290   19.551043 H          1 MOL1         0.0754
      22    H13     19.581564   17.543472   19.301222 H          1 MOL1         0.0754
@<TRIPOS>BOND
    1     1     2    1
    2     1     3    2
    3     1     4    1
    4     4     5    1
    5     4     6    1
    6     4     7    1
    7     7     8    1
    8     7     9    1
    9     7    10    1
   10    10    11    1
   11    10    12    1
   12    10    13    1
   13    13    14    1
   14    13    15    1
   15    13    16    1
   16    16    17    1
   17    16    18    1
   18    16    19    1
   19    19    20    1
   20    19    21    1
   21    19    22    1
@<TRIPOS>SUBSTRUCTURE
       1 MOL1            1 RESIDUE      1      MOL     
@<SCITEGIC>MOL_PROPERTY
VM2 Rank
SciTegic.value.IntegerValue
15

@<SCITEGIC>MOL_PROPERTY
Conf_Id
SciTegic.value.IntegerValue
592

@<SCITEGIC>MOL_PROPERTY
Probability
SciTegic.value.DoubleValue
1.18

@<SCITEGIC>MOL_PROPERTY
Sum Probability
SciTegic.value.DoubleValue
90.15

@<SCITEGIC>MOL_PROPERTY
Delta G
SciTegic.value.DoubleValue
1.976

@<SCITEGIC>MOL_PROPERTY
G
SciTegic.value.DoubleValue
-15.022

@<SCITEGIC>MOL_PROPERTY
E
SciTegic.value.DoubleValue
-34.996

@<SCITEGIC>MOL_PROPERTY
-TS
SciTegic.value.DoubleValue
19.974

@<SCITEGIC>MOL_PROPERTY
U+W
SciTegic.value.DoubleValue
-52.881

@<SCITEGIC>MOL_PROPERTY
U
SciTegic.value.DoubleValue
8.103

@<SCITEGIC>MOL_PROPERTY
W
SciTegic.value.DoubleValue
-60.984

@<SCITEGIC>MOL_PROPERTY
W(PB)
SciTegic.value.DoubleValue
-63.232

@<SCITEGIC>MOL_PROPERTY
W(SA)
SciTegic.value.DoubleValue
2.248

@<SCITEGIC>MOL_PROPERTY
Valence
SciTegic.value.DoubleValue
8.053

@<SCITEGIC>MOL_PROPERTY
Coulomb
SciTegic.value.DoubleValue
-0.790

@<SCITEGIC>MOL_PROPERTY
VdW
SciTegic.value.DoubleValue
0.841

@<SCITEGIC>MOL_PROPERTY
VdW6
SciTegic.value.DoubleValue
-8.065

@<SCITEGIC>MOL_PROPERTY
VdW12
SciTegic.value.DoubleValue
8.905

@<SCITEGIC>MOL_PROPERTY
Bond
SciTegic.value.DoubleValue
0.172

@<SCITEGIC>MOL_PROPERTY
Angle
SciTegic.value.DoubleValue
2.892

@<SCITEGIC>MOL_PROPERTY
Pdih
SciTegic.value.DoubleValue
4.988

@<SCITEGIC>MOL_PROPERTY
Idih
SciTegic.value.DoubleValue
0.000

@<SCITEGIC>MOL_PROPERTY
Tether
SciTegic.value.DoubleValue
0.000

@<TRIPOS>MOLECULE
guest-s21_vm2.mol2 : vm2 ligand conformer 16
          22          21           1
SMALL
USER_CHARGES
 
@<TRIPOS>ATOM
       1    C1      19.883113   19.476567   25.660743 C.2        1 MOL1         0.6145
       2    O1      20.717103   20.360292   25.664760 O.co2      1 MOL1        -0.6735
       3    O2      19.528020   18.882198   26.659380 O.co2      1 MOL1        -0.6735
       4    C2      19.264079   19.075990   24.326480 C.3        1 MOL1        -0.1985
       5    H1      19.203003   19.975944   23.703973 H          1 MOL1         0.0740
       6    H2      18.237796   18.738536   24.513997 H          1 MOL1         0.0740
       7    C3      20.068239   17.966292   23.600964 C.3        1 MOL1        -0.1882
       8    H3      21.082304   18.328565   23.386082 H          1 MOL1         0.0742
       9    H4      20.189459   17.114556   24.284410 H          1 MOL1         0.0742
      10    C4      19.393848   17.462181   22.300152 C.3        1 MOL1        -0.1880
      11    H5      18.431382   16.998485   22.555901 H          1 MOL1         0.0742
      12    H6      20.010978   16.661342   21.870526 H          1 MOL1         0.0742
      13    C5      19.151668   18.543767   21.217385 C.3        1 MOL1        -0.1880
      14    H7      18.660657   18.067623   20.357758 H          1 MOL1         0.0742
      15    H8      18.445825   19.297414   21.590271 H          1 MOL1         0.0742
      16    C6      20.446687   19.235195   20.735112 C.3        1 MOL1        -0.1856
      17    H9      21.170455   18.477514   20.404716 H          1 MOL1         0.0742
      18    H10     20.912117   19.783950   21.564688 H          1 MOL1         0.0742
      19    C7      20.167243   20.216517   19.579024 C.3        1 MOL1        -0.2871
      20    H11     21.095614   20.701676   19.250744 H          1 MOL1         0.0754
      21    H12     19.466617   21.001755   19.891873 H          1 MOL1         0.0754
      22    H13     19.734272   19.694302   18.715812 H          1 MOL1         0.0754
@<TRIPOS>BOND
    1     1     2    1
    2     1     3    2
    3     1     4    1
    4     4     5    1
    5     4     6    1
    6     4     7    1
    7     7     8    1
    8     7     9    1
    9     7    10    1
   10    10    11    1
   11    10    12    1
   12    10    13    1
   13    13    14    1
   14    13    15    1
   15    13    16    1
   16    16    17    1
   17    16    18    1
   18    16    19    1
   19    19    20    1
   20    19    21    1
   21    19    22    1
@<TRIPOS>SUBSTRUCTURE
       1 MOL1            1 RESIDUE      1      MOL     
@<SCITEGIC>MOL_PROPERTY
VM2 Rank
SciTegic.value.IntegerValue
16

@<SCITEGIC>MOL_PROPERTY
Conf_Id
SciTegic.value.IntegerValue
684

@<SCITEGIC>MOL_PROPERTY
Probability
SciTegic.value.DoubleValue
1.16

@<SCITEGIC>MOL_PROPERTY
Sum Probability
SciTegic.value.DoubleValue
91.31

@<SCITEGIC>MOL_PROPERTY
Delta G
SciTegic.value.DoubleValue
1.985

@<SCITEGIC>MOL_PROPERTY
G
SciTegic.value.DoubleValue
-15.013

@<SCITEGIC>MOL_PROPERTY
E
SciTegic.value.DoubleValue
-35.017

@<SCITEGIC>MOL_PROPERTY
-TS
SciTegic.value.DoubleValue
20.005

@<SCITEGIC>MOL_PROPERTY
U+W
SciTegic.value.DoubleValue
-52.902

@<SCITEGIC>MOL_PROPERTY
U
SciTegic.value.DoubleValue
8.061

@<SCITEGIC>MOL_PROPERTY
W
SciTegic.value.DoubleValue
-60.964

@<SCITEGIC>MOL_PROPERTY
W(PB)
SciTegic.value.DoubleValue
-63.249

@<SCITEGIC>MOL_PROPERTY
W(SA)
SciTegic.value.DoubleValue
2.285

@<SCITEGIC>MOL_PROPERTY
Valence
SciTegic.value.DoubleValue
8.062

@<SCITEGIC>MOL_PROPERTY
Coulomb
SciTegic.value.DoubleValue
-0.784

@<SCITEGIC>MOL_PROPERTY
VdW
SciTegic.value.DoubleValue
0.783

@<SCITEGIC>MOL_PROPERTY
VdW6
SciTegic.value.DoubleValue
-8.229

@<SCITEGIC>MOL_PROPERTY
VdW12
SciTegic.value.DoubleValue
9.011

@<SCITEGIC>MOL_PROPERTY
Bond
SciTegic.value.DoubleValue
0.183

@<SCITEGIC>MOL_PROPERTY
Angle
SciTegic.value.DoubleValue
2.910

@<SCITEGIC>MOL_PROPERTY
Pdih
SciTegic.value.DoubleValue
4.969

@<SCITEGIC>MOL_PROPERTY
Idih
SciTegic.value.DoubleValue
0.001

@<SCITEGIC>MOL_PROPERTY
Tether
SciTegic.value.DoubleValue
0.000

@<TRIPOS>MOLECULE
guest-s21_vm2.mol2 : vm2 ligand conformer 17
          22          21           1
SMALL
USER_CHARGES
 
@<TRIPOS>ATOM
       1    C1      19.894580   18.887903   25.853960 C.2        1 MOL1         0.6145
       2    O1      19.021763   19.411987   26.517333 O.co2      1 MOL1        -0.6735
       3    O2      20.364274   17.795191   26.102657 O.co2      1 MOL1        -0.6735
       4    C2      20.416819   19.635202   24.632017 C.3        1 MOL1        -0.1985
       5    H1      21.472223   19.370302   24.495662 H          1 MOL1         0.0740
       6    H2      20.377157   20.709720   24.847396 H          1 MOL1         0.0740
       7    C3      19.616485   19.317411   23.344919 C.3        1 MOL1        -0.1882
       8    H3      19.655175   18.235510   23.161089 H          1 MOL1         0.0742
       9    H4      18.560712   19.579431   23.499353 H          1 MOL1         0.0742
      10    C4      20.170582   20.082811   22.121121 C.3        1 MOL1        -0.1880
      11    H5      21.211702   19.786346   21.937939 H          1 MOL1         0.0742
      12    H6      20.196225   21.156193   22.353343 H          1 MOL1         0.0742
      13    C5      19.329749   19.883035   20.835121 C.3        1 MOL1        -0.1880
      14    H7      18.317912   20.274390   21.007602 H          1 MOL1         0.0742
      15    H8      19.760174   20.499177   20.034002 H          1 MOL1         0.0742
      16    C6      19.219846   18.420947   20.336209 C.3        1 MOL1        -0.1856
      17    H9      18.592254   18.405776   19.434576 H          1 MOL1         0.0742
      18    H10     18.696803   17.804903   21.079530 H          1 MOL1         0.0742
      19    C7      20.585903   17.784514   20.000663 C.3        1 MOL1        -0.2871
      20    H11     21.137497   18.397218   19.275866 H          1 MOL1         0.0754
      21    H12     20.448185   16.786404   19.565237 H          1 MOL1         0.0754
      22    H13     21.204853   17.672402   20.899786 H          1 MOL1         0.0754
@<TRIPOS>BOND
    1     1     2    1
    2     1     3    2
    3     1     4    1
    4     4     5    1
    5     4     6    1
    6     4     7    1
    7     7     8    1
    8     7     9    1
    9     7    10    1
   10    10    11    1
   11    10    12    1
   12    10    13    1
   13    13    14    1
   14    13    15    1
   15    13    16    1
   16    16    17    1
   17    16    18    1
   18    16    19    1
   19    19    20    1
   20    19    21    1
   21    19    22    1
@<TRIPOS>SUBSTRUCTURE
       1 MOL1            1 RESIDUE      1      MOL     
@<SCITEGIC>MOL_PROPERTY
VM2 Rank
SciTegic.value.IntegerValue
17

@<SCITEGIC>MOL_PROPERTY
Conf_Id
SciTegic.value.IntegerValue
51

@<SCITEGIC>MOL_PROPERTY
Probability
SciTegic.value.DoubleValue
1.13

@<SCITEGIC>MOL_PROPERTY
Sum Probability
SciTegic.value.DoubleValue
92.44

@<SCITEGIC>MOL_PROPERTY
Delta G
SciTegic.value.DoubleValue
2.001

@<SCITEGIC>MOL_PROPERTY
G
SciTegic.value.DoubleValue
-14.998

@<SCITEGIC>MOL_PROPERTY
E
SciTegic.value.DoubleValue
-34.971

@<SCITEGIC>MOL_PROPERTY
-TS
SciTegic.value.DoubleValue
19.974

@<SCITEGIC>MOL_PROPERTY
U+W
SciTegic.value.DoubleValue
-52.856

@<SCITEGIC>MOL_PROPERTY
U
SciTegic.value.DoubleValue
8.103

@<SCITEGIC>MOL_PROPERTY
W
SciTegic.value.DoubleValue
-60.959

@<SCITEGIC>MOL_PROPERTY
W(PB)
SciTegic.value.DoubleValue
-63.238

@<SCITEGIC>MOL_PROPERTY
W(SA)
SciTegic.value.DoubleValue
2.279

@<SCITEGIC>MOL_PROPERTY
Valence
SciTegic.value.DoubleValue
8.053

@<SCITEGIC>MOL_PROPERTY
Coulomb
SciTegic.value.DoubleValue
-0.791

@<SCITEGIC>MOL_PROPERTY
VdW
SciTegic.value.DoubleValue
0.841

@<SCITEGIC>MOL_PROPERTY
VdW6
SciTegic.value.DoubleValue
-8.065

@<SCITEGIC>MOL_PROPERTY
VdW12
SciTegic.value.DoubleValue
8.906

@<SCITEGIC>MOL_PROPERTY
Bond
SciTegic.value.DoubleValue
0.172

@<SCITEGIC>MOL_PROPERTY
Angle
SciTegic.value.DoubleValue
2.891

@<SCITEGIC>MOL_PROPERTY
Pdih
SciTegic.value.DoubleValue
4.989

@<SCITEGIC>MOL_PROPERTY
Idih
SciTegic.value.DoubleValue
0.000

@<SCITEGIC>MOL_PROPERTY
Tether
SciTegic.value.DoubleValue
0.000

@<TRIPOS>MOLECULE
guest-s21_vm2.mol2 : vm2 ligand conformer 18
          22          21           1
SMALL
USER_CHARGES
 
@<TRIPOS>ATOM
       1    C1      19.597668   19.273434   25.679110 C.2        1 MOL1         0.6145
       2    O1      19.419794   20.466951   25.823304 O.co2      1 MOL1        -0.6735
       3    O2      18.809855   18.426400   26.051617 O.co2      1 MOL1        -0.6735
       4    C2      20.891849   18.814688   25.012971 C.3        1 MOL1        -0.1985
       5    H1      21.066916   17.764063   25.274465 H          1 MOL1         0.0740
       6    H2      21.711770   19.392532   25.455538 H          1 MOL1         0.0740
       7    C3      20.904745   18.993472   23.472566 C.3        1 MOL1        -0.1882
       8    H3      20.708572   20.047468   23.235417 H          1 MOL1         0.0742
       9    H4      21.910426   18.764374   23.095222 H          1 MOL1         0.0742
      10    C4      19.873320   18.084259   22.762596 C.3        1 MOL1        -0.1880
      11    H5      18.856829   18.352878   23.081809 H          1 MOL1         0.0742
      12    H6      20.033317   17.045579   23.082570 H          1 MOL1         0.0742
      13    C5      19.960796   18.141852   21.219042 C.3        1 MOL1        -0.1880
      14    H7      20.974244   17.866139   20.896908 H          1 MOL1         0.0742
      15    H8      19.285326   17.381494   20.803728 H          1 MOL1         0.0742
      16    C6      19.584499   19.521087   20.632287 C.3        1 MOL1        -0.1856
      17    H9      20.295631   20.284491   20.974140 H          1 MOL1         0.0742
      18    H10     18.592354   19.820689   20.997192 H          1 MOL1         0.0742
      19    C7      19.577475   19.496857   19.090505 C.3        1 MOL1        -0.2871
      20    H11     20.566438   19.226426   18.697832 H          1 MOL1         0.0754
      21    H12     19.311691   20.483557   18.689451 H          1 MOL1         0.0754
      22    H13     18.847407   18.769522   18.711907 H          1 MOL1         0.0754
@<TRIPOS>BOND
    1     1     2    1
    2     1     3    2
    3     1     4    1
    4     4     5    1
    5     4     6    1
    6     4     7    1
    7     7     8    1
    8     7     9    1
    9     7    10    1
   10    10    11    1
   11    10    12    1
   12    10    13    1
   13    13    14    1
   14    13    15    1
   15    13    16    1
   16    16    17    1
   17    16    18    1
   18    16    19    1
   19    19    20    1
   20    19    21    1
   21    19    22    1
@<TRIPOS>SUBSTRUCTURE
       1 MOL1            1 RESIDUE      1      MOL     
@<SCITEGIC>MOL_PROPERTY
VM2 Rank
SciTegic.value.IntegerValue
18

@<SCITEGIC>MOL_PROPERTY
Conf_Id
SciTegic.value.IntegerValue
68

@<SCITEGIC>MOL_PROPERTY
Probability
SciTegic.value.DoubleValue
0.72

@<SCITEGIC>MOL_PROPERTY
Sum Probability
SciTegic.value.DoubleValue
93.17

@<SCITEGIC>MOL_PROPERTY
Delta G
SciTegic.value.DoubleValue
2.267

@<SCITEGIC>MOL_PROPERTY
G
SciTegic.value.DoubleValue
-14.731

@<SCITEGIC>MOL_PROPERTY
E
SciTegic.value.DoubleValue
-34.711

@<SCITEGIC>MOL_PROPERTY
-TS
SciTegic.value.DoubleValue
19.981

@<SCITEGIC>MOL_PROPERTY
U+W
SciTegic.value.DoubleValue
-52.596

@<SCITEGIC>MOL_PROPERTY
U
SciTegic.value.DoubleValue
8.925

@<SCITEGIC>MOL_PROPERTY
W
SciTegic.value.DoubleValue
-61.521

@<SCITEGIC>MOL_PROPERTY
W(PB)
SciTegic.value.DoubleValue
-63.790

@<SCITEGIC>MOL_PROPERTY
W(SA)
SciTegic.value.DoubleValue
2.269

@<SCITEGIC>MOL_PROPERTY
Valence
SciTegic.value.DoubleValue
7.881

@<SCITEGIC>MOL_PROPERTY
Coulomb
SciTegic.value.DoubleValue
0.349

@<SCITEGIC>MOL_PROPERTY
VdW
SciTegic.value.DoubleValue
0.695

@<SCITEGIC>MOL_PROPERTY
VdW6
SciTegic.value.DoubleValue
-8.049

@<SCITEGIC>MOL_PROPERTY
VdW12
SciTegic.value.DoubleValue
8.743

@<SCITEGIC>MOL_PROPERTY
Bond
SciTegic.value.DoubleValue
0.156

@<SCITEGIC>MOL_PROPERTY
Angle
SciTegic.value.DoubleValue
2.660

@<SCITEGIC>MOL_PROPERTY
Pdih
SciTegic.value.DoubleValue
5.065

@<SCITEGIC>MOL_PROPERTY
Idih
SciTegic.value.DoubleValue
0.001

@<SCITEGIC>MOL_PROPERTY
Tether
SciTegic.value.DoubleValue
0.000

@<TRIPOS>MOLECULE
guest-s21_vm2.mol2 : vm2 ligand conformer 19
          22          21           1
SMALL
USER_CHARGES
 
@<TRIPOS>ATOM
       1    C1      19.691748   19.357517   25.665780 C.2        1 MOL1         0.6145
       2    O1      19.512522   20.556131   25.576388 O.co2      1 MOL1        -0.6735
       3    O2      18.961672   18.613311   26.290363 O.co2      1 MOL1        -0.6735
       4    C2      20.911671   18.754760   24.974653 C.3        1 MOL1        -0.1985
       5    H1      21.397289   18.083796   25.692976 H          1 MOL1         0.0740
       6    H2      21.625246   19.559297   24.759164 H          1 MOL1         0.0740
       7    C3      20.579501   17.972095   23.677660 C.3        1 MOL1        -0.1882
       8    H3      21.486989   17.462550   23.326447 H          1 MOL1         0.0742
       9    H4      19.843922   17.187843   23.904520 H          1 MOL1         0.0742
      10    C4      20.041618   18.885718   22.553407 C.3        1 MOL1        -0.1880
      11    H5      20.775979   19.675832   22.349837 H          1 MOL1         0.0742
      12    H6      19.121507   19.383308   22.889428 H          1 MOL1         0.0742
      13    C5      19.752251   18.088821   21.260473 C.3        1 MOL1        -0.1880
      14    H7      20.680686   17.632531   20.890769 H          1 MOL1         0.0742
      15    H8      19.070777   17.260192   21.496870 H          1 MOL1         0.0742
      16    C6      19.115097   18.944134   20.140759 C.3        1 MOL1        -0.1856
      17    H9      18.182974   19.397599   20.505248 H          1 MOL1         0.0742
      18    H10     18.834222   18.283413   19.309034 H          1 MOL1         0.0742
      19    C7      20.053921   20.046512   19.604516 C.3        1 MOL1        -0.2871
      20    H11     21.005515   19.619789   19.261750 H          1 MOL1         0.0754
      21    H12     20.270354   20.797690   20.374361 H          1 MOL1         0.0754
      22    H13     19.590772   20.565378   18.755297 H          1 MOL1         0.0754
@<TRIPOS>BOND
    1     1     2    1
    2     1     3    2
    3     1     4    1
    4     4     5    1
    5     4     6    1
    6     4     7    1
    7     7     8    1
    8     7     9    1
    9     7    10    1
   10    10    11    1
   11    10    12    1
   12    10    13    1
   13    13    14    1
   14    13    15    1
   15    13    16    1
   16    16    17    1
   17    16    18    1
   18    16    19    1
   19    19    20    1
   20    19    21    1
   21    19    22    1
@<TRIPOS>SUBSTRUCTURE
       1 MOL1            1 RESIDUE      1      MOL     
@<SCITEGIC>MOL_PROPERTY
VM2 Rank
SciTegic.value.IntegerValue
19

@<SCITEGIC>MOL_PROPERTY
Conf_Id
SciTegic.value.IntegerValue
172

@<SCITEGIC>MOL_PROPERTY
Probability
SciTegic.value.DoubleValue
0.64

@<SCITEGIC>MOL_PROPERTY
Sum Probability
SciTegic.value.DoubleValue
93.81

@<SCITEGIC>MOL_PROPERTY
Delta G
SciTegic.value.DoubleValue
2.338

@<SCITEGIC>MOL_PROPERTY
G
SciTegic.value.DoubleValue
-14.660

@<SCITEGIC>MOL_PROPERTY
E
SciTegic.value.DoubleValue
-34.645

@<SCITEGIC>MOL_PROPERTY
-TS
SciTegic.value.DoubleValue
19.985

@<SCITEGIC>MOL_PROPERTY
U+W
SciTegic.value.DoubleValue
-52.530

@<SCITEGIC>MOL_PROPERTY
U
SciTegic.value.DoubleValue
9.110

@<SCITEGIC>MOL_PROPERTY
W
SciTegic.value.DoubleValue
-61.640

@<SCITEGIC>MOL_PROPERTY
W(PB)
SciTegic.value.DoubleValue
-63.919

@<SCITEGIC>MOL_PROPERTY
W(SA)
SciTegic.value.DoubleValue
2.279

@<SCITEGIC>MOL_PROPERTY
Valence
SciTegic.value.DoubleValue
7.861

@<SCITEGIC>MOL_PROPERTY
Coulomb
SciTegic.value.DoubleValue
0.529

@<SCITEGIC>MOL_PROPERTY
VdW
SciTegic.value.DoubleValue
0.720

@<SCITEGIC>MOL_PROPERTY
VdW6
SciTegic.value.DoubleValue
-7.989

@<SCITEGIC>MOL_PROPERTY
VdW12
SciTegic.value.DoubleValue
8.709

@<SCITEGIC>MOL_PROPERTY
Bond
SciTegic.value.DoubleValue
0.152

@<SCITEGIC>MOL_PROPERTY
Angle
SciTegic.value.DoubleValue
2.653

@<SCITEGIC>MOL_PROPERTY
Pdih
SciTegic.value.DoubleValue
5.056

@<SCITEGIC>MOL_PROPERTY
Idih
SciTegic.value.DoubleValue
0.001

@<SCITEGIC>MOL_PROPERTY
Tether
SciTegic.value.DoubleValue
0.000

@<TRIPOS>MOLECULE
guest-s21_vm2.mol2 : vm2 ligand conformer 20
          22          21           1
SMALL
USER_CHARGES
 
@<TRIPOS>ATOM
       1    C1      19.718817   18.857721   25.685010 C.2        1 MOL1         0.6145
       2    O1      18.910353   19.564508   26.254041 O.co2      1 MOL1        -0.6735
       3    O2      19.670058   17.643472   25.688163 O.co2      1 MOL1        -0.6735
       4    C2      20.869528   19.533778   24.944740 C.3        1 MOL1        -0.1985
       5    H1      21.666484   18.796681   24.788365 H          1 MOL1         0.0740
       6    H2      21.277120   20.306060   25.607656 H          1 MOL1         0.0740
       7    C3      20.460276   20.174720   23.593147 C.3        1 MOL1        -0.1882
       8    H3      19.643548   20.890167   23.762509 H          1 MOL1         0.0742
       9    H4      21.309004   20.750766   23.200269 H          1 MOL1         0.0742
      10    C4      20.028593   19.125278   22.544194 C.3        1 MOL1        -0.1880
      11    H5      19.166100   18.558543   22.921065 H          1 MOL1         0.0742
      12    H6      20.844656   18.405684   22.398483 H          1 MOL1         0.0742
      13    C5      19.660316   19.785287   21.195409 C.3        1 MOL1        -0.1880
      14    H7      18.892459   20.551182   21.370682 H          1 MOL1         0.0742
      15    H8      20.535638   20.309512   20.788132 H          1 MOL1         0.0742
      16    C6      19.123789   18.783288   20.146876 C.3        1 MOL1        -0.1856
      17    H9      18.776703   19.344449   19.268332 H          1 MOL1         0.0742
      18    H10     18.244536   18.261045   20.548761 H          1 MOL1         0.0742
      19    C7      20.178271   17.750947   19.692420 C.3        1 MOL1        -0.2871
      20    H11     19.777325   17.121908   18.887153 H          1 MOL1         0.0754
      21    H12     20.471265   17.088410   20.516418 H          1 MOL1         0.0754
      22    H13     21.079702   18.250433   19.314203 H          1 MOL1         0.0754
@<TRIPOS>BOND
    1     1     2    1
    2     1     3    2
    3     1     4    1
    4     4     5    1
    5     4     6    1
    6     4     7    1
    7     7     8    1
    8     7     9    1
    9     7    10    1
   10    10    11    1
   11    10    12    1
   12    10    13    1
   13    13    14    1
   14    13    15    1
   15    13    16    1
   16    16    17    1
   17    16    18    1
   18    16    19    1
   19    19    20    1
   20    19    21    1
   21    19    22    1
@<TRIPOS>SUBSTRUCTURE
       1 MOL1            1 RESIDUE      1      MOL     
@<SCITEGIC>MOL_PROPERTY
VM2 Rank
SciTegic.value.IntegerValue
20

@<SCITEGIC>MOL_PROPERTY
Conf_Id
SciTegic.value.IntegerValue
179

@<SCITEGIC>MOL_PROPERTY
Probability
SciTegic.value.DoubleValue
0.62

@<SCITEGIC>MOL_PROPERTY
Sum Probability
SciTegic.value.DoubleValue
94.43

@<SCITEGIC>MOL_PROPERTY
Delta G
SciTegic.value.DoubleValue
2.356

@<SCITEGIC>MOL_PROPERTY
G
SciTegic.value.DoubleValue
-14.642

@<SCITEGIC>MOL_PROPERTY
E
SciTegic.value.DoubleValue
-34.627

@<SCITEGIC>MOL_PROPERTY
-TS
SciTegic.value.DoubleValue
19.985

@<SCITEGIC>MOL_PROPERTY
U+W
SciTegic.value.DoubleValue
-52.512

@<SCITEGIC>MOL_PROPERTY
U
SciTegic.value.DoubleValue
9.110

@<SCITEGIC>MOL_PROPERTY
W
SciTegic.value.DoubleValue
-61.622

@<SCITEGIC>MOL_PROPERTY
W(PB)
SciTegic.value.DoubleValue
-63.906

@<SCITEGIC>MOL_PROPERTY
W(SA)
SciTegic.value.DoubleValue
2.285

@<SCITEGIC>MOL_PROPERTY
Valence
SciTegic.value.DoubleValue
7.861

@<SCITEGIC>MOL_PROPERTY
Coulomb
SciTegic.value.DoubleValue
0.529

@<SCITEGIC>MOL_PROPERTY
VdW
SciTegic.value.DoubleValue
0.720

@<SCITEGIC>MOL_PROPERTY
VdW6
SciTegic.value.DoubleValue
-7.989

@<SCITEGIC>MOL_PROPERTY
VdW12
SciTegic.value.DoubleValue
8.708

@<SCITEGIC>MOL_PROPERTY
Bond
SciTegic.value.DoubleValue
0.152

@<SCITEGIC>MOL_PROPERTY
Angle
SciTegic.value.DoubleValue
2.653

@<SCITEGIC>MOL_PROPERTY
Pdih
SciTegic.value.DoubleValue
5.056

@<SCITEGIC>MOL_PROPERTY
Idih
SciTegic.value.DoubleValue
0.001

@<SCITEGIC>MOL_PROPERTY
Tether
SciTegic.value.DoubleValue
0.000

@<TRIPOS>MOLECULE
guest-s21_vm2.mol2 : vm2 ligand conformer 21
          22          21           1
SMALL
USER_CHARGES
 
@<TRIPOS>ATOM
       1    C1      20.140582   18.986149   25.606271 C.2        1 MOL1         0.6145
       2    O1      20.649829   19.999946   26.041975 O.co2      1 MOL1        -0.6735
       3    O2      20.686840   17.900674   25.618099 O.co2      1 MOL1        -0.6735
       4    C2      18.728920   19.079537   25.033726 C.3        1 MOL1        -0.1985
       5    H1      18.127205   19.664615   25.739157 H          1 MOL1         0.0740
       6    H2      18.295116   18.072607   25.005389 H          1 MOL1         0.0740
       7    C3      18.659533   19.732076   23.628544 C.3        1 MOL1        -0.1882
       8    H3      17.605819   19.884880   23.358709 H          1 MOL1         0.0742
       9    H4      19.124129   20.727258   23.665917 H          1 MOL1         0.0742
      10    C4      19.345604   18.875319   22.540740 C.3        1 MOL1        -0.1880
      11    H5      18.884554   17.878625   22.513809 H          1 MOL1         0.0742
      12    H6      20.401620   18.731848   22.804588 H          1 MOL1         0.0742
      13    C5      19.238852   19.532575   21.145326 C.3        1 MOL1        -0.1880
      14    H7      18.181506   19.732175   20.923875 H          1 MOL1         0.0742
      15    H8      19.744107   20.508033   21.156301 H          1 MOL1         0.0742
      16    C6      19.822025   18.660938   20.008865 C.3        1 MOL1        -0.1856
      17    H9      19.600638   19.142388   19.046365 H          1 MOL1         0.0742
      18    H10     19.315603   17.685980   19.991873 H          1 MOL1         0.0742
      19    C7      21.347815   18.451785   20.120454 C.3        1 MOL1        -0.2871
      20    H11     21.873805   19.414127   20.168878 H          1 MOL1         0.0754
      21    H12     21.725035   17.903904   19.247284 H          1 MOL1         0.0754
      22    H13     21.608333   17.871429   21.014432 H          1 MOL1         0.0754
@<TRIPOS>BOND
    1     1     2    1
    2     1     3    2
    3     1     4    1
    4     4     5    1
    5     4     6    1
    6     4     7    1
    7     7     8    1
    8     7     9    1
    9     7    10    1
   10    10    11    1
   11    10    12    1
   12    10    13    1
   13    13    14    1
   14    13    15    1
   15    13    16    1
   16    16    17    1
   17    16    18    1
   18    16    19    1
   19    19    20    1
   20    19    21    1
   21    19    22    1
@<TRIPOS>SUBSTRUCTURE
       1 MOL1            1 RESIDUE      1      MOL     
@<SCITEGIC>MOL_PROPERTY
VM2 Rank
SciTegic.value.IntegerValue
21

@<SCITEGIC>MOL_PROPERTY
Conf_Id
SciTegic.value.IntegerValue
687

@<SCITEGIC>MOL_PROPERTY
Probability
SciTegic.value.DoubleValue
0.62

@<SCITEGIC>MOL_PROPERTY
Sum Probability
SciTegic.value.DoubleValue
95.05

@<SCITEGIC>MOL_PROPERTY
Delta G
SciTegic.value.DoubleValue
2.364

@<SCITEGIC>MOL_PROPERTY
G
SciTegic.value.DoubleValue
-14.634

@<SCITEGIC>MOL_PROPERTY
E
SciTegic.value.DoubleValue
-34.631

@<SCITEGIC>MOL_PROPERTY
-TS
SciTegic.value.DoubleValue
19.997

@<SCITEGIC>MOL_PROPERTY
U+W
SciTegic.value.DoubleValue
-52.516

@<SCITEGIC>MOL_PROPERTY
U
SciTegic.value.DoubleValue
9.377

@<SCITEGIC>MOL_PROPERTY
W
SciTegic.value.DoubleValue
-61.893

@<SCITEGIC>MOL_PROPERTY
W(PB)
SciTegic.value.DoubleValue
-64.194

@<SCITEGIC>MOL_PROPERTY
W(SA)
SciTegic.value.DoubleValue
2.301

@<SCITEGIC>MOL_PROPERTY
Valence
SciTegic.value.DoubleValue
7.860

@<SCITEGIC>MOL_PROPERTY
Coulomb
SciTegic.value.DoubleValue
0.810

@<SCITEGIC>MOL_PROPERTY
VdW
SciTegic.value.DoubleValue
0.706

@<SCITEGIC>MOL_PROPERTY
VdW6
SciTegic.value.DoubleValue
-8.020

@<SCITEGIC>MOL_PROPERTY
VdW12
SciTegic.value.DoubleValue
8.726

@<SCITEGIC>MOL_PROPERTY
Bond
SciTegic.value.DoubleValue
0.153

@<SCITEGIC>MOL_PROPERTY
Angle
SciTegic.value.DoubleValue
2.651

@<SCITEGIC>MOL_PROPERTY
Pdih
SciTegic.value.DoubleValue
5.056

@<SCITEGIC>MOL_PROPERTY
Idih
SciTegic.value.DoubleValue
0.001

@<SCITEGIC>MOL_PROPERTY
Tether
SciTegic.value.DoubleValue
0.000

@<TRIPOS>MOLECULE
guest-s21_vm2.mol2 : vm2 ligand conformer 22
          22          21           1
SMALL
USER_CHARGES
 
@<TRIPOS>ATOM
       1    C1      19.751640   19.150406   25.837364 C.2        1 MOL1         0.6145
       2    O1      19.799650   20.302752   26.220400 O.co2      1 MOL1        -0.6735
       3    O2      18.900254   18.359086   26.192074 O.co2      1 MOL1        -0.6735
       4    C2      20.831994   18.667253   24.873670 C.3        1 MOL1        -0.1985
       5    H1      20.857532   17.571026   24.896522 H          1 MOL1         0.0740
       6    H2      21.796255   19.015214   25.262455 H          1 MOL1         0.0740
       7    C3      20.650408   19.168185   23.417062 C.3        1 MOL1        -0.1882
       8    H3      20.586058   20.265115   23.414971 H          1 MOL1         0.0742
       9    H4      21.547436   18.901868   22.843842 H          1 MOL1         0.0742
      10    C4      19.397959   18.567715   22.734409 C.3        1 MOL1        -0.1880
      11    H5      18.512927   18.788781   23.346649 H          1 MOL1         0.0742
      12    H6      19.483762   17.473086   22.699379 H          1 MOL1         0.0742
      13    C5      19.151055   19.114507   21.308267 C.3        1 MOL1        -0.1880
      14    H7      18.180985   18.738596   20.955337 H          1 MOL1         0.0742
      15    H8      19.065296   20.209176   21.343795 H          1 MOL1         0.0742
      16    C6      20.244090   18.709734   20.293448 C.3        1 MOL1        -0.1856
      17    H9      20.367933   17.618020   20.297806 H          1 MOL1         0.0742
      18    H10     21.209902   19.143430   20.583846 H          1 MOL1         0.0742
      19    C7      19.892951   19.179362   18.867304 C.3        1 MOL1        -0.2871
      20    H11     18.949116   18.733210   18.527479 H          1 MOL1         0.0754
      21    H12     20.679610   18.887645   18.159397 H          1 MOL1         0.0754
      22    H13     19.789716   20.271698   18.828195 H          1 MOL1         0.0754
@<TRIPOS>BOND
    1     1     2    1
    2     1     3    2
    3     1     4    1
    4     4     5    1
    5     4     6    1
    6     4     7    1
    7     7     8    1
    8     7     9    1
    9     7    10    1
   10    10    11    1
   11    10    12    1
   12    10    13    1
   13    13    14    1
   14    13    15    1
   15    13    16    1
   16    16    17    1
   17    16    18    1
   18    16    19    1
   19    19    20    1
   20    19    21    1
   21    19    22    1
@<TRIPOS>SUBSTRUCTURE
       1 MOL1            1 RESIDUE      1      MOL     
@<SCITEGIC>MOL_PROPERTY
VM2 Rank
SciTegic.value.IntegerValue
22

@<SCITEGIC>MOL_PROPERTY
Conf_Id
SciTegic.value.IntegerValue
688

@<SCITEGIC>MOL_PROPERTY
Probability
SciTegic.value.DoubleValue
0.60

@<SCITEGIC>MOL_PROPERTY
Sum Probability
SciTegic.value.DoubleValue
95.65

@<SCITEGIC>MOL_PROPERTY
Delta G
SciTegic.value.DoubleValue
2.379

@<SCITEGIC>MOL_PROPERTY
G
SciTegic.value.DoubleValue
-14.619

@<SCITEGIC>MOL_PROPERTY
E
SciTegic.value.DoubleValue
-34.607

@<SCITEGIC>MOL_PROPERTY
-TS
SciTegic.value.DoubleValue
19.988

@<SCITEGIC>MOL_PROPERTY
U+W
SciTegic.value.DoubleValue
-52.492

@<SCITEGIC>MOL_PROPERTY
U
SciTegic.value.DoubleValue
8.586

@<SCITEGIC>MOL_PROPERTY
W
SciTegic.value.DoubleValue
-61.078

@<SCITEGIC>MOL_PROPERTY
W(PB)
SciTegic.value.DoubleValue
-63.354

@<SCITEGIC>MOL_PROPERTY
W(SA)
SciTegic.value.DoubleValue
2.276

@<SCITEGIC>MOL_PROPERTY
Valence
SciTegic.value.DoubleValue
7.933

@<SCITEGIC>MOL_PROPERTY
Coulomb
SciTegic.value.DoubleValue
-0.125

@<SCITEGIC>MOL_PROPERTY
VdW
SciTegic.value.DoubleValue
0.778

@<SCITEGIC>MOL_PROPERTY
VdW6
SciTegic.value.DoubleValue
-7.981

@<SCITEGIC>MOL_PROPERTY
VdW12
SciTegic.value.DoubleValue
8.759

@<SCITEGIC>MOL_PROPERTY
Bond
SciTegic.value.DoubleValue
0.160

@<SCITEGIC>MOL_PROPERTY
Angle
SciTegic.value.DoubleValue
2.698

@<SCITEGIC>MOL_PROPERTY
Pdih
SciTegic.value.DoubleValue
5.074

@<SCITEGIC>MOL_PROPERTY
Idih
SciTegic.value.DoubleValue
0.000

@<SCITEGIC>MOL_PROPERTY
Tether
SciTegic.value.DoubleValue
0.000

@<TRIPOS>MOLECULE
guest-s21_vm2.mol2 : vm2 ligand conformer 23
          22          21           1
SMALL
USER_CHARGES
 
@<TRIPOS>ATOM
       1    C1      19.616159   18.931975   25.692262 C.2        1 MOL1         0.6145
       2    O1      18.740214   19.715272   26.002171 O.co2      1 MOL1        -0.6735
       3    O2      19.567214   17.740793   25.928060 O.co2      1 MOL1        -0.6735
       4    C2      20.856154   19.475081   24.987602 C.3        1 MOL1        -0.1985
       5    H1      21.731694   19.024375   25.469610 H          1 MOL1         0.0740
       6    H2      20.916047   20.555341   25.167297 H          1 MOL1         0.0740
       7    C3      20.894504   19.181517   23.465325 C.3        1 MOL1        -0.1882
       8    H3      21.871225   19.487986   23.067382 H          1 MOL1         0.0742
       9    H4      20.813854   18.097510   23.310228 H          1 MOL1         0.0742
      10    C4      19.774137   19.917546   22.692279 C.3        1 MOL1        -0.1880
      11    H5      19.820067   20.988790   22.931370 H          1 MOL1         0.0742
      12    H6      18.791167   19.566210   23.035261 H          1 MOL1         0.0742
      13    C5      19.873663   19.752064   21.157275 C.3        1 MOL1        -0.1880
      14    H7      19.121888   20.401259   20.687946 H          1 MOL1         0.0742
      15    H8      20.852807   20.110006   20.810839 H          1 MOL1         0.0742
      16    C6      19.650643   18.299571   20.679059 C.3        1 MOL1        -0.1856
      17    H9      18.695110   17.923476   21.069923 H          1 MOL1         0.0742
      18    H10     20.438543   17.645611   21.075175 H          1 MOL1         0.0742
      19    C7      19.647313   18.205181   19.139966 C.3        1 MOL1        -0.2871
      20    H11     19.491124   17.167867   18.816481 H          1 MOL1         0.0754
      21    H12     20.602929   18.549927   18.723649 H          1 MOL1         0.0754
      22    H13     18.844610   18.818523   18.710048 H          1 MOL1         0.0754
@<TRIPOS>BOND
    1     1     2    1
    2     1     3    2
    3     1     4    1
    4     4     5    1
    5     4     6    1
    6     4     7    1
    7     7     8    1
    8     7     9    1
    9     7    10    1
   10    10    11    1
   11    10    12    1
   12    10    13    1
   13    13    14    1
   14    13    15    1
   15    13    16    1
   16    16    17    1
   17    16    18    1
   18    16    19    1
   19    19    20    1
   20    19    21    1
   21    19    22    1
@<TRIPOS>SUBSTRUCTURE
       1 MOL1            1 RESIDUE      1      MOL     
@<SCITEGIC>MOL_PROPERTY
VM2 Rank
SciTegic.value.IntegerValue
23

@<SCITEGIC>MOL_PROPERTY
Conf_Id
SciTegic.value.IntegerValue
116

@<SCITEGIC>MOL_PROPERTY
Probability
SciTegic.value.DoubleValue
0.59

@<SCITEGIC>MOL_PROPERTY
Sum Probability
SciTegic.value.DoubleValue
96.24

@<SCITEGIC>MOL_PROPERTY
Delta G
SciTegic.value.DoubleValue
2.388

@<SCITEGIC>MOL_PROPERTY
G
SciTegic.value.DoubleValue
-14.610

@<SCITEGIC>MOL_PROPERTY
E
SciTegic.value.DoubleValue
-34.590

@<SCITEGIC>MOL_PROPERTY
-TS
SciTegic.value.DoubleValue
19.980

@<SCITEGIC>MOL_PROPERTY
U+W
SciTegic.value.DoubleValue
-52.475

@<SCITEGIC>MOL_PROPERTY
U
SciTegic.value.DoubleValue
8.925

@<SCITEGIC>MOL_PROPERTY
W
SciTegic.value.DoubleValue
-61.400

@<SCITEGIC>MOL_PROPERTY
W(PB)
SciTegic.value.DoubleValue
-63.682

@<SCITEGIC>MOL_PROPERTY
W(SA)
SciTegic.value.DoubleValue
2.282

@<SCITEGIC>MOL_PROPERTY
Valence
SciTegic.value.DoubleValue
7.881

@<SCITEGIC>MOL_PROPERTY
Coulomb
SciTegic.value.DoubleValue
0.348

@<SCITEGIC>MOL_PROPERTY
VdW
SciTegic.value.DoubleValue
0.695

@<SCITEGIC>MOL_PROPERTY
VdW6
SciTegic.value.DoubleValue
-8.049

@<SCITEGIC>MOL_PROPERTY
VdW12
SciTegic.value.DoubleValue
8.743

@<SCITEGIC>MOL_PROPERTY
Bond
SciTegic.value.DoubleValue
0.156

@<SCITEGIC>MOL_PROPERTY
Angle
SciTegic.value.DoubleValue
2.660

@<SCITEGIC>MOL_PROPERTY
Pdih
SciTegic.value.DoubleValue
5.065

@<SCITEGIC>MOL_PROPERTY
Idih
SciTegic.value.DoubleValue
0.001

@<SCITEGIC>MOL_PROPERTY
Tether
SciTegic.value.DoubleValue
0.000

@<TRIPOS>MOLECULE
guest-s21_vm2.mol2 : vm2 ligand conformer 24
          22          21           1
SMALL
USER_CHARGES
 
@<TRIPOS>ATOM
       1    C1      20.125216   19.269632   25.595457 C.2        1 MOL1         0.6145
       2    O1      20.551343   20.405331   25.522003 O.co2      1 MOL1        -0.6735
       3    O2      20.738835   18.352889   26.105367 O.co2      1 MOL1        -0.6735
       4    C2      18.734256   18.981238   25.037450 C.3        1 MOL1        -0.1985
       5    H1      18.194629   19.930447   24.934006 H          1 MOL1         0.0740
       6    H2      18.196105   18.390366   25.787967 H          1 MOL1         0.0740
       7    C3      18.741492   18.219565   23.686542 C.3        1 MOL1        -0.1882
       8    H3      19.310538   17.286071   23.797938 H          1 MOL1         0.0742
       9    H4      17.711533   17.933846   23.433519 H          1 MOL1         0.0742
      10    C4      19.335672   19.059665   22.533622 C.3        1 MOL1        -0.1880
      11    H5      20.368958   19.335923   22.781359 H          1 MOL1         0.0742
      12    H6      18.769938   19.995835   22.432512 H          1 MOL1         0.0742
      13    C5      19.306186   18.290012   21.192980 C.3        1 MOL1        -0.1880
      14    H7      19.913664   17.378455   21.276377 H          1 MOL1         0.0742
      15    H8      18.277460   17.961187   20.991840 H          1 MOL1         0.0742
      16    C6      19.796600   19.130024   19.990791 C.3        1 MOL1        -0.1856
      17    H9      19.187935   20.040418   19.901338 H          1 MOL1         0.0742
      18    H10     19.632536   18.555271   19.068860 H          1 MOL1         0.0742
      19    C7      21.290399   19.510646   20.079787 C.3        1 MOL1        -0.2871
      20    H11     21.609940   20.027536   19.165670 H          1 MOL1         0.0754
      21    H12     21.917022   18.617289   20.199663 H          1 MOL1         0.0754
      22    H13     21.482942   20.182528   20.925590 H          1 MOL1         0.0754
@<TRIPOS>BOND
    1     1     2    1
    2     1     3    2
    3     1     4    1
    4     4     5    1
    5     4     6    1
    6     4     7    1
    7     7     8    1
    8     7     9    1
    9     7    10    1
   10    10    11    1
   11    10    12    1
   12    10    13    1
   13    13    14    1
   14    13    15    1
   15    13    16    1
   16    16    17    1
   17    16    18    1
   18    16    19    1
   19    19    20    1
   20    19    21    1
   21    19    22    1
@<TRIPOS>SUBSTRUCTURE
       1 MOL1            1 RESIDUE      1      MOL     
@<SCITEGIC>MOL_PROPERTY
VM2 Rank
SciTegic.value.IntegerValue
24

@<SCITEGIC>MOL_PROPERTY
Conf_Id
SciTegic.value.IntegerValue
565

@<SCITEGIC>MOL_PROPERTY
Probability
SciTegic.value.DoubleValue
0.59

@<SCITEGIC>MOL_PROPERTY
Sum Probability
SciTegic.value.DoubleValue
96.83

@<SCITEGIC>MOL_PROPERTY
Delta G
SciTegic.value.DoubleValue
2.389

@<SCITEGIC>MOL_PROPERTY
G
SciTegic.value.DoubleValue
-14.609

@<SCITEGIC>MOL_PROPERTY
E
SciTegic.value.DoubleValue
-34.606

@<SCITEGIC>MOL_PROPERTY
-TS
SciTegic.value.DoubleValue
19.997

@<SCITEGIC>MOL_PROPERTY
U+W
SciTegic.value.DoubleValue
-52.491

@<SCITEGIC>MOL_PROPERTY
U
SciTegic.value.DoubleValue
9.376

@<SCITEGIC>MOL_PROPERTY
W
SciTegic.value.DoubleValue
-61.867

@<SCITEGIC>MOL_PROPERTY
W(PB)
SciTegic.value.DoubleValue
-64.155

@<SCITEGIC>MOL_PROPERTY
W(SA)
SciTegic.value.DoubleValue
2.288

@<SCITEGIC>MOL_PROPERTY
Valence
SciTegic.value.DoubleValue
7.861

@<SCITEGIC>MOL_PROPERTY
Coulomb
SciTegic.value.DoubleValue
0.810

@<SCITEGIC>MOL_PROPERTY
VdW
SciTegic.value.DoubleValue
0.706

@<SCITEGIC>MOL_PROPERTY
VdW6
SciTegic.value.DoubleValue
-8.019

@<SCITEGIC>MOL_PROPERTY
VdW12
SciTegic.value.DoubleValue
8.725

@<SCITEGIC>MOL_PROPERTY
Bond
SciTegic.value.DoubleValue
0.153

@<SCITEGIC>MOL_PROPERTY
Angle
SciTegic.value.DoubleValue
2.651

@<SCITEGIC>MOL_PROPERTY
Pdih
SciTegic.value.DoubleValue
5.056

@<SCITEGIC>MOL_PROPERTY
Idih
SciTegic.value.DoubleValue
0.001

@<SCITEGIC>MOL_PROPERTY
Tether
SciTegic.value.DoubleValue
0.000

@<TRIPOS>MOLECULE
guest-s21_vm2.mol2 : vm2 ligand conformer 25
          22          21           1
SMALL
USER_CHARGES
 
@<TRIPOS>ATOM
       1    C1      19.755317   19.082679   25.839992 C.2        1 MOL1         0.6145
       2    O1      18.822076   19.802397   26.136523 O.co2      1 MOL1        -0.6735
       3    O2      19.925726   17.974992   26.310006 O.co2      1 MOL1        -0.6735
       4    C2      20.781281   19.604273   24.837673 C.3        1 MOL1        -0.1985
       5    H1      21.775815   19.393082   25.247953 H          1 MOL1         0.0740
       6    H2      20.688392   20.695379   24.776443 H          1 MOL1         0.0740
       7    C3      20.660804   18.976685   23.424439 C.3        1 MOL1        -0.1882
       8    H3      21.526171   19.293660   22.828763 H          1 MOL1         0.0742
       9    H4      20.715292   17.882294   23.506539 H          1 MOL1         0.0742
      10    C4      19.353633   19.384400   22.703136 C.3        1 MOL1        -0.1880
      11    H5      19.320702   20.476013   22.584396 H          1 MOL1         0.0742
      12    H6      18.495154   19.116248   23.334085 H          1 MOL1         0.0742
      13    C5      19.173270   18.706994   21.323858 C.3        1 MOL1        -0.1880
      14    H7      19.206560   17.615387   21.443038 H          1 MOL1         0.0742
      15    H8      18.169608   18.947535   20.947417 H          1 MOL1         0.0742
      16    C6      20.220094   19.149405   20.276550 C.3        1 MOL1        -0.1856
      17    H9      21.226054   18.846420   20.595077 H          1 MOL1         0.0742
      18    H10     20.224774   20.245251   20.197190 H          1 MOL1         0.0742
      19    C7      19.927799   18.537174   18.891823 C.3        1 MOL1        -0.2871
      20    H11     19.943904   17.440300   18.936465 H          1 MOL1         0.0754
      21    H12     20.681013   18.857780   18.160424 H          1 MOL1         0.0754
      22    H13     18.942499   18.851054   18.523012 H          1 MOL1         0.0754
@<TRIPOS>BOND
    1     1     2    1
    2     1     3    2
    3     1     4    1
    4     4     5    1
    5     4     6    1
    6     4     7    1
    7     7     8    1
    8     7     9    1
    9     7    10    1
   10    10    11    1
   11    10    12    1
   12    10    13    1
   13    13    14    1
   14    13    15    1
   15    13    16    1
   16    16    17    1
   17    16    18    1
   18    16    19    1
   19    19    20    1
   20    19    21    1
   21    19    22    1
@<TRIPOS>SUBSTRUCTURE
       1 MOL1            1 RESIDUE      1      MOL     
@<SCITEGIC>MOL_PROPERTY
VM2 Rank
SciTegic.value.IntegerValue
25

@<SCITEGIC>MOL_PROPERTY
Conf_Id
SciTegic.value.IntegerValue
635

@<SCITEGIC>MOL_PROPERTY
Probability
SciTegic.value.DoubleValue
0.58

@<SCITEGIC>MOL_PROPERTY
Sum Probability
SciTegic.value.DoubleValue
97.41

@<SCITEGIC>MOL_PROPERTY
Delta G
SciTegic.value.DoubleValue
2.400

@<SCITEGIC>MOL_PROPERTY
G
SciTegic.value.DoubleValue
-14.598

@<SCITEGIC>MOL_PROPERTY
E
SciTegic.value.DoubleValue
-34.586

@<SCITEGIC>MOL_PROPERTY
-TS
SciTegic.value.DoubleValue
19.988

@<SCITEGIC>MOL_PROPERTY
U+W
SciTegic.value.DoubleValue
-52.471

@<SCITEGIC>MOL_PROPERTY
U
SciTegic.value.DoubleValue
8.586

@<SCITEGIC>MOL_PROPERTY
W
SciTegic.value.DoubleValue
-61.057

@<SCITEGIC>MOL_PROPERTY
W(PB)
SciTegic.value.DoubleValue
-63.353

@<SCITEGIC>MOL_PROPERTY
W(SA)
SciTegic.value.DoubleValue
2.296

@<SCITEGIC>MOL_PROPERTY
Valence
SciTegic.value.DoubleValue
7.933

@<SCITEGIC>MOL_PROPERTY
Coulomb
SciTegic.value.DoubleValue
-0.125

@<SCITEGIC>MOL_PROPERTY
VdW
SciTegic.value.DoubleValue
0.778

@<SCITEGIC>MOL_PROPERTY
VdW6
SciTegic.value.DoubleValue
-7.981

@<SCITEGIC>MOL_PROPERTY
VdW12
SciTegic.value.DoubleValue
8.759

@<SCITEGIC>MOL_PROPERTY
Bond
SciTegic.value.DoubleValue
0.160

@<SCITEGIC>MOL_PROPERTY
Angle
SciTegic.value.DoubleValue
2.698

@<SCITEGIC>MOL_PROPERTY
Pdih
SciTegic.value.DoubleValue
5.074

@<SCITEGIC>MOL_PROPERTY
Idih
SciTegic.value.DoubleValue
0.000

@<SCITEGIC>MOL_PROPERTY
Tether
SciTegic.value.DoubleValue
0.000

@<TRIPOS>MOLECULE
guest-s21_vm2.mol2 : vm2 ligand conformer 26
          22          21           1
SMALL
USER_CHARGES
 
@<TRIPOS>ATOM
       1    C1      19.975322   19.420291   25.448757 C.2        1 MOL1         0.6145
       2    O1      20.406455   20.498631   25.090989 O.co2      1 MOL1        -0.6735
       3    O2      19.159921   19.284614   26.339829 O.co2      1 MOL1        -0.6735
       4    C2      20.506723   18.164566   24.763231 C.3        1 MOL1        -0.1985
       5    H1      20.826153   17.473562   25.552022 H          1 MOL1         0.0740
       6    H2      21.408208   18.427431   24.198216 H          1 MOL1         0.0740
       7    C3      19.472285   17.454930   23.847252 C.3        1 MOL1        -0.1882
       8    H3      19.916837   16.532909   23.448992 H          1 MOL1         0.0742
       9    H4      18.614920   17.143295   24.459751 H          1 MOL1         0.0742
      10    C4      18.956375   18.321013   22.671927 C.3        1 MOL1        -0.1880
      11    H5      18.467787   19.224071   23.063113 H          1 MOL1         0.0742
      12    H6      18.179869   17.755853   22.138610 H          1 MOL1         0.0742
      13    C5      20.063992   18.723221   21.671268 C.3        1 MOL1        -0.1880
      14    H7      20.801403   19.365459   22.170886 H          1 MOL1         0.0742
      15    H8      20.596263   17.824909   21.330084 H          1 MOL1         0.0742
      16    C6      19.486351   19.473986   20.453051 C.3        1 MOL1        -0.1856
      17    H9      18.953948   20.373509   20.792074 H          1 MOL1         0.0742
      18    H10     18.749122   18.839819   19.941500 H          1 MOL1         0.0742
      19    C7      20.592576   19.877748   19.457695 C.3        1 MOL1        -0.2871
      20    H11     21.327475   20.539302   19.934874 H          1 MOL1         0.0754
      21    H12     20.164476   20.410389   18.598587 H          1 MOL1         0.0754
      22    H13     21.122001   18.993601   19.079079 H          1 MOL1         0.0754
@<TRIPOS>BOND
    1     1     2    1
    2     1     3    2
    3     1     4    1
    4     4     5    1
    5     4     6    1
    6     4     7    1
    7     7     8    1
    8     7     9    1
    9     7    10    1
   10    10    11    1
   11    10    12    1
   12    10    13    1
   13    13    14    1
   14    13    15    1
   15    13    16    1
   16    16    17    1
   17    16    18    1
   18    16    19    1
   19    19    20    1
   20    19    21    1
   21    19    22    1
@<TRIPOS>SUBSTRUCTURE
       1 MOL1            1 RESIDUE      1      MOL     
@<SCITEGIC>MOL_PROPERTY
VM2 Rank
SciTegic.value.IntegerValue
26

@<SCITEGIC>MOL_PROPERTY
Conf_Id
SciTegic.value.IntegerValue
107

@<SCITEGIC>MOL_PROPERTY
Probability
SciTegic.value.DoubleValue
0.40

@<SCITEGIC>MOL_PROPERTY
Sum Probability
SciTegic.value.DoubleValue
97.81

@<SCITEGIC>MOL_PROPERTY
Delta G
SciTegic.value.DoubleValue
2.614

@<SCITEGIC>MOL_PROPERTY
G
SciTegic.value.DoubleValue
-14.384

@<SCITEGIC>MOL_PROPERTY
E
SciTegic.value.DoubleValue
-34.411

@<SCITEGIC>MOL_PROPERTY
-TS
SciTegic.value.DoubleValue
20.027

@<SCITEGIC>MOL_PROPERTY
U+W
SciTegic.value.DoubleValue
-52.296

@<SCITEGIC>MOL_PROPERTY
U
SciTegic.value.DoubleValue
9.624

@<SCITEGIC>MOL_PROPERTY
W
SciTegic.value.DoubleValue
-61.920

@<SCITEGIC>MOL_PROPERTY
W(PB)
SciTegic.value.DoubleValue
-64.195

@<SCITEGIC>MOL_PROPERTY
W(SA)
SciTegic.value.DoubleValue
2.275

@<SCITEGIC>MOL_PROPERTY
Valence
SciTegic.value.DoubleValue
7.870

@<SCITEGIC>MOL_PROPERTY
Coulomb
SciTegic.value.DoubleValue
1.265

@<SCITEGIC>MOL_PROPERTY
VdW
SciTegic.value.DoubleValue
0.489

@<SCITEGIC>MOL_PROPERTY
VdW6
SciTegic.value.DoubleValue
-8.390

@<SCITEGIC>MOL_PROPERTY
VdW12
SciTegic.value.DoubleValue
8.879

@<SCITEGIC>MOL_PROPERTY
Bond
SciTegic.value.DoubleValue
0.170

@<SCITEGIC>MOL_PROPERTY
Angle
SciTegic.value.DoubleValue
2.768

@<SCITEGIC>MOL_PROPERTY
Pdih
SciTegic.value.DoubleValue
4.931

@<SCITEGIC>MOL_PROPERTY
Idih
SciTegic.value.DoubleValue
0.001

@<SCITEGIC>MOL_PROPERTY
Tether
SciTegic.value.DoubleValue
0.000

@<TRIPOS>MOLECULE
guest-s21_vm2.mol2 : vm2 ligand conformer 27
          22          21           1
SMALL
USER_CHARGES
 
@<TRIPOS>ATOM
       1    C1      20.096689   19.334268   25.452462 C.2        1 MOL1         0.6145
       2    O1      20.984669   20.088804   25.107704 O.co2      1 MOL1        -0.6735
       3    O2      20.204666   18.543861   26.369466 O.co2      1 MOL1        -0.6735
       4    C2      18.762809   19.400646   24.713858 C.3        1 MOL1        -0.1985
       5    H1      18.734099   20.322854   24.122484 H          1 MOL1         0.0740
       6    H2      17.975723   19.493798   25.471179 H          1 MOL1         0.0740
       7    C3      18.470225   18.165318   23.818859 C.3        1 MOL1        -0.1882
       8    H3      18.436776   17.269797   24.454681 H          1 MOL1         0.0742
       9    H4      17.468783   18.268015   23.379627 H          1 MOL1         0.0742
      10    C4      19.501863   17.934774   22.687388 C.3        1 MOL1        -0.1880
      11    H5      19.245970   17.000670   22.168964 H          1 MOL1         0.0742
      12    H6      20.500299   17.784337   23.120695 H          1 MOL1         0.0742
      13    C5      19.552332   19.085790   21.656596 C.3        1 MOL1        -0.1880
      14    H7      18.542041   19.280265   21.271659 H          1 MOL1         0.0742
      15    H8      19.895033   20.007741   22.144884 H          1 MOL1         0.0742
      16    C6      20.497336   18.757632   20.481583 C.3        1 MOL1        -0.1856
      17    H9      20.162695   17.838150   19.981653 H          1 MOL1         0.0742
      18    H10     21.508918   18.563476   20.864384 H          1 MOL1         0.0742
      19    C7      20.549410   19.907907   19.456085 C.3        1 MOL1        -0.2871
      20    H11     19.554808   20.103268   19.034237 H          1 MOL1         0.0754
      21    H12     21.225730   19.657990   18.628331 H          1 MOL1         0.0754
      22    H13     20.911921   20.833370   19.922492 H          1 MOL1         0.0754
@<TRIPOS>BOND
    1     1     2    1
    2     1     3    2
    3     1     4    1
    4     4     5    1
    5     4     6    1
    6     4     7    1
    7     7     8    1
    8     7     9    1
    9     7    10    1
   10    10    11    1
   11    10    12    1
   12    10    13    1
   13    13    14    1
   14    13    15    1
   15    13    16    1
   16    16    17    1
   17    16    18    1
   18    16    19    1
   19    19    20    1
   20    19    21    1
   21    19    22    1
@<TRIPOS>SUBSTRUCTURE
       1 MOL1            1 RESIDUE      1      MOL     
@<SCITEGIC>MOL_PROPERTY
VM2 Rank
SciTegic.value.IntegerValue
27

@<SCITEGIC>MOL_PROPERTY
Conf_Id
SciTegic.value.IntegerValue
480

@<SCITEGIC>MOL_PROPERTY
Probability
SciTegic.value.DoubleValue
0.40

@<SCITEGIC>MOL_PROPERTY
Sum Probability
SciTegic.value.DoubleValue
98.21

@<SCITEGIC>MOL_PROPERTY
Delta G
SciTegic.value.DoubleValue
2.624

@<SCITEGIC>MOL_PROPERTY
G
SciTegic.value.DoubleValue
-14.375

@<SCITEGIC>MOL_PROPERTY
E
SciTegic.value.DoubleValue
-34.402

@<SCITEGIC>MOL_PROPERTY
-TS
SciTegic.value.DoubleValue
20.027

@<SCITEGIC>MOL_PROPERTY
U+W
SciTegic.value.DoubleValue
-52.287

@<SCITEGIC>MOL_PROPERTY
U
SciTegic.value.DoubleValue
9.624

@<SCITEGIC>MOL_PROPERTY
W
SciTegic.value.DoubleValue
-61.910

@<SCITEGIC>MOL_PROPERTY
W(PB)
SciTegic.value.DoubleValue
-64.184

@<SCITEGIC>MOL_PROPERTY
W(SA)
SciTegic.value.DoubleValue
2.274

@<SCITEGIC>MOL_PROPERTY
Valence
SciTegic.value.DoubleValue
7.870

@<SCITEGIC>MOL_PROPERTY
Coulomb
SciTegic.value.DoubleValue
1.265

@<SCITEGIC>MOL_PROPERTY
VdW
SciTegic.value.DoubleValue
0.489

@<SCITEGIC>MOL_PROPERTY
VdW6
SciTegic.value.DoubleValue
-8.389

@<SCITEGIC>MOL_PROPERTY
VdW12
SciTegic.value.DoubleValue
8.878

@<SCITEGIC>MOL_PROPERTY
Bond
SciTegic.value.DoubleValue
0.170

@<SCITEGIC>MOL_PROPERTY
Angle
SciTegic.value.DoubleValue
2.768

@<SCITEGIC>MOL_PROPERTY
Pdih
SciTegic.value.DoubleValue
4.931

@<SCITEGIC>MOL_PROPERTY
Idih
SciTegic.value.DoubleValue
0.001

@<SCITEGIC>MOL_PROPERTY
Tether
SciTegic.value.DoubleValue
0.000

@<TRIPOS>MOLECULE
guest-s21_vm2.mol2 : vm2 ligand conformer 28
          22          21           1
SMALL
USER_CHARGES
 
@<TRIPOS>ATOM
       1    C1      19.940932   18.867180   25.681197 C.2        1 MOL1         0.6145
       2    O1      19.859671   19.708194   26.554576 O.co2      1 MOL1        -0.6735
       3    O2      20.577554   17.838453   25.795248 O.co2      1 MOL1        -0.6735
       4    C2      19.220178   19.126363   24.363141 C.3        1 MOL1        -0.1985
       5    H1      18.311262   19.700564   24.578538 H          1 MOL1         0.0740
       6    H2      18.905514   18.157614   23.958738 H          1 MOL1         0.0740
       7    C3      20.100980   19.884274   23.336392 C.3        1 MOL1        -0.1882
       8    H3      20.467045   20.810227   23.800831 H          1 MOL1         0.0742
       9    H4      20.993134   19.287032   23.105763 H          1 MOL1         0.0742
      10    C4      19.352249   20.249467   22.030078 C.3        1 MOL1        -0.1880
      11    H5      20.026646   20.826408   21.383705 H          1 MOL1         0.0742
      12    H6      18.523197   20.927310   22.274513 H          1 MOL1         0.0742
      13    C5      18.787100   19.043838   21.233691 C.3        1 MOL1        -0.1880
      14    H7      17.992543   18.562165   21.818432 H          1 MOL1         0.0742
      15    H8      18.298568   19.422511   20.325678 H          1 MOL1         0.0742
      16    C6      19.830848   17.974004   20.828753 C.3        1 MOL1        -0.1856
      17    H9      19.313480   17.163201   20.297868 H          1 MOL1         0.0742
      18    H10     20.271705   17.517463   21.724978 H          1 MOL1         0.0742
      19    C7      20.950488   18.527228   19.920923 C.3        1 MOL1        -0.2871
      20    H11     21.562973   19.268007   20.450135 H          1 MOL1         0.0754
      21    H12     20.530664   19.003319   19.025356 H          1 MOL1         0.0754
      22    H13     21.615507   17.717498   19.594067 H          1 MOL1         0.0754
@<TRIPOS>BOND
    1     1     2    1
    2     1     3    2
    3     1     4    1
    4     4     5    1
    5     4     6    1
    6     4     7    1
    7     7     8    1
    8     7     9    1
    9     7    10    1
   10    10    11    1
   11    10    12    1
   12    10    13    1
   13    13    14    1
   14    13    15    1
   15    13    16    1
   16    16    17    1
   17    16    18    1
   18    16    19    1
   19    19    20    1
   20    19    21    1
   21    19    22    1
@<TRIPOS>SUBSTRUCTURE
       1 MOL1            1 RESIDUE      1      MOL     
@<SCITEGIC>MOL_PROPERTY
VM2 Rank
SciTegic.value.IntegerValue
28

@<SCITEGIC>MOL_PROPERTY
Conf_Id
SciTegic.value.IntegerValue
281

@<SCITEGIC>MOL_PROPERTY
Probability
SciTegic.value.DoubleValue
0.25

@<SCITEGIC>MOL_PROPERTY
Sum Probability
SciTegic.value.DoubleValue
98.47

@<SCITEGIC>MOL_PROPERTY
Delta G
SciTegic.value.DoubleValue
2.891

@<SCITEGIC>MOL_PROPERTY
G
SciTegic.value.DoubleValue
-14.107

@<SCITEGIC>MOL_PROPERTY
E
SciTegic.value.DoubleValue
-34.423

@<SCITEGIC>MOL_PROPERTY
-TS
SciTegic.value.DoubleValue
20.316

@<SCITEGIC>MOL_PROPERTY
U+W
SciTegic.value.DoubleValue
-52.307

@<SCITEGIC>MOL_PROPERTY
U
SciTegic.value.DoubleValue
8.874

@<SCITEGIC>MOL_PROPERTY
W
SciTegic.value.DoubleValue
-61.182

@<SCITEGIC>MOL_PROPERTY
W(PB)
SciTegic.value.DoubleValue
-63.414

@<SCITEGIC>MOL_PROPERTY
W(SA)
SciTegic.value.DoubleValue
2.232

@<SCITEGIC>MOL_PROPERTY
Valence
SciTegic.value.DoubleValue
8.479

@<SCITEGIC>MOL_PROPERTY
Coulomb
SciTegic.value.DoubleValue
-0.357

@<SCITEGIC>MOL_PROPERTY
VdW
SciTegic.value.DoubleValue
0.753

@<SCITEGIC>MOL_PROPERTY
VdW6
SciTegic.value.DoubleValue
-9.080

@<SCITEGIC>MOL_PROPERTY
VdW12
SciTegic.value.DoubleValue
9.833

@<SCITEGIC>MOL_PROPERTY
Bond
SciTegic.value.DoubleValue
0.221

@<SCITEGIC>MOL_PROPERTY
Angle
SciTegic.value.DoubleValue
3.208

@<SCITEGIC>MOL_PROPERTY
Pdih
SciTegic.value.DoubleValue
5.050

@<SCITEGIC>MOL_PROPERTY
Idih
SciTegic.value.DoubleValue
0.000

@<SCITEGIC>MOL_PROPERTY
Tether
SciTegic.value.DoubleValue
0.000

@<TRIPOS>MOLECULE
guest-s21_vm2.mol2 : vm2 ligand conformer 29
          22          21           1
SMALL
USER_CHARGES
 
@<TRIPOS>ATOM
       1    C1      19.913693   19.371752   25.661814 C.2        1 MOL1         0.6145
       2    O1      20.435298   20.468770   25.694292 O.co2      1 MOL1        -0.6735
       3    O2      19.920017   18.596034   26.597185 O.co2      1 MOL1        -0.6735
       4    C2      19.230383   18.936540   24.370455 C.3        1 MOL1        -0.1985
       5    H1      18.814910   19.832039   23.894540 H          1 MOL1         0.0740
       6    H2      18.387696   18.285981   24.632912 H          1 MOL1         0.0740
       7    C3      20.191818   18.201612   23.400933 C.3        1 MOL1        -0.1882
       8    H3      21.015496   18.871991   23.121702 H          1 MOL1         0.0742
       9    H4      20.653442   17.358579   23.933189 H          1 MOL1         0.0742
      10    C4      19.492102   17.659356   22.129409 C.3        1 MOL1        -0.1880
      11    H5      18.739746   16.916943   22.428293 H          1 MOL1         0.0742
      12    H6      20.227300   17.110630   21.526204 H          1 MOL1         0.0742
      13    C5      18.803882   18.732875   21.245624 C.3        1 MOL1        -0.1880
      14    H7      18.362666   18.235646   20.371188 H          1 MOL1         0.0742
      15    H8      17.959721   19.169547   21.795137 H          1 MOL1         0.0742
      16    C6      19.728203   19.874684   20.755898 C.3        1 MOL1        -0.1856
      17    H9      20.113677   20.443092   21.612825 H          1 MOL1         0.0742
      18    H10     19.128849   20.582218   20.166765 H          1 MOL1         0.0742
      19    C7      20.904606   19.377379   19.888389 C.3        1 MOL1        -0.2871
      20    H11     21.479933   20.226602   19.497791 H          1 MOL1         0.0754
      21    H12     20.542153   18.791768   19.033612 H          1 MOL1         0.0754
      22    H13     21.591091   18.749493   20.470160 H          1 MOL1         0.0754
@<TRIPOS>BOND
    1     1     2    1
    2     1     3    2
    3     1     4    1
    4     4     5    1
    5     4     6    1
    6     4     7    1
    7     7     8    1
    8     7     9    1
    9     7    10    1
   10    10    11    1
   11    10    12    1
   12    10    13    1
   13    13    14    1
   14    13    15    1
   15    13    16    1
   16    16    17    1
   17    16    18    1
   18    16    19    1
   19    19    20    1
   20    19    21    1
   21    19    22    1
@<TRIPOS>SUBSTRUCTURE
       1 MOL1            1 RESIDUE      1      MOL     
@<SCITEGIC>MOL_PROPERTY
VM2 Rank
SciTegic.value.IntegerValue
29

@<SCITEGIC>MOL_PROPERTY
Conf_Id
SciTegic.value.IntegerValue
575

@<SCITEGIC>MOL_PROPERTY
Probability
SciTegic.value.DoubleValue
0.24

@<SCITEGIC>MOL_PROPERTY
Sum Probability
SciTegic.value.DoubleValue
98.70

@<SCITEGIC>MOL_PROPERTY
Delta G
SciTegic.value.DoubleValue
2.932

@<SCITEGIC>MOL_PROPERTY
G
SciTegic.value.DoubleValue
-14.067

@<SCITEGIC>MOL_PROPERTY
E
SciTegic.value.DoubleValue
-34.382

@<SCITEGIC>MOL_PROPERTY
-TS
SciTegic.value.DoubleValue
20.316

@<SCITEGIC>MOL_PROPERTY
U+W
SciTegic.value.DoubleValue
-52.267

@<SCITEGIC>MOL_PROPERTY
U
SciTegic.value.DoubleValue
8.874

@<SCITEGIC>MOL_PROPERTY
W
SciTegic.value.DoubleValue
-61.142

@<SCITEGIC>MOL_PROPERTY
W(PB)
SciTegic.value.DoubleValue
-63.378

@<SCITEGIC>MOL_PROPERTY
W(SA)
SciTegic.value.DoubleValue
2.237

@<SCITEGIC>MOL_PROPERTY
Valence
SciTegic.value.DoubleValue
8.479

@<SCITEGIC>MOL_PROPERTY
Coulomb
SciTegic.value.DoubleValue
-0.357

@<SCITEGIC>MOL_PROPERTY
VdW
SciTegic.value.DoubleValue
0.753

@<SCITEGIC>MOL_PROPERTY
VdW6
SciTegic.value.DoubleValue
-9.080

@<SCITEGIC>MOL_PROPERTY
VdW12
SciTegic.value.DoubleValue
9.833

@<SCITEGIC>MOL_PROPERTY
Bond
SciTegic.value.DoubleValue
0.221

@<SCITEGIC>MOL_PROPERTY
Angle
SciTegic.value.DoubleValue
3.208

@<SCITEGIC>MOL_PROPERTY
Pdih
SciTegic.value.DoubleValue
5.050

@<SCITEGIC>MOL_PROPERTY
Idih
SciTegic.value.DoubleValue
0.000

@<SCITEGIC>MOL_PROPERTY
Tether
SciTegic.value.DoubleValue
0.000

@<TRIPOS>MOLECULE
guest-s21_vm2.mol2 : vm2 ligand conformer 30
          22          21           1
SMALL
USER_CHARGES
 
@<TRIPOS>ATOM
       1    C1      19.758906   19.200315   25.723254 C.2        1 MOL1         0.6145
       2    O1      20.189951   20.309293   25.970808 O.co2      1 MOL1        -0.6735
       3    O2      20.084685   18.201022   26.333398 O.co2      1 MOL1        -0.6735
       4    C2      18.736269   19.055601   24.599615 C.3        1 MOL1        -0.1985
       5    H1      18.302856   20.041195   24.390751 H          1 MOL1         0.0740
       6    H2      17.922853   18.424757   24.976928 H          1 MOL1         0.0740
       7    C3      19.309521   18.436771   23.298111 C.3        1 MOL1        -0.1882
       8    H3      19.775368   17.468806   23.528934 H          1 MOL1         0.0742
       9    H4      18.476125   18.233444   22.613562 H          1 MOL1         0.0742
      10    C4      20.337200   19.361556   22.602929 C.3        1 MOL1        -0.1880
      11    H5      21.137383   19.609377   23.313608 H          1 MOL1         0.0742
      12    H6      19.860506   20.314950   22.340284 H          1 MOL1         0.0742
      13    C5      20.986343   18.729630   21.345827 C.3        1 MOL1        -0.1880
      14    H7      21.738359   19.426242   20.951025 H          1 MOL1         0.0742
      15    H8      21.537180   17.827814   21.645857 H          1 MOL1         0.0742
      16    C6      20.004312   18.358065   20.207230 C.3        1 MOL1        -0.1856
      17    H9      19.306962   17.580689   20.546166 H          1 MOL1         0.0742
      18    H10     20.577880   17.911689   19.383330 H          1 MOL1         0.0742
      19    C7      19.212813   19.566747   19.662829 C.3        1 MOL1        -0.2871
      20    H11     19.891004   20.366873   19.339017 H          1 MOL1         0.0754
      21    H12     18.602998   19.269593   18.799923 H          1 MOL1         0.0754
      22    H13     18.535719   19.975094   20.423639 H          1 MOL1         0.0754
@<TRIPOS>BOND
    1     1     2    1
    2     1     3    2
    3     1     4    1
    4     4     5    1
    5     4     6    1
    6     4     7    1
    7     7     8    1
    8     7     9    1
    9     7    10    1
   10    10    11    1
   11    10    12    1
   12    10    13    1
   13    13    14    1
   14    13    15    1
   15    13    16    1
   16    16    17    1
   17    16    18    1
   18    16    19    1
   19    19    20    1
   20    19    21    1
   21    19    22    1
@<TRIPOS>SUBSTRUCTURE
       1 MOL1            1 RESIDUE      1      MOL     
@<SCITEGIC>MOL_PROPERTY
VM2 Rank
SciTegic.value.IntegerValue
30

@<SCITEGIC>MOL_PROPERTY
Conf_Id
SciTegic.value.IntegerValue
304

@<SCITEGIC>MOL_PROPERTY
Probability
SciTegic.value.DoubleValue
0.11

@<SCITEGIC>MOL_PROPERTY
Sum Probability
SciTegic.value.DoubleValue
98.81

@<SCITEGIC>MOL_PROPERTY
Delta G
SciTegic.value.DoubleValue
3.401

@<SCITEGIC>MOL_PROPERTY
G
SciTegic.value.DoubleValue
-13.597

@<SCITEGIC>MOL_PROPERTY
E
SciTegic.value.DoubleValue
-33.890

@<SCITEGIC>MOL_PROPERTY
-TS
SciTegic.value.DoubleValue
20.293

@<SCITEGIC>MOL_PROPERTY
U+W
SciTegic.value.DoubleValue
-51.775

@<SCITEGIC>MOL_PROPERTY
U
SciTegic.value.DoubleValue
9.546

@<SCITEGIC>MOL_PROPERTY
W
SciTegic.value.DoubleValue
-61.321

@<SCITEGIC>MOL_PROPERTY
W(PB)
SciTegic.value.DoubleValue
-63.554

@<SCITEGIC>MOL_PROPERTY
W(SA)
SciTegic.value.DoubleValue
2.233

@<SCITEGIC>MOL_PROPERTY
Valence
SciTegic.value.DoubleValue
8.349

@<SCITEGIC>MOL_PROPERTY
Coulomb
SciTegic.value.DoubleValue
0.448

@<SCITEGIC>MOL_PROPERTY
VdW
SciTegic.value.DoubleValue
0.749

@<SCITEGIC>MOL_PROPERTY
VdW6
SciTegic.value.DoubleValue
-8.871

@<SCITEGIC>MOL_PROPERTY
VdW12
SciTegic.value.DoubleValue
9.620

@<SCITEGIC>MOL_PROPERTY
Bond
SciTegic.value.DoubleValue
0.198

@<SCITEGIC>MOL_PROPERTY
Angle
SciTegic.value.DoubleValue
3.089

@<SCITEGIC>MOL_PROPERTY
Pdih
SciTegic.value.DoubleValue
5.062

@<SCITEGIC>MOL_PROPERTY
Idih
SciTegic.value.DoubleValue
0.001

@<SCITEGIC>MOL_PROPERTY
Tether
SciTegic.value.DoubleValue
0.000

@<TRIPOS>MOLECULE
guest-s21_vm2.mol2 : vm2 ligand conformer 31
          22          21           1
SMALL
USER_CHARGES
 
@<TRIPOS>ATOM
       1    C1      20.147171   19.203725   25.460406 C.2        1 MOL1         0.6145
       2    O1      20.730016   20.266674   25.546262 O.co2      1 MOL1        -0.6735
       3    O2      20.616324   18.147391   25.835925 O.co2      1 MOL1        -0.6735
       4    C2      18.738201   19.201538   24.873726 C.3        1 MOL1        -0.1985
       5    H1      18.192629   20.037843   25.326425 H          1 MOL1         0.0740
       6    H2      18.229028   18.282658   25.188671 H          1 MOL1         0.0740
       7    C3      18.699713   19.333718   23.329141 C.3        1 MOL1        -0.1882
       8    H3      17.657353   19.457506   23.006220 H          1 MOL1         0.0742
       9    H4      19.234401   20.247400   23.037195 H          1 MOL1         0.0742
      10    C4      19.313736   18.106478   22.614422 C.3        1 MOL1        -0.1880
      11    H5      18.820699   17.196158   22.981621 H          1 MOL1         0.0742
      12    H6      20.372981   18.006986   22.886162 H          1 MOL1         0.0742
      13    C5      19.168424   18.153115   21.072545 C.3        1 MOL1        -0.1880
      14    H7      19.585346   17.227941   20.651971 H          1 MOL1         0.0742
      15    H8      18.100498   18.148489   20.815312 H          1 MOL1         0.0742
      16    C6      19.842348   19.364131   20.381139 C.3        1 MOL1        -0.1856
      17    H9      19.365984   20.298781   20.705354 H          1 MOL1         0.0742
      18    H10     19.664534   19.292602   19.299345 H          1 MOL1         0.0742
      19    C7      21.364067   19.442229   20.630435 C.3        1 MOL1        -0.2871
      20    H11     21.585001   19.631537   21.688744 H          1 MOL1         0.0754
      21    H12     21.807772   20.259102   20.046845 H          1 MOL1         0.0754
      22    H13     21.859006   18.507636   20.336297 H          1 MOL1         0.0754
@<TRIPOS>BOND
    1     1     2    1
    2     1     3    2
    3     1     4    1
    4     4     5    1
    5     4     6    1
    6     4     7    1
    7     7     8    1
    8     7     9    1
    9     7    10    1
   10    10    11    1
   11    10    12    1
   12    10    13    1
   13    13    14    1
   14    13    15    1
   15    13    16    1
   16    16    17    1
   17    16    18    1
   18    16    19    1
   19    19    20    1
   20    19    21    1
   21    19    22    1
@<TRIPOS>SUBSTRUCTURE
       1 MOL1            1 RESIDUE      1      MOL     
@<SCITEGIC>MOL_PROPERTY
VM2 Rank
SciTegic.value.IntegerValue
31

@<SCITEGIC>MOL_PROPERTY
Conf_Id
SciTegic.value.IntegerValue
376

@<SCITEGIC>MOL_PROPERTY
Probability
SciTegic.value.DoubleValue
0.08

@<SCITEGIC>MOL_PROPERTY
Sum Probability
SciTegic.value.DoubleValue
98.89

@<SCITEGIC>MOL_PROPERTY
Delta G
SciTegic.value.DoubleValue
3.577

@<SCITEGIC>MOL_PROPERTY
G
SciTegic.value.DoubleValue
-13.421

@<SCITEGIC>MOL_PROPERTY
E
SciTegic.value.DoubleValue
-33.724

@<SCITEGIC>MOL_PROPERTY
-TS
SciTegic.value.DoubleValue
20.302

@<SCITEGIC>MOL_PROPERTY
U+W
SciTegic.value.DoubleValue
-51.609

@<SCITEGIC>MOL_PROPERTY
U
SciTegic.value.DoubleValue
10.395

@<SCITEGIC>MOL_PROPERTY
W
SciTegic.value.DoubleValue
-62.003

@<SCITEGIC>MOL_PROPERTY
W(PB)
SciTegic.value.DoubleValue
-64.206

@<SCITEGIC>MOL_PROPERTY
W(SA)
SciTegic.value.DoubleValue
2.203

@<SCITEGIC>MOL_PROPERTY
Valence
SciTegic.value.DoubleValue
8.284

@<SCITEGIC>MOL_PROPERTY
Coulomb
SciTegic.value.DoubleValue
1.521

@<SCITEGIC>MOL_PROPERTY
VdW
SciTegic.value.DoubleValue
0.589

@<SCITEGIC>MOL_PROPERTY
VdW6
SciTegic.value.DoubleValue
-9.071

@<SCITEGIC>MOL_PROPERTY
VdW12
SciTegic.value.DoubleValue
9.660

@<SCITEGIC>MOL_PROPERTY
Bond
SciTegic.value.DoubleValue
0.194

@<SCITEGIC>MOL_PROPERTY
Angle
SciTegic.value.DoubleValue
3.030

@<SCITEGIC>MOL_PROPERTY
Pdih
SciTegic.value.DoubleValue
5.059

@<SCITEGIC>MOL_PROPERTY
Idih
SciTegic.value.DoubleValue
0.001

@<SCITEGIC>MOL_PROPERTY
Tether
SciTegic.value.DoubleValue
0.000

@<TRIPOS>MOLECULE
guest-s21_vm2.mol2 : vm2 ligand conformer 32
          22          21           1
SMALL
USER_CHARGES
 
@<TRIPOS>ATOM
       1    C1      19.688682   19.424304   25.445862 C.2        1 MOL1         0.6145
       2    O1      20.151193   20.545109   25.528430 O.co2      1 MOL1        -0.6735
       3    O2      18.552527   19.140167   25.770484 O.co2      1 MOL1        -0.6735
       4    C2      20.594721   18.308535   24.932499 C.3        1 MOL1        -0.1985
       5    H1      20.178366   17.345005   25.250381 H          1 MOL1         0.0740
       6    H2      21.564127   18.416092   25.433173 H          1 MOL1         0.0740
       7    C3      20.801264   18.322859   23.395674 C.3        1 MOL1        -0.1882
       8    H3      21.196460   19.303639   23.099314 H          1 MOL1         0.0742
       9    H4      21.563764   17.578493   23.129915 H          1 MOL1         0.0742
      10    C4      19.497523   18.018087   22.620209 C.3        1 MOL1        -0.1880
      11    H5      18.746129   18.789586   22.834538 H          1 MOL1         0.0742
      12    H6      19.075091   17.073823   22.989695 H          1 MOL1         0.0742
      13    C5      19.703714   17.895549   21.089475 C.3        1 MOL1        -0.1880
      14    H7      20.378438   17.052570   20.887504 H          1 MOL1         0.0742
      15    H8      18.743408   17.632897   20.625274 H          1 MOL1         0.0742
      16    C6      20.264975   19.160728   20.394433 C.3        1 MOL1        -0.1856
      17    H9      20.375505   18.950426   19.321788 H          1 MOL1         0.0742
      18    H10     21.274653   19.380498   20.765729 H          1 MOL1         0.0742
      19    C7      19.365402   20.403663   20.566933 C.3        1 MOL1        -0.2871
      20    H11     18.342644   20.199171   20.224737 H          1 MOL1         0.0754
      21    H12     19.756786   21.245658   19.981615 H          1 MOL1         0.0754
      22    H13     19.321197   20.720610   21.616817 H          1 MOL1         0.0754
@<TRIPOS>BOND
    1     1     2    1
    2     1     3    2
    3     1     4    1
    4     4     5    1
    5     4     6    1
    6     4     7    1
    7     7     8    1
    8     7     9    1
    9     7    10    1
   10    10    11    1
   11    10    12    1
   12    10    13    1
   13    13    14    1
   14    13    15    1
   15    13    16    1
   16    16    17    1
   17    16    18    1
   18    16    19    1
   19    19    20    1
   20    19    21    1
   21    19    22    1
@<TRIPOS>SUBSTRUCTURE
       1 MOL1            1 RESIDUE      1      MOL     
@<SCITEGIC>MOL_PROPERTY
VM2 Rank
SciTegic.value.IntegerValue
32

@<SCITEGIC>MOL_PROPERTY
Conf_Id
SciTegic.value.IntegerValue
79

@<SCITEGIC>MOL_PROPERTY
Probability
SciTegic.value.DoubleValue
0.08

@<SCITEGIC>MOL_PROPERTY
Sum Probability
SciTegic.value.DoubleValue
98.97

@<SCITEGIC>MOL_PROPERTY
Delta G
SciTegic.value.DoubleValue
3.583

@<SCITEGIC>MOL_PROPERTY
G
SciTegic.value.DoubleValue
-13.415

@<SCITEGIC>MOL_PROPERTY
E
SciTegic.value.DoubleValue
-33.718

@<SCITEGIC>MOL_PROPERTY
-TS
SciTegic.value.DoubleValue
20.303

@<SCITEGIC>MOL_PROPERTY
U+W
SciTegic.value.DoubleValue
-51.603

@<SCITEGIC>MOL_PROPERTY
U
SciTegic.value.DoubleValue
10.394

@<SCITEGIC>MOL_PROPERTY
W
SciTegic.value.DoubleValue
-61.996

@<SCITEGIC>MOL_PROPERTY
W(PB)
SciTegic.value.DoubleValue
-64.210

@<SCITEGIC>MOL_PROPERTY
W(SA)
SciTegic.value.DoubleValue
2.214

@<SCITEGIC>MOL_PROPERTY
Valence
SciTegic.value.DoubleValue
8.285

@<SCITEGIC>MOL_PROPERTY
Coulomb
SciTegic.value.DoubleValue
1.520

@<SCITEGIC>MOL_PROPERTY
VdW
SciTegic.value.DoubleValue
0.589

@<SCITEGIC>MOL_PROPERTY
VdW6
SciTegic.value.DoubleValue
-9.071

@<SCITEGIC>MOL_PROPERTY
VdW12
SciTegic.value.DoubleValue
9.660

@<SCITEGIC>MOL_PROPERTY
Bond
SciTegic.value.DoubleValue
0.194

@<SCITEGIC>MOL_PROPERTY
Angle
SciTegic.value.DoubleValue
3.031

@<SCITEGIC>MOL_PROPERTY
Pdih
SciTegic.value.DoubleValue
5.059

@<SCITEGIC>MOL_PROPERTY
Idih
SciTegic.value.DoubleValue
0.001

@<SCITEGIC>MOL_PROPERTY
Tether
SciTegic.value.DoubleValue
0.000

@<TRIPOS>MOLECULE
guest-s21_vm2.mol2 : vm2 ligand conformer 33
          22          21           1
SMALL
USER_CHARGES
 
@<TRIPOS>ATOM
       1    C1      19.908058   18.805669   25.449785 C.2        1 MOL1         0.6145
       2    O1      19.749617   19.564347   26.386106 O.co2      1 MOL1        -0.6735
       3    O2      20.854068   18.049231   25.351064 O.co2      1 MOL1        -0.6735
       4    C2      18.844822   18.783077   24.355173 C.3        1 MOL1        -0.1985
       5    H1      17.871130   18.680863   24.848183 H          1 MOL1         0.0740
       6    H2      18.982571   17.879832   23.749776 H          1 MOL1         0.0740
       7    C3      18.834624   20.048273   23.454420 C.3        1 MOL1        -0.1882
       8    H3      17.998021   19.981876   22.746970 H          1 MOL1         0.0742
       9    H4      18.628152   20.925643   24.082718 H          1 MOL1         0.0742
      10    C4      20.155223   20.293697   22.679658 C.3        1 MOL1        -0.1880
      11    H5      20.960639   20.492227   23.400050 H          1 MOL1         0.0742
      12    H6      20.049914   21.211312   22.085117 H          1 MOL1         0.0742
      13    C5      20.599514   19.139645   21.746413 C.3        1 MOL1        -0.1880
      14    H7      21.548436   19.425031   21.272423 H          1 MOL1         0.0742
      15    H8      20.816071   18.241292   22.339881 H          1 MOL1         0.0742
      16    C6      19.569143   18.804582   20.644630 C.3        1 MOL1        -0.1856
      17    H9      19.320993   19.714102   20.080488 H          1 MOL1         0.0742
      18    H10     18.636725   18.443404   21.098167 H          1 MOL1         0.0742
      19    C7      20.104932   17.730479   19.676752 C.3        1 MOL1        -0.2871
      20    H11     19.360569   17.500839   18.903324 H          1 MOL1         0.0754
      21    H12     20.335667   16.800279   20.212354 H          1 MOL1         0.0754
      22    H13     21.019484   18.073730   19.175684 H          1 MOL1         0.0754
@<TRIPOS>BOND
    1     1     2    1
    2     1     3    2
    3     1     4    1
    4     4     5    1
    5     4     6    1
    6     4     7    1
    7     7     8    1
    8     7     9    1
    9     7    10    1
   10    10    11    1
   11    10    12    1
   12    10    13    1
   13    13    14    1
   14    13    15    1
   15    13    16    1
   16    16    17    1
   17    16    18    1
   18    16    19    1
   19    19    20    1
   20    19    21    1
   21    19    22    1
@<TRIPOS>SUBSTRUCTURE
       1 MOL1            1 RESIDUE      1      MOL     
@<SCITEGIC>MOL_PROPERTY
VM2 Rank
SciTegic.value.IntegerValue
33

@<SCITEGIC>MOL_PROPERTY
Conf_Id
SciTegic.value.IntegerValue
484

@<SCITEGIC>MOL_PROPERTY
Probability
SciTegic.value.DoubleValue
0.08

@<SCITEGIC>MOL_PROPERTY
Sum Probability
SciTegic.value.DoubleValue
99.05

@<SCITEGIC>MOL_PROPERTY
Delta G
SciTegic.value.DoubleValue
3.589

@<SCITEGIC>MOL_PROPERTY
G
SciTegic.value.DoubleValue
-13.410

@<SCITEGIC>MOL_PROPERTY
E
SciTegic.value.DoubleValue
-33.815

@<SCITEGIC>MOL_PROPERTY
-TS
SciTegic.value.DoubleValue
20.405

@<SCITEGIC>MOL_PROPERTY
U+W
SciTegic.value.DoubleValue
-51.700

@<SCITEGIC>MOL_PROPERTY
U
SciTegic.value.DoubleValue
10.054

@<SCITEGIC>MOL_PROPERTY
W
SciTegic.value.DoubleValue
-61.754

@<SCITEGIC>MOL_PROPERTY
W(PB)
SciTegic.value.DoubleValue
-63.978

@<SCITEGIC>MOL_PROPERTY
W(SA)
SciTegic.value.DoubleValue
2.224

@<SCITEGIC>MOL_PROPERTY
Valence
SciTegic.value.DoubleValue
8.321

@<SCITEGIC>MOL_PROPERTY
Coulomb
SciTegic.value.DoubleValue
1.289

@<SCITEGIC>MOL_PROPERTY
VdW
SciTegic.value.DoubleValue
0.445

@<SCITEGIC>MOL_PROPERTY
VdW6
SciTegic.value.DoubleValue
-9.398

@<SCITEGIC>MOL_PROPERTY
VdW12
SciTegic.value.DoubleValue
9.842

@<SCITEGIC>MOL_PROPERTY
Bond
SciTegic.value.DoubleValue
0.210

@<SCITEGIC>MOL_PROPERTY
Angle
SciTegic.value.DoubleValue
3.153

@<SCITEGIC>MOL_PROPERTY
Pdih
SciTegic.value.DoubleValue
4.957

@<SCITEGIC>MOL_PROPERTY
Idih
SciTegic.value.DoubleValue
0.001

@<SCITEGIC>MOL_PROPERTY
Tether
SciTegic.value.DoubleValue
0.000

@<TRIPOS>MOLECULE
guest-s21_vm2.mol2 : vm2 ligand conformer 34
          22          21           1
SMALL
USER_CHARGES
 
@<TRIPOS>ATOM
       1    C1      20.020886   18.947836   25.517315 C.2        1 MOL1         0.6145
       2    O1      20.377197   19.872559   26.221045 O.co2      1 MOL1        -0.6735
       3    O2      20.645304   17.911685   25.402184 O.co2      1 MOL1        -0.6735
       4    C2      18.702159   19.085988   24.761644 C.3        1 MOL1        -0.1985
       5    H1      17.945354   19.411320   25.484920 H          1 MOL1         0.0740
       6    H2      18.390769   18.094593   24.413967 H          1 MOL1         0.0740
       7    C3      18.748915   20.093858   23.580473 C.3        1 MOL1        -0.1882
       8    H3      17.748747   20.171877   23.133362 H          1 MOL1         0.0742
       9    H4      18.985819   21.090073   23.978918 H          1 MOL1         0.0742
      10    C4      19.775594   19.744466   22.474765 C.3        1 MOL1        -0.1880
      11    H5      20.784764   19.698963   22.906538 H          1 MOL1         0.0742
      12    H6      19.785975   20.568431   21.750218 H          1 MOL1         0.0742
      13    C5      19.464146   18.416580   21.741848 C.3        1 MOL1        -0.1880
      14    H7      19.479234   17.591264   22.465420 H          1 MOL1         0.0742
      15    H8      18.448393   18.450649   21.325224 H          1 MOL1         0.0742
      16    C6      20.473904   18.083503   20.618702 C.3        1 MOL1        -0.1856
      17    H9      20.268481   17.068468   20.251712 H          1 MOL1         0.0742
      18    H10     21.492626   18.063913   21.030039 H          1 MOL1         0.0742
      19    C7      20.411895   19.062526   19.426024 C.3        1 MOL1        -0.2871
      20    H11     20.728769   20.071526   19.717330 H          1 MOL1         0.0754
      21    H12     19.393520   19.124145   19.020790 H          1 MOL1         0.0754
      22    H13     21.076456   18.726597   18.619543 H          1 MOL1         0.0754
@<TRIPOS>BOND
    1     1     2    1
    2     1     3    2
    3     1     4    1
    4     4     5    1
    5     4     6    1
    6     4     7    1
    7     7     8    1
    8     7     9    1
    9     7    10    1
   10    10    11    1
   11    10    12    1
   12    10    13    1
   13    13    14    1
   14    13    15    1
   15    13    16    1
   16    16    17    1
   17    16    18    1
   18    16    19    1
   19    19    20    1
   20    19    21    1
   21    19    22    1
@<TRIPOS>SUBSTRUCTURE
       1 MOL1            1 RESIDUE      1      MOL     
@<SCITEGIC>MOL_PROPERTY
VM2 Rank
SciTegic.value.IntegerValue
34

@<SCITEGIC>MOL_PROPERTY
Conf_Id
SciTegic.value.IntegerValue
390

@<SCITEGIC>MOL_PROPERTY
Probability
SciTegic.value.DoubleValue
0.08

@<SCITEGIC>MOL_PROPERTY
Sum Probability
SciTegic.value.DoubleValue
99.13

@<SCITEGIC>MOL_PROPERTY
Delta G
SciTegic.value.DoubleValue
3.609

@<SCITEGIC>MOL_PROPERTY
G
SciTegic.value.DoubleValue
-13.389

@<SCITEGIC>MOL_PROPERTY
E
SciTegic.value.DoubleValue
-33.472

@<SCITEGIC>MOL_PROPERTY
-TS
SciTegic.value.DoubleValue
20.083

@<SCITEGIC>MOL_PROPERTY
U+W
SciTegic.value.DoubleValue
-51.356

@<SCITEGIC>MOL_PROPERTY
U
SciTegic.value.DoubleValue
10.427

@<SCITEGIC>MOL_PROPERTY
W
SciTegic.value.DoubleValue
-61.784

@<SCITEGIC>MOL_PROPERTY
W(PB)
SciTegic.value.DoubleValue
-64.014

@<SCITEGIC>MOL_PROPERTY
W(SA)
SciTegic.value.DoubleValue
2.230

@<SCITEGIC>MOL_PROPERTY
Valence
SciTegic.value.DoubleValue
8.446

@<SCITEGIC>MOL_PROPERTY
Coulomb
SciTegic.value.DoubleValue
1.306

@<SCITEGIC>MOL_PROPERTY
VdW
SciTegic.value.DoubleValue
0.676

@<SCITEGIC>MOL_PROPERTY
VdW6
SciTegic.value.DoubleValue
-8.928

@<SCITEGIC>MOL_PROPERTY
VdW12
SciTegic.value.DoubleValue
9.604

@<SCITEGIC>MOL_PROPERTY
Bond
SciTegic.value.DoubleValue
0.209

@<SCITEGIC>MOL_PROPERTY
Angle
SciTegic.value.DoubleValue
3.066

@<SCITEGIC>MOL_PROPERTY
Pdih
SciTegic.value.DoubleValue
5.169

@<SCITEGIC>MOL_PROPERTY
Idih
SciTegic.value.DoubleValue
0.001

@<SCITEGIC>MOL_PROPERTY
Tether
SciTegic.value.DoubleValue
0.000

@<TRIPOS>MOLECULE
guest-s21_vm2.mol2 : vm2 ligand conformer 35
          22          21           1
SMALL
USER_CHARGES
 
@<TRIPOS>ATOM
       1    C1      19.672989   18.880392   25.513917 C.2        1 MOL1         0.6145
       2    O1      18.984093   19.602327   26.207846 O.co2      1 MOL1        -0.6735
       3    O2      19.483536   17.686316   25.391206 O.co2      1 MOL1        -0.6735
       4    C2      20.858143   19.504176   24.782161 C.3        1 MOL1        -0.1985
       5    H1      21.523890   18.702300   24.443805 H          1 MOL1         0.0740
       6    H2      21.425028   20.086242   25.518073 H          1 MOL1         0.0740
       7    C3      20.459763   20.425709   23.596743 C.3        1 MOL1        -0.1882
       8    H3      19.860384   21.259741   23.987206 H          1 MOL1         0.0742
       9    H4      21.366304   20.873509   23.167802 H          1 MOL1         0.0742
      10    C4      19.658605   19.721812   22.473620 C.3        1 MOL1        -0.1880
      11    H5      19.354357   20.484727   21.746030 H          1 MOL1         0.0742
      12    H6      18.731813   19.300915   22.886931 H          1 MOL1         0.0742
      13    C5      20.457206   18.609142   21.751368 C.3        1 MOL1        -0.1880
      14    H7      21.394131   19.021820   21.353423 H          1 MOL1         0.0742
      15    H8      20.738294   17.835426   22.477514 H          1 MOL1         0.0742
      16    C6      19.665990   17.926826   20.611005 C.3        1 MOL1        -0.1856
      17    H9      18.720978   17.526526   21.003549 H          1 MOL1         0.0742
      18    H10     20.242573   17.063391   20.251551 H          1 MOL1         0.0742
      19    C7      19.379675   18.862300   19.416131 C.3        1 MOL1        -0.2871
      20    H11     20.308539   19.301459   19.029545 H          1 MOL1         0.0754
      21    H12     18.703368   19.678744   19.697873 H          1 MOL1         0.0754
      22    H13     18.903827   18.305215   18.598744 H          1 MOL1         0.0754
@<TRIPOS>BOND
    1     1     2    1
    2     1     3    2
    3     1     4    1
    4     4     5    1
    5     4     6    1
    6     4     7    1
    7     7     8    1
    8     7     9    1
    9     7    10    1
   10    10    11    1
   11    10    12    1
   12    10    13    1
   13    13    14    1
   14    13    15    1
   15    13    16    1
   16    16    17    1
   17    16    18    1
   18    16    19    1
   19    19    20    1
   20    19    21    1
   21    19    22    1
@<TRIPOS>SUBSTRUCTURE
       1 MOL1            1 RESIDUE      1      MOL     
@<SCITEGIC>MOL_PROPERTY
VM2 Rank
SciTegic.value.IntegerValue
35

@<SCITEGIC>MOL_PROPERTY
Conf_Id
SciTegic.value.IntegerValue
249

@<SCITEGIC>MOL_PROPERTY
Probability
SciTegic.value.DoubleValue
0.08

@<SCITEGIC>MOL_PROPERTY
Sum Probability
SciTegic.value.DoubleValue
99.20

@<SCITEGIC>MOL_PROPERTY
Delta G
SciTegic.value.DoubleValue
3.611

@<SCITEGIC>MOL_PROPERTY
G
SciTegic.value.DoubleValue
-13.387

@<SCITEGIC>MOL_PROPERTY
E
SciTegic.value.DoubleValue
-33.469

@<SCITEGIC>MOL_PROPERTY
-TS
SciTegic.value.DoubleValue
20.083

@<SCITEGIC>MOL_PROPERTY
U+W
SciTegic.value.DoubleValue
-51.354

@<SCITEGIC>MOL_PROPERTY
U
SciTegic.value.DoubleValue
10.427

@<SCITEGIC>MOL_PROPERTY
W
SciTegic.value.DoubleValue
-61.781

@<SCITEGIC>MOL_PROPERTY
W(PB)
SciTegic.value.DoubleValue
-64.012

@<SCITEGIC>MOL_PROPERTY
W(SA)
SciTegic.value.DoubleValue
2.231

@<SCITEGIC>MOL_PROPERTY
Valence
SciTegic.value.DoubleValue
8.446

@<SCITEGIC>MOL_PROPERTY
Coulomb
SciTegic.value.DoubleValue
1.305

@<SCITEGIC>MOL_PROPERTY
VdW
SciTegic.value.DoubleValue
0.676

@<SCITEGIC>MOL_PROPERTY
VdW6
SciTegic.value.DoubleValue
-8.928

@<SCITEGIC>MOL_PROPERTY
VdW12
SciTegic.value.DoubleValue
9.604

@<SCITEGIC>MOL_PROPERTY
Bond
SciTegic.value.DoubleValue
0.209

@<SCITEGIC>MOL_PROPERTY
Angle
SciTegic.value.DoubleValue
3.066

@<SCITEGIC>MOL_PROPERTY
Pdih
SciTegic.value.DoubleValue
5.170

@<SCITEGIC>MOL_PROPERTY
Idih
SciTegic.value.DoubleValue
0.001

@<SCITEGIC>MOL_PROPERTY
Tether
SciTegic.value.DoubleValue
0.000

@<TRIPOS>MOLECULE
guest-s21_vm2.mol2 : vm2 ligand conformer 36
          22          21           1
SMALL
USER_CHARGES
 
@<TRIPOS>ATOM
       1    C1      20.142858   19.012258   25.441312 C.2        1 MOL1         0.6145
       2    O1      19.449660   19.300529   26.397224 O.co2      1 MOL1        -0.6735
       3    O2      20.768355   17.973973   25.354153 O.co2      1 MOL1        -0.6735
       4    C2      20.255602   20.023847   24.304152 C.3        1 MOL1        -0.1985
       5    H1      21.108664   19.749670   23.672927 H          1 MOL1         0.0740
       6    H2      20.500515   20.993423   24.753066 H          1 MOL1         0.0740
       7    C3      18.966303   20.164020   23.449618 C.3        1 MOL1        -0.1882
       8    H3      18.148521   20.503735   24.099998 H          1 MOL1         0.0742
       9    H4      19.109410   20.959298   22.706752 H          1 MOL1         0.0742
      10    C4      18.524033   18.858914   22.738585 C.3        1 MOL1        -0.1880
      11    H5      17.603716   19.059698   22.173529 H          1 MOL1         0.0742
      12    H6      18.254501   18.111943   23.497833 H          1 MOL1         0.0742
      13    C5      19.573425   18.237113   21.783429 C.3        1 MOL1        -0.1880
      14    H7      20.460447   17.928379   22.352652 H          1 MOL1         0.0742
      15    H8      19.150878   17.316348   21.358916 H          1 MOL1         0.0742
      16    C6      19.991396   19.175930   20.629402 C.3        1 MOL1        -0.1856
      17    H9      20.486264   20.069801   21.031458 H          1 MOL1         0.0742
      18    H10     19.098504   19.518584   20.088670 H          1 MOL1         0.0742
      19    C7      20.948367   18.472416   19.646125 C.3        1 MOL1        -0.2871
      20    H11     20.471556   17.592313   19.195160 H          1 MOL1         0.0754
      21    H12     21.862761   18.143252   20.156923 H          1 MOL1         0.0754
      22    H13     21.239010   19.153082   18.835433 H          1 MOL1         0.0754
@<TRIPOS>BOND
    1     1     2    1
    2     1     3    2
    3     1     4    1
    4     4     5    1
    5     4     6    1
    6     4     7    1
    7     7     8    1
    8     7     9    1
    9     7    10    1
   10    10    11    1
   11    10    12    1
   12    10    13    1
   13    13    14    1
   14    13    15    1
   15    13    16    1
   16    16    17    1
   17    16    18    1
   18    16    19    1
   19    19    20    1
   20    19    21    1
   21    19    22    1
@<TRIPOS>SUBSTRUCTURE
       1 MOL1            1 RESIDUE      1      MOL     
@<SCITEGIC>MOL_PROPERTY
VM2 Rank
SciTegic.value.IntegerValue
36

@<SCITEGIC>MOL_PROPERTY
Conf_Id
SciTegic.value.IntegerValue
729

@<SCITEGIC>MOL_PROPERTY
Probability
SciTegic.value.DoubleValue
0.08

@<SCITEGIC>MOL_PROPERTY
Sum Probability
SciTegic.value.DoubleValue
99.28

@<SCITEGIC>MOL_PROPERTY
Delta G
SciTegic.value.DoubleValue
3.619

@<SCITEGIC>MOL_PROPERTY
G
SciTegic.value.DoubleValue
-13.380

@<SCITEGIC>MOL_PROPERTY
E
SciTegic.value.DoubleValue
-33.785

@<SCITEGIC>MOL_PROPERTY
-TS
SciTegic.value.DoubleValue
20.406

@<SCITEGIC>MOL_PROPERTY
U+W
SciTegic.value.DoubleValue
-51.670

@<SCITEGIC>MOL_PROPERTY
U
SciTegic.value.DoubleValue
10.053

@<SCITEGIC>MOL_PROPERTY
W
SciTegic.value.DoubleValue
-61.724

@<SCITEGIC>MOL_PROPERTY
W(PB)
SciTegic.value.DoubleValue
-63.943

@<SCITEGIC>MOL_PROPERTY
W(SA)
SciTegic.value.DoubleValue
2.219

@<SCITEGIC>MOL_PROPERTY
Valence
SciTegic.value.DoubleValue
8.321

@<SCITEGIC>MOL_PROPERTY
Coulomb
SciTegic.value.DoubleValue
1.288

@<SCITEGIC>MOL_PROPERTY
VdW
SciTegic.value.DoubleValue
0.445

@<SCITEGIC>MOL_PROPERTY
VdW6
SciTegic.value.DoubleValue
-9.397

@<SCITEGIC>MOL_PROPERTY
VdW12
SciTegic.value.DoubleValue
9.842

@<SCITEGIC>MOL_PROPERTY
Bond
SciTegic.value.DoubleValue
0.210

@<SCITEGIC>MOL_PROPERTY
Angle
SciTegic.value.DoubleValue
3.152

@<SCITEGIC>MOL_PROPERTY
Pdih
SciTegic.value.DoubleValue
4.957

@<SCITEGIC>MOL_PROPERTY
Idih
SciTegic.value.DoubleValue
0.001

@<SCITEGIC>MOL_PROPERTY
Tether
SciTegic.value.DoubleValue
0.000

@<TRIPOS>MOLECULE
guest-s21_vm2.mol2 : vm2 ligand conformer 37
          22          21           1
SMALL
USER_CHARGES
 
@<TRIPOS>ATOM
       1    C1      19.561275   19.455193   25.632707 C.2        1 MOL1         0.6145
       2    O1      20.202349   20.441121   25.938552 O.co2      1 MOL1        -0.6735
       3    O2      18.972459   18.759735   26.436582 O.co2      1 MOL1        -0.6735
       4    C2      19.511583   19.055508   24.162406 C.3        1 MOL1        -0.1985
       5    H1      19.536003   19.975790   23.568088 H          1 MOL1         0.0740
       6    H2      18.548794   18.565591   23.974522 H          1 MOL1         0.0740
       7    C3      20.677892   18.120198   23.754897 C.3        1 MOL1        -0.1882
       8    H3      21.629506   18.656265   23.874548 H          1 MOL1         0.0742
       9    H4      20.711690   17.274170   24.455265 H          1 MOL1         0.0742
      10    C4      20.574543   17.560942   22.313639 C.3        1 MOL1        -0.1880
      11    H5      19.673617   16.940283   22.213304 H          1 MOL1         0.0742
      12    H6      21.423664   16.880656   22.161483 H          1 MOL1         0.0742
      13    C5      20.612902   18.637099   21.199132 C.3        1 MOL1        -0.1880
      14    H7      21.176855   19.515458   21.541775 H          1 MOL1         0.0742
      15    H8      21.169494   18.231776   20.343030 H          1 MOL1         0.0742
      16    C6      19.209632   19.057259   20.704107 C.3        1 MOL1        -0.1856
      17    H9      18.606044   19.442047   21.534759 H          1 MOL1         0.0742
      18    H10     18.680046   18.178197   20.311700 H          1 MOL1         0.0742
      19    C7      19.297364   20.131945   19.601979 C.3        1 MOL1        -0.2871
      20    H11     18.294465   20.414327   19.256313 H          1 MOL1         0.0754
      21    H12     19.862652   19.762291   18.736453 H          1 MOL1         0.0754
      22    H13     19.794455   21.036861   19.975325 H          1 MOL1         0.0754
@<TRIPOS>BOND
    1     1     2    1
    2     1     3    2
    3     1     4    1
    4     4     5    1
    5     4     6    1
    6     4     7    1
    7     7     8    1
    8     7     9    1
    9     7    10    1
   10    10    11    1
   11    10    12    1
   12    10    13    1
   13    13    14    1
   14    13    15    1
   15    13    16    1
   16    16    17    1
   17    16    18    1
   18    16    19    1
   19    19    20    1
   20    19    21    1
   21    19    22    1
@<TRIPOS>SUBSTRUCTURE
       1 MOL1            1 RESIDUE      1      MOL     
@<SCITEGIC>MOL_PROPERTY
VM2 Rank
SciTegic.value.IntegerValue
37

@<SCITEGIC>MOL_PROPERTY
Conf_Id
SciTegic.value.IntegerValue
161

@<SCITEGIC>MOL_PROPERTY
Probability
SciTegic.value.DoubleValue
0.06

@<SCITEGIC>MOL_PROPERTY
Sum Probability
SciTegic.value.DoubleValue
99.34

@<SCITEGIC>MOL_PROPERTY
Delta G
SciTegic.value.DoubleValue
3.779

@<SCITEGIC>MOL_PROPERTY
G
SciTegic.value.DoubleValue
-13.219

@<SCITEGIC>MOL_PROPERTY
E
SciTegic.value.DoubleValue
-33.159

@<SCITEGIC>MOL_PROPERTY
-TS
SciTegic.value.DoubleValue
19.939

@<SCITEGIC>MOL_PROPERTY
U+W
SciTegic.value.DoubleValue
-51.043

@<SCITEGIC>MOL_PROPERTY
U
SciTegic.value.DoubleValue
10.045

@<SCITEGIC>MOL_PROPERTY
W
SciTegic.value.DoubleValue
-61.088

@<SCITEGIC>MOL_PROPERTY
W(PB)
SciTegic.value.DoubleValue
-63.358

@<SCITEGIC>MOL_PROPERTY
W(SA)
SciTegic.value.DoubleValue
2.270

@<SCITEGIC>MOL_PROPERTY
Valence
SciTegic.value.DoubleValue
10.100

@<SCITEGIC>MOL_PROPERTY
Coulomb
SciTegic.value.DoubleValue
-0.883

@<SCITEGIC>MOL_PROPERTY
VdW
SciTegic.value.DoubleValue
0.828

@<SCITEGIC>MOL_PROPERTY
VdW6
SciTegic.value.DoubleValue
-8.177

@<SCITEGIC>MOL_PROPERTY
VdW12
SciTegic.value.DoubleValue
9.005

@<SCITEGIC>MOL_PROPERTY
Bond
SciTegic.value.DoubleValue
0.182

@<SCITEGIC>MOL_PROPERTY
Angle
SciTegic.value.DoubleValue
2.988

@<SCITEGIC>MOL_PROPERTY
Pdih
SciTegic.value.DoubleValue
6.930

@<SCITEGIC>MOL_PROPERTY
Idih
SciTegic.value.DoubleValue
0.001

@<SCITEGIC>MOL_PROPERTY
Tether
SciTegic.value.DoubleValue
0.000

@<TRIPOS>MOLECULE
guest-s21_vm2.mol2 : vm2 ligand conformer 38
          22          21           1
SMALL
USER_CHARGES
 
@<TRIPOS>ATOM
       1    C1      20.053394   18.786912   25.343621 C.2        1 MOL1         0.6145
       2    O1      19.166622   18.478650   26.115651 O.co2      1 MOL1        -0.6735
       3    O2      20.981469   18.055588   25.059822 O.co2      1 MOL1        -0.6735
       4    C2      20.016029   20.182057   24.725750 C.3        1 MOL1        -0.1985
       5    H1      20.991053   20.390998   24.270955 H          1 MOL1         0.0740
       6    H2      19.896790   20.898421   25.546875 H          1 MOL1         0.0740
       7    C3      18.874376   20.389803   23.693192 C.3        1 MOL1        -0.1882
       8    H3      17.910101   20.239410   24.198033 H          1 MOL1         0.0742
       9    H4      18.883164   21.433720   23.351922 H          1 MOL1         0.0742
      10    C4      18.945795   19.450714   22.464167 C.3        1 MOL1        -0.1880
      11    H5      18.063919   19.632009   21.834953 H          1 MOL1         0.0742
      12    H6      18.879249   18.407230   22.799557 H          1 MOL1         0.0742
      13    C5      20.223728   19.650296   21.613706 C.3        1 MOL1        -0.1880
      14    H7      20.349525   20.720186   21.399208 H          1 MOL1         0.0742
      15    H8      21.106718   19.338376   22.187447 H          1 MOL1         0.0742
      16    C6      20.192949   18.879078   20.273701 C.3        1 MOL1        -0.1856
      17    H9      21.082648   19.151356   19.689379 H          1 MOL1         0.0742
      18    H10     19.323542   19.197009   19.681877 H          1 MOL1         0.0742
      19    C7      20.165639   17.345903   20.454389 C.3        1 MOL1        -0.2871
      20    H11     21.009430   17.008495   21.070498 H          1 MOL1         0.0754
      21    H12     20.233807   16.842592   19.481330 H          1 MOL1         0.0754
      22    H13     19.236053   17.016540   20.935270 H          1 MOL1         0.0754
@<TRIPOS>BOND
    1     1     2    1
    2     1     3    2
    3     1     4    1
    4     4     5    1
    5     4     6    1
    6     4     7    1
    7     7     8    1
    8     7     9    1
    9     7    10    1
   10    10    11    1
   11    10    12    1
   12    10    13    1
   13    13    14    1
   14    13    15    1
   15    13    16    1
   16    16    17    1
   17    16    18    1
   18    16    19    1
   19    19    20    1
   20    19    21    1
   21    19    22    1
@<TRIPOS>SUBSTRUCTURE
       1 MOL1            1 RESIDUE      1      MOL     
@<SCITEGIC>MOL_PROPERTY
VM2 Rank
SciTegic.value.IntegerValue
38

@<SCITEGIC>MOL_PROPERTY
Conf_Id
SciTegic.value.IntegerValue
560

@<SCITEGIC>MOL_PROPERTY
Probability
SciTegic.value.DoubleValue
0.06

@<SCITEGIC>MOL_PROPERTY
Sum Probability
SciTegic.value.DoubleValue
99.39

@<SCITEGIC>MOL_PROPERTY
Delta G
SciTegic.value.DoubleValue
3.789

@<SCITEGIC>MOL_PROPERTY
G
SciTegic.value.DoubleValue
-13.209

@<SCITEGIC>MOL_PROPERTY
E
SciTegic.value.DoubleValue
-33.372

@<SCITEGIC>MOL_PROPERTY
-TS
SciTegic.value.DoubleValue
20.162

@<SCITEGIC>MOL_PROPERTY
U+W
SciTegic.value.DoubleValue
-51.256

@<SCITEGIC>MOL_PROPERTY
U
SciTegic.value.DoubleValue
10.893

@<SCITEGIC>MOL_PROPERTY
W
SciTegic.value.DoubleValue
-62.149

@<SCITEGIC>MOL_PROPERTY
W(PB)
SciTegic.value.DoubleValue
-64.367

@<SCITEGIC>MOL_PROPERTY
W(SA)
SciTegic.value.DoubleValue
2.218

@<SCITEGIC>MOL_PROPERTY
Valence
SciTegic.value.DoubleValue
8.348

@<SCITEGIC>MOL_PROPERTY
Coulomb
SciTegic.value.DoubleValue
2.011

@<SCITEGIC>MOL_PROPERTY
VdW
SciTegic.value.DoubleValue
0.534

@<SCITEGIC>MOL_PROPERTY
VdW6
SciTegic.value.DoubleValue
-9.124

@<SCITEGIC>MOL_PROPERTY
VdW12
SciTegic.value.DoubleValue
9.658

@<SCITEGIC>MOL_PROPERTY
Bond
SciTegic.value.DoubleValue
0.201

@<SCITEGIC>MOL_PROPERTY
Angle
SciTegic.value.DoubleValue
2.939

@<SCITEGIC>MOL_PROPERTY
Pdih
SciTegic.value.DoubleValue
5.207

@<SCITEGIC>MOL_PROPERTY
Idih
SciTegic.value.DoubleValue
0.002

@<SCITEGIC>MOL_PROPERTY
Tether
SciTegic.value.DoubleValue
0.000

@<TRIPOS>MOLECULE
guest-s21_vm2.mol2 : vm2 ligand conformer 39
          22          21           1
SMALL
USER_CHARGES
 
@<TRIPOS>ATOM
       1    C1      20.273248   18.962448   25.236000 C.2        1 MOL1         0.6145
       2    O1      20.759200   20.045273   25.498366 O.co2      1 MOL1        -0.6735
       3    O2      20.914896   17.930930   25.199763 O.co2      1 MOL1        -0.6735
       4    C2      18.764865   18.880330   25.009083 C.3        1 MOL1        -0.1985
       5    H1      18.294614   19.180491   25.952640 H          1 MOL1         0.0740
       6    H2      18.486308   17.833286   24.838939 H          1 MOL1         0.0740
       7    C3      18.216167   19.776493   23.863263 C.3        1 MOL1        -0.1882
       8    H3      17.140193   19.919932   24.030970 H          1 MOL1         0.0742
       9    H4      18.666885   20.777005   23.921591 H          1 MOL1         0.0742
      10    C4      18.397832   19.194271   22.439562 C.3        1 MOL1        -0.1880
      11    H5      17.840886   19.829265   21.737018 H          1 MOL1         0.0742
      12    H6      17.938008   18.198010   22.386135 H          1 MOL1         0.0742
      13    C5      19.869582   19.112674   21.975020 C.3        1 MOL1        -0.1880
      14    H7      20.358415   20.085084   22.125048 H          1 MOL1         0.0742
      15    H8      20.413754   18.381672   22.586228 H          1 MOL1         0.0742
      16    C6      19.977462   18.703119   20.490913 C.3        1 MOL1        -0.1856
      17    H9      19.443963   19.431660   19.864845 H          1 MOL1         0.0742
      18    H10     19.487438   17.731422   20.338942 H          1 MOL1         0.0742
      19    C7      21.446748   18.613462   20.032030 C.3        1 MOL1        -0.2871
      20    H11     21.505313   18.320419   18.975754 H          1 MOL1         0.0754
      21    H12     21.997212   17.868751   20.621857 H          1 MOL1         0.0754
      22    H13     21.952713   19.581331   20.144272 H          1 MOL1         0.0754
@<TRIPOS>BOND
    1     1     2    1
    2     1     3    2
    3     1     4    1
    4     4     5    1
    5     4     6    1
    6     4     7    1
    7     7     8    1
    8     7     9    1
    9     7    10    1
   10    10    11    1
   11    10    12    1
   12    10    13    1
   13    13    14    1
   14    13    15    1
   15    13    16    1
   16    16    17    1
   17    16    18    1
   18    16    19    1
   19    19    20    1
   20    19    21    1
   21    19    22    1
@<TRIPOS>SUBSTRUCTURE
       1 MOL1            1 RESIDUE      1      MOL     
@<SCITEGIC>MOL_PROPERTY
VM2 Rank
SciTegic.value.IntegerValue
39

@<SCITEGIC>MOL_PROPERTY
Conf_Id
SciTegic.value.IntegerValue
265

@<SCITEGIC>MOL_PROPERTY
Probability
SciTegic.value.DoubleValue
0.06

@<SCITEGIC>MOL_PROPERTY
Sum Probability
SciTegic.value.DoubleValue
99.45

@<SCITEGIC>MOL_PROPERTY
Delta G
SciTegic.value.DoubleValue
3.798

@<SCITEGIC>MOL_PROPERTY
G
SciTegic.value.DoubleValue
-13.200

@<SCITEGIC>MOL_PROPERTY
E
SciTegic.value.DoubleValue
-33.389

@<SCITEGIC>MOL_PROPERTY
-TS
SciTegic.value.DoubleValue
20.188

@<SCITEGIC>MOL_PROPERTY
U+W
SciTegic.value.DoubleValue
-51.274

@<SCITEGIC>MOL_PROPERTY
U
SciTegic.value.DoubleValue
11.237

@<SCITEGIC>MOL_PROPERTY
W
SciTegic.value.DoubleValue
-62.510

@<SCITEGIC>MOL_PROPERTY
W(PB)
SciTegic.value.DoubleValue
-64.777

@<SCITEGIC>MOL_PROPERTY
W(SA)
SciTegic.value.DoubleValue
2.267

@<SCITEGIC>MOL_PROPERTY
Valence
SciTegic.value.DoubleValue
9.030

@<SCITEGIC>MOL_PROPERTY
Coulomb
SciTegic.value.DoubleValue
1.667

@<SCITEGIC>MOL_PROPERTY
VdW
SciTegic.value.DoubleValue
0.540

@<SCITEGIC>MOL_PROPERTY
VdW6
SciTegic.value.DoubleValue
-8.824

@<SCITEGIC>MOL_PROPERTY
VdW12
SciTegic.value.DoubleValue
9.364

@<SCITEGIC>MOL_PROPERTY
Bond
SciTegic.value.DoubleValue
0.186

@<SCITEGIC>MOL_PROPERTY
Angle
SciTegic.value.DoubleValue
3.195

@<SCITEGIC>MOL_PROPERTY
Pdih
SciTegic.value.DoubleValue
5.641

@<SCITEGIC>MOL_PROPERTY
Idih
SciTegic.value.DoubleValue
0.007

@<SCITEGIC>MOL_PROPERTY
Tether
SciTegic.value.DoubleValue
0.000

@<TRIPOS>MOLECULE
guest-s21_vm2.mol2 : vm2 ligand conformer 40
          22          21           1
SMALL
USER_CHARGES
 
@<TRIPOS>ATOM
       1    C1      20.018069   19.437679   25.318730 C.2        1 MOL1         0.6145
       2    O1      20.862954   20.241098   24.976111 O.co2      1 MOL1        -0.6735
       3    O2      19.099994   19.706456   26.068608 O.co2      1 MOL1        -0.6735
       4    C2      20.134105   18.003586   24.809312 C.3        1 MOL1        -0.1985
       5    H1      20.089481   17.343313   25.683206 H          1 MOL1         0.0740
       6    H2      21.127874   17.867031   24.367787 H          1 MOL1         0.0740
       7    C3      19.025864   17.595600   23.800322 C.3        1 MOL1        -0.1882
       8    H3      19.148687   16.535733   23.539743 H          1 MOL1         0.0742
       9    H4      18.048889   17.679160   24.296151 H          1 MOL1         0.0742
      10    C4      19.000652   18.440287   22.502878 C.3        1 MOL1        -0.1880
      11    H5      18.820463   19.493040   22.757862 H          1 MOL1         0.0742
      12    H6      18.146136   18.117341   21.892967 H          1 MOL1         0.0742
      13    C5      20.296205   18.315447   21.664910 C.3        1 MOL1        -0.1880
      14    H7      21.137949   18.763814   22.209504 H          1 MOL1         0.0742
      15    H8      20.537680   17.252151   21.532282 H          1 MOL1         0.0742
      16    C6      20.187944   18.974161   20.270020 C.3        1 MOL1        -0.1856
      17    H9      19.360559   18.519783   19.707724 H          1 MOL1         0.0742
      18    H10     21.104361   18.755850   19.704641 H          1 MOL1         0.0742
      19    C7      19.994212   20.504686   20.333110 C.3        1 MOL1        -0.2871
      20    H11     20.011814   20.936600   19.324173 H          1 MOL1         0.0754
      21    H12     20.793858   20.977455   20.918319 H          1 MOL1         0.0754
      22    H13     19.032362   20.767343   20.791053 H          1 MOL1         0.0754
@<TRIPOS>BOND
    1     1     2    1
    2     1     3    2
    3     1     4    1
    4     4     5    1
    5     4     6    1
    6     4     7    1
    7     7     8    1
    8     7     9    1
    9     7    10    1
   10    10    11    1
   11    10    12    1
   12    10    13    1
   13    13    14    1
   14    13    15    1
   15    13    16    1
   16    16    17    1
   17    16    18    1
   18    16    19    1
   19    19    20    1
   20    19    21    1
   21    19    22    1
@<TRIPOS>SUBSTRUCTURE
       1 MOL1            1 RESIDUE      1      MOL     
@<SCITEGIC>MOL_PROPERTY
VM2 Rank
SciTegic.value.IntegerValue
40

@<SCITEGIC>MOL_PROPERTY
Conf_Id
SciTegic.value.IntegerValue
177

@<SCITEGIC>MOL_PROPERTY
Probability
SciTegic.value.DoubleValue
0.05

@<SCITEGIC>MOL_PROPERTY
Sum Probability
SciTegic.value.DoubleValue
99.50

@<SCITEGIC>MOL_PROPERTY
Delta G
SciTegic.value.DoubleValue
3.826

@<SCITEGIC>MOL_PROPERTY
G
SciTegic.value.DoubleValue
-13.172

@<SCITEGIC>MOL_PROPERTY
E
SciTegic.value.DoubleValue
-33.335

@<SCITEGIC>MOL_PROPERTY
-TS
SciTegic.value.DoubleValue
20.163

@<SCITEGIC>MOL_PROPERTY
U+W
SciTegic.value.DoubleValue
-51.220

@<SCITEGIC>MOL_PROPERTY
U
SciTegic.value.DoubleValue
10.892

@<SCITEGIC>MOL_PROPERTY
W
SciTegic.value.DoubleValue
-62.112

@<SCITEGIC>MOL_PROPERTY
W(PB)
SciTegic.value.DoubleValue
-64.329

@<SCITEGIC>MOL_PROPERTY
W(SA)
SciTegic.value.DoubleValue
2.217

@<SCITEGIC>MOL_PROPERTY
Valence
SciTegic.value.DoubleValue
8.348

@<SCITEGIC>MOL_PROPERTY
Coulomb
SciTegic.value.DoubleValue
2.010

@<SCITEGIC>MOL_PROPERTY
VdW
SciTegic.value.DoubleValue
0.534

@<SCITEGIC>MOL_PROPERTY
VdW6
SciTegic.value.DoubleValue
-9.124

@<SCITEGIC>MOL_PROPERTY
VdW12
SciTegic.value.DoubleValue
9.657

@<SCITEGIC>MOL_PROPERTY
Bond
SciTegic.value.DoubleValue
0.201

@<SCITEGIC>MOL_PROPERTY
Angle
SciTegic.value.DoubleValue
2.939

@<SCITEGIC>MOL_PROPERTY
Pdih
SciTegic.value.DoubleValue
5.207

@<SCITEGIC>MOL_PROPERTY
Idih
SciTegic.value.DoubleValue
0.002

@<SCITEGIC>MOL_PROPERTY
Tether
SciTegic.value.DoubleValue
0.000

@<TRIPOS>MOLECULE
guest-s21_vm2.mol2 : vm2 ligand conformer 41
          22          21           1
SMALL
USER_CHARGES
 
@<TRIPOS>ATOM
       1    C1      20.282799   19.082585   25.648453 C.2        1 MOL1         0.6145
       2    O1      20.705376   20.181362   25.949592 O.co2      1 MOL1        -0.6735
       3    O2      20.028965   18.214095   26.459549 O.co2      1 MOL1        -0.6735
       4    C2      20.036397   18.784601   24.173837 C.3        1 MOL1        -0.1985
       5    H1      20.200451   17.712843   24.010433 H          1 MOL1         0.0740
       6    H2      20.792766   19.326982   23.595514 H          1 MOL1         0.0740
       7    C3      18.613519   19.186276   23.709928 C.3        1 MOL1        -0.1882
       8    H3      17.880352   18.736306   24.393607 H          1 MOL1         0.0742
       9    H4      18.495920   20.274460   23.806265 H          1 MOL1         0.0742
      10    C4      18.267019   18.752518   22.263395 C.3        1 MOL1        -0.1880
      11    H5      17.226664   19.047884   22.070090 H          1 MOL1         0.0742
      12    H6      18.285708   17.656998   22.183134 H          1 MOL1         0.0742
      13    C5      19.160228   19.387201   21.167464 C.3        1 MOL1        -0.1880
      14    H7      18.537367   19.590799   20.285656 H          1 MOL1         0.0742
      15    H8      19.538107   20.361665   21.505974 H          1 MOL1         0.0742
      16    C6      20.331376   18.478055   20.728579 C.3        1 MOL1        -0.1856
      17    H9      19.934758   17.530278   20.339212 H          1 MOL1         0.0742
      18    H10     20.965607   18.223863   21.586194 H          1 MOL1         0.0742
      19    C7      21.194322   19.152308   19.643204 C.3        1 MOL1        -0.2871
      20    H11     20.595785   19.383378   18.752310 H          1 MOL1         0.0754
      21    H12     22.016492   18.492356   19.337374 H          1 MOL1         0.0754
      22    H13     21.631413   20.088265   20.015083 H          1 MOL1         0.0754
@<TRIPOS>BOND
    1     1     2    1
    2     1     3    2
    3     1     4    1
    4     4     5    1
    5     4     6    1
    6     4     7    1
    7     7     8    1
    8     7     9    1
    9     7    10    1
   10    10    11    1
   11    10    12    1
   12    10    13    1
   13    13    14    1
   14    13    15    1
   15    13    16    1
   16    16    17    1
   17    16    18    1
   18    16    19    1
   19    19    20    1
   20    19    21    1
   21    19    22    1
@<TRIPOS>SUBSTRUCTURE
       1 MOL1            1 RESIDUE      1      MOL     
@<SCITEGIC>MOL_PROPERTY
VM2 Rank
SciTegic.value.IntegerValue
41

@<SCITEGIC>MOL_PROPERTY
Conf_Id
SciTegic.value.IntegerValue
5

@<SCITEGIC>MOL_PROPERTY
Probability
SciTegic.value.DoubleValue
0.05

@<SCITEGIC>MOL_PROPERTY
Sum Probability
SciTegic.value.DoubleValue
99.55

@<SCITEGIC>MOL_PROPERTY
Delta G
SciTegic.value.DoubleValue
3.830

@<SCITEGIC>MOL_PROPERTY
G
SciTegic.value.DoubleValue
-13.168

@<SCITEGIC>MOL_PROPERTY
E
SciTegic.value.DoubleValue
-33.108

@<SCITEGIC>MOL_PROPERTY
-TS
SciTegic.value.DoubleValue
19.939

@<SCITEGIC>MOL_PROPERTY
U+W
SciTegic.value.DoubleValue
-50.993

@<SCITEGIC>MOL_PROPERTY
U
SciTegic.value.DoubleValue
10.045

@<SCITEGIC>MOL_PROPERTY
W
SciTegic.value.DoubleValue
-61.037

@<SCITEGIC>MOL_PROPERTY
W(PB)
SciTegic.value.DoubleValue
-63.303

@<SCITEGIC>MOL_PROPERTY
W(SA)
SciTegic.value.DoubleValue
2.266

@<SCITEGIC>MOL_PROPERTY
Valence
SciTegic.value.DoubleValue
10.100

@<SCITEGIC>MOL_PROPERTY
Coulomb
SciTegic.value.DoubleValue
-0.883

@<SCITEGIC>MOL_PROPERTY
VdW
SciTegic.value.DoubleValue
0.828

@<SCITEGIC>MOL_PROPERTY
VdW6
SciTegic.value.DoubleValue
-8.177

@<SCITEGIC>MOL_PROPERTY
VdW12
SciTegic.value.DoubleValue
9.005

@<SCITEGIC>MOL_PROPERTY
Bond
SciTegic.value.DoubleValue
0.182

@<SCITEGIC>MOL_PROPERTY
Angle
SciTegic.value.DoubleValue
2.988

@<SCITEGIC>MOL_PROPERTY
Pdih
SciTegic.value.DoubleValue
6.930

@<SCITEGIC>MOL_PROPERTY
Idih
SciTegic.value.DoubleValue
0.001

@<SCITEGIC>MOL_PROPERTY
Tether
SciTegic.value.DoubleValue
0.000

@<TRIPOS>MOLECULE
guest-s21_vm2.mol2 : vm2 ligand conformer 42
          22          21           1
SMALL
USER_CHARGES
 
@<TRIPOS>ATOM
       1    C1      20.256136   19.279070   25.223828 C.2        1 MOL1         0.6145
       2    O1      20.783026   20.367953   25.106445 O.co2      1 MOL1        -0.6735
       3    O2      20.854871   18.278076   25.565909 O.co2      1 MOL1        -0.6735
       4    C2      18.748622   19.180721   24.997593 C.3        1 MOL1        -0.1985
       5    H1      18.359626   20.175620   24.749193 H          1 MOL1         0.0740
       6    H2      18.309575   18.904566   25.963257 H          1 MOL1         0.0740
       7    C3      18.304310   18.145858   23.925806 C.3        1 MOL1        -0.1882
       8    H3      18.859862   17.207064   24.058475 H          1 MOL1         0.0742
       9    H4      17.249346   17.900655   24.108419 H          1 MOL1         0.0742
      10    C4      18.428116   18.633869   22.461078 C.3        1 MOL1        -0.1880
      11    H5      17.864009   19.567883   22.333682 H          1 MOL1         0.0742
      12    H6      17.945595   17.890890   21.811363 H          1 MOL1         0.0742
      13    C5      19.884442   18.837612   21.985567 C.3        1 MOL1        -0.1880
      14    H7      20.344331   19.667379   22.536974 H          1 MOL1         0.0742
      15    H8      20.474408   17.937711   22.207302 H          1 MOL1         0.0742
      16    C6      19.953737   19.141994   20.474112 C.3        1 MOL1        -0.1856
      17    H9      19.362703   20.040935   20.250507 H          1 MOL1         0.0742
      18    H10     19.504237   18.314702   19.907639 H          1 MOL1         0.0742
      19    C7      21.406739   19.353846   20.003664 C.3        1 MOL1        -0.2871
      20    H11     21.871535   20.196189   20.532741 H          1 MOL1         0.0754
      21    H12     21.437796   19.570125   18.927893 H          1 MOL1         0.0754
      22    H13     22.013352   18.457362   20.187255 H          1 MOL1         0.0754
@<TRIPOS>BOND
    1     1     2    1
    2     1     3    2
    3     1     4    1
    4     4     5    1
    5     4     6    1
    6     4     7    1
    7     7     8    1
    8     7     9    1
    9     7    10    1
   10    10    11    1
   11    10    12    1
   12    10    13    1
   13    13    14    1
   14    13    15    1
   15    13    16    1
   16    16    17    1
   17    16    18    1
   18    16    19    1
   19    19    20    1
   20    19    21    1
   21    19    22    1
@<TRIPOS>SUBSTRUCTURE
       1 MOL1            1 RESIDUE      1      MOL     
@<SCITEGIC>MOL_PROPERTY
VM2 Rank
SciTegic.value.IntegerValue
42

@<SCITEGIC>MOL_PROPERTY
Conf_Id
SciTegic.value.IntegerValue
269

@<SCITEGIC>MOL_PROPERTY
Probability
SciTegic.value.DoubleValue
0.05

@<SCITEGIC>MOL_PROPERTY
Sum Probability
SciTegic.value.DoubleValue
99.61

@<SCITEGIC>MOL_PROPERTY
Delta G
SciTegic.value.DoubleValue
3.842

@<SCITEGIC>MOL_PROPERTY
G
SciTegic.value.DoubleValue
-13.156

@<SCITEGIC>MOL_PROPERTY
E
SciTegic.value.DoubleValue
-33.344

@<SCITEGIC>MOL_PROPERTY
-TS
SciTegic.value.DoubleValue
20.188

@<SCITEGIC>MOL_PROPERTY
U+W
SciTegic.value.DoubleValue
-51.229

@<SCITEGIC>MOL_PROPERTY
U
SciTegic.value.DoubleValue
11.237

@<SCITEGIC>MOL_PROPERTY
W
SciTegic.value.DoubleValue
-62.466

@<SCITEGIC>MOL_PROPERTY
W(PB)
SciTegic.value.DoubleValue
-64.731

@<SCITEGIC>MOL_PROPERTY
W(SA)
SciTegic.value.DoubleValue
2.265

@<SCITEGIC>MOL_PROPERTY
Valence
SciTegic.value.DoubleValue
9.029

@<SCITEGIC>MOL_PROPERTY
Coulomb
SciTegic.value.DoubleValue
1.667

@<SCITEGIC>MOL_PROPERTY
VdW
SciTegic.value.DoubleValue
0.540

@<SCITEGIC>MOL_PROPERTY
VdW6
SciTegic.value.DoubleValue
-8.824

@<SCITEGIC>MOL_PROPERTY
VdW12
SciTegic.value.DoubleValue
9.364

@<SCITEGIC>MOL_PROPERTY
Bond
SciTegic.value.DoubleValue
0.186

@<SCITEGIC>MOL_PROPERTY
Angle
SciTegic.value.DoubleValue
3.195

@<SCITEGIC>MOL_PROPERTY
Pdih
SciTegic.value.DoubleValue
5.641

@<SCITEGIC>MOL_PROPERTY
Idih
SciTegic.value.DoubleValue
0.007

@<SCITEGIC>MOL_PROPERTY
Tether
SciTegic.value.DoubleValue
0.000

@<TRIPOS>MOLECULE
guest-s21_vm2.mol2 : vm2 ligand conformer 43
          22          21           1
SMALL
USER_CHARGES
 
@<TRIPOS>ATOM
       1    C1      19.648095   19.369850   25.771466 C.2        1 MOL1         0.6145
       2    O1      20.478708   20.118492   26.247004 O.co2      1 MOL1        -0.6735
       3    O2      18.465461   19.414734   26.046868 O.co2      1 MOL1        -0.6735
       4    C2      20.113042   18.327401   24.760782 C.3        1 MOL1        -0.1985
       5    H1      19.468721   17.445516   24.859562 H          1 MOL1         0.0740
       6    H2      21.129500   18.018890   25.033175 H          1 MOL1         0.0740
       7    C3      20.084367   18.848899   23.302888 C.3        1 MOL1        -0.1882
       8    H3      19.061533   19.166929   23.062379 H          1 MOL1         0.0742
       9    H4      20.728594   19.735127   23.220782 H          1 MOL1         0.0742
      10    C4      20.547273   17.770667   22.297918 C.3        1 MOL1        -0.1880
      11    H5      19.844246   16.926729   22.318346 H          1 MOL1         0.0742
      12    H6      21.517313   17.371672   22.624592 H          1 MOL1         0.0742
      13    C5      20.697996   18.279830   20.842429 C.3        1 MOL1        -0.1880
      14    H7      21.467642   19.062309   20.794533 H          1 MOL1         0.0742
      15    H8      21.082870   17.445985   20.239548 H          1 MOL1         0.0742
      16    C6      19.384336   18.778964   20.190479 C.3        1 MOL1        -0.1856
      17    H9      18.520021   18.263779   20.631826 H          1 MOL1         0.0742
      18    H10     19.393661   18.503193   19.126918 H          1 MOL1         0.0742
      19    C7      19.200722   20.310164   20.284167 C.3        1 MOL1        -0.2871
      20    H11     18.265670   20.615000   19.796755 H          1 MOL1         0.0754
      21    H12     20.025907   20.833392   19.783793 H          1 MOL1         0.0754
      22    H13     19.163378   20.654423   21.323881 H          1 MOL1         0.0754
@<TRIPOS>BOND
    1     1     2    1
    2     1     3    2
    3     1     4    1
    4     4     5    1
    5     4     6    1
    6     4     7    1
    7     7     8    1
    8     7     9    1
    9     7    10    1
   10    10    11    1
   11    10    12    1
   12    10    13    1
   13    13    14    1
   14    13    15    1
   15    13    16    1
   16    16    17    1
   17    16    18    1
   18    16    19    1
   19    19    20    1
   20    19    21    1
   21    19    22    1
@<TRIPOS>SUBSTRUCTURE
       1 MOL1            1 RESIDUE      1      MOL     
@<SCITEGIC>MOL_PROPERTY
VM2 Rank
SciTegic.value.IntegerValue
43

@<SCITEGIC>MOL_PROPERTY
Conf_Id
SciTegic.value.IntegerValue
346

@<SCITEGIC>MOL_PROPERTY
Probability
SciTegic.value.DoubleValue
0.04

@<SCITEGIC>MOL_PROPERTY
Sum Probability
SciTegic.value.DoubleValue
99.65

@<SCITEGIC>MOL_PROPERTY
Delta G
SciTegic.value.DoubleValue
3.935

@<SCITEGIC>MOL_PROPERTY
G
SciTegic.value.DoubleValue
-13.064

@<SCITEGIC>MOL_PROPERTY
E
SciTegic.value.DoubleValue
-32.972

@<SCITEGIC>MOL_PROPERTY
-TS
SciTegic.value.DoubleValue
19.909

@<SCITEGIC>MOL_PROPERTY
U+W
SciTegic.value.DoubleValue
-50.857

@<SCITEGIC>MOL_PROPERTY
U
SciTegic.value.DoubleValue
10.452

@<SCITEGIC>MOL_PROPERTY
W
SciTegic.value.DoubleValue
-61.309

@<SCITEGIC>MOL_PROPERTY
W(PB)
SciTegic.value.DoubleValue
-63.579

@<SCITEGIC>MOL_PROPERTY
W(SA)
SciTegic.value.DoubleValue
2.270

@<SCITEGIC>MOL_PROPERTY
Valence
SciTegic.value.DoubleValue
10.097

@<SCITEGIC>MOL_PROPERTY
Coulomb
SciTegic.value.DoubleValue
-0.504

@<SCITEGIC>MOL_PROPERTY
VdW
SciTegic.value.DoubleValue
0.859

@<SCITEGIC>MOL_PROPERTY
VdW6
SciTegic.value.DoubleValue
-8.064

@<SCITEGIC>MOL_PROPERTY
VdW12
SciTegic.value.DoubleValue
8.924

@<SCITEGIC>MOL_PROPERTY
Bond
SciTegic.value.DoubleValue
0.175

@<SCITEGIC>MOL_PROPERTY
Angle
SciTegic.value.DoubleValue
2.998

@<SCITEGIC>MOL_PROPERTY
Pdih
SciTegic.value.DoubleValue
6.924

@<SCITEGIC>MOL_PROPERTY
Idih
SciTegic.value.DoubleValue
0.000

@<SCITEGIC>MOL_PROPERTY
Tether
SciTegic.value.DoubleValue
0.000

@<TRIPOS>MOLECULE
guest-s21_vm2.mol2 : vm2 ligand conformer 44
          22          21           1
SMALL
USER_CHARGES
 
@<TRIPOS>ATOM
       1    C1      19.854117   18.723604   25.666822 C.2        1 MOL1         0.6145
       2    O1      19.525877   19.370300   26.641845 O.co2      1 MOL1        -0.6735
       3    O2      20.681340   17.834089   25.696625 O.co2      1 MOL1        -0.6735
       4    C2      19.207268   19.061061   24.328360 C.3        1 MOL1        -0.1985
       5    H1      18.180868   19.394023   24.523279 H          1 MOL1         0.0740
       6    H2      19.136939   18.136299   23.747271 H          1 MOL1         0.0740
       7    C3      19.981276   20.155461   23.546766 C.3        1 MOL1        -0.1882
       8    H3      20.004477   21.061577   24.167935 H          1 MOL1         0.0742
       9    H4      21.028624   19.853178   23.408667 H          1 MOL1         0.0742
      10    C4      19.339371   20.506727   22.180578 C.3        1 MOL1        -0.1880
      11    H5      19.468746   21.584142   22.009159 H          1 MOL1         0.0742
      12    H6      18.254277   20.338496   22.214946 H          1 MOL1         0.0742
      13    C5      19.954342   19.765397   20.967027 C.3        1 MOL1        -0.1880
      14    H7      19.476836   20.145672   20.053645 H          1 MOL1         0.0742
      15    H8      21.019946   20.019870   20.885768 H          1 MOL1         0.0742
      16    C6      19.796880   18.229975   21.012291 C.3        1 MOL1        -0.1856
      17    H9      18.743947   17.968830   21.185899 H          1 MOL1         0.0742
      18    H10     20.377064   17.820575   21.849735 H          1 MOL1         0.0742
      19    C7      20.279529   17.572386   19.703686 C.3        1 MOL1        -0.2871
      20    H11     19.697020   17.931021   18.844978 H          1 MOL1         0.0754
      21    H12     20.169212   16.481448   19.755774 H          1 MOL1         0.0754
      22    H13     21.337985   17.797675   19.518560 H          1 MOL1         0.0754
@<TRIPOS>BOND
    1     1     2    1
    2     1     3    2
    3     1     4    1
    4     4     5    1
    5     4     6    1
    6     4     7    1
    7     7     8    1
    8     7     9    1
    9     7    10    1
   10    10    11    1
   11    10    12    1
   12    10    13    1
   13    13    14    1
   14    13    15    1
   15    13    16    1
   16    16    17    1
   17    16    18    1
   18    16    19    1
   19    19    20    1
   20    19    21    1
   21    19    22    1
@<TRIPOS>SUBSTRUCTURE
       1 MOL1            1 RESIDUE      1      MOL     
@<SCITEGIC>MOL_PROPERTY
VM2 Rank
SciTegic.value.IntegerValue
44

@<SCITEGIC>MOL_PROPERTY
Conf_Id
SciTegic.value.IntegerValue
730

@<SCITEGIC>MOL_PROPERTY
Probability
SciTegic.value.DoubleValue
0.04

@<SCITEGIC>MOL_PROPERTY
Sum Probability
SciTegic.value.DoubleValue
99.69

@<SCITEGIC>MOL_PROPERTY
Delta G
SciTegic.value.DoubleValue
3.972

@<SCITEGIC>MOL_PROPERTY
G
SciTegic.value.DoubleValue
-13.026

@<SCITEGIC>MOL_PROPERTY
E
SciTegic.value.DoubleValue
-32.972

@<SCITEGIC>MOL_PROPERTY
-TS
SciTegic.value.DoubleValue
19.946

@<SCITEGIC>MOL_PROPERTY
U+W
SciTegic.value.DoubleValue
-50.856

@<SCITEGIC>MOL_PROPERTY
U
SciTegic.value.DoubleValue
10.205

@<SCITEGIC>MOL_PROPERTY
W
SciTegic.value.DoubleValue
-61.061

@<SCITEGIC>MOL_PROPERTY
W(PB)
SciTegic.value.DoubleValue
-63.328

@<SCITEGIC>MOL_PROPERTY
W(SA)
SciTegic.value.DoubleValue
2.267

@<SCITEGIC>MOL_PROPERTY
Valence
SciTegic.value.DoubleValue
10.107

@<SCITEGIC>MOL_PROPERTY
Coulomb
SciTegic.value.DoubleValue
-0.699

@<SCITEGIC>MOL_PROPERTY
VdW
SciTegic.value.DoubleValue
0.797

@<SCITEGIC>MOL_PROPERTY
VdW6
SciTegic.value.DoubleValue
-8.212

@<SCITEGIC>MOL_PROPERTY
VdW12
SciTegic.value.DoubleValue
9.009

@<SCITEGIC>MOL_PROPERTY
Bond
SciTegic.value.DoubleValue
0.191

@<SCITEGIC>MOL_PROPERTY
Angle
SciTegic.value.DoubleValue
3.004

@<SCITEGIC>MOL_PROPERTY
Pdih
SciTegic.value.DoubleValue
6.911

@<SCITEGIC>MOL_PROPERTY
Idih
SciTegic.value.DoubleValue
0.001

@<SCITEGIC>MOL_PROPERTY
Tether
SciTegic.value.DoubleValue
0.000

@<TRIPOS>MOLECULE
guest-s21_vm2.mol2 : vm2 ligand conformer 45
          22          21           1
SMALL
USER_CHARGES
 
@<TRIPOS>ATOM
       1    C1      20.018231   19.327648   25.819572 C.2        1 MOL1         0.6145
       2    O1      20.535946   20.418803   25.953032 O.co2      1 MOL1        -0.6735
       3    O2      20.227625   18.388180   26.561254 O.co2      1 MOL1        -0.6735
       4    C2      19.067467   19.120217   24.645967 C.3        1 MOL1        -0.1985
       5    H1      18.565402   20.073509   24.441524 H          1 MOL1         0.0740
       6    H2      18.294748   18.406326   24.955510 H          1 MOL1         0.0740
       7    C3      19.786139   18.611946   23.371925 C.3        1 MOL1        -0.1882
       8    H3      20.569296   19.327295   23.093293 H          1 MOL1         0.0742
       9    H4      20.293023   17.663660   23.597853 H          1 MOL1         0.0742
      10    C4      18.797890   18.404387   22.199949 C.3        1 MOL1        -0.1880
      11    H5      18.243924   19.331272   21.997722 H          1 MOL1         0.0742
      12    H6      18.049974   17.662051   22.510664 H          1 MOL1         0.0742
      13    C5      19.480722   17.900115   20.903300 C.3        1 MOL1        -0.1880
      14    H7      20.375446   17.311384   21.147703 H          1 MOL1         0.0742
      15    H8      18.792956   17.204048   20.403942 H          1 MOL1         0.0742
      16    C6      19.837159   19.011977   19.885788 C.3        1 MOL1        -0.1856
      17    H9      18.922511   19.538784   19.580627 H          1 MOL1         0.0742
      18    H10     20.236215   18.538659   18.978103 H          1 MOL1         0.0742
      19    C7      20.868821   20.035725   20.403213 C.3        1 MOL1        -0.2871
      20    H11     20.448312   20.647116   21.211320 H          1 MOL1         0.0754
      21    H12     21.171347   20.716574   19.597179 H          1 MOL1         0.0754
      22    H13     21.769636   19.532641   20.777946 H          1 MOL1         0.0754
@<TRIPOS>BOND
    1     1     2    1
    2     1     3    2
    3     1     4    1
    4     4     5    1
    5     4     6    1
    6     4     7    1
    7     7     8    1
    8     7     9    1
    9     7    10    1
   10    10    11    1
   11    10    12    1
   12    10    13    1
   13    13    14    1
   14    13    15    1
   15    13    16    1
   16    16    17    1
   17    16    18    1
   18    16    19    1
   19    19    20    1
   20    19    21    1
   21    19    22    1
@<TRIPOS>SUBSTRUCTURE
       1 MOL1            1 RESIDUE      1      MOL     
@<SCITEGIC>MOL_PROPERTY
VM2 Rank
SciTegic.value.IntegerValue
45

@<SCITEGIC>MOL_PROPERTY
Conf_Id
SciTegic.value.IntegerValue
530

@<SCITEGIC>MOL_PROPERTY
Probability
SciTegic.value.DoubleValue
0.04

@<SCITEGIC>MOL_PROPERTY
Sum Probability
SciTegic.value.DoubleValue
99.73

@<SCITEGIC>MOL_PROPERTY
Delta G
SciTegic.value.DoubleValue
3.974

@<SCITEGIC>MOL_PROPERTY
G
SciTegic.value.DoubleValue
-13.025

@<SCITEGIC>MOL_PROPERTY
E
SciTegic.value.DoubleValue
-32.933

@<SCITEGIC>MOL_PROPERTY
-TS
SciTegic.value.DoubleValue
19.908

@<SCITEGIC>MOL_PROPERTY
U+W
SciTegic.value.DoubleValue
-50.817

@<SCITEGIC>MOL_PROPERTY
U
SciTegic.value.DoubleValue
10.295

@<SCITEGIC>MOL_PROPERTY
W
SciTegic.value.DoubleValue
-61.113

@<SCITEGIC>MOL_PROPERTY
W(PB)
SciTegic.value.DoubleValue
-63.368

@<SCITEGIC>MOL_PROPERTY
W(SA)
SciTegic.value.DoubleValue
2.256

@<SCITEGIC>MOL_PROPERTY
Valence
SciTegic.value.DoubleValue
10.075

@<SCITEGIC>MOL_PROPERTY
Coulomb
SciTegic.value.DoubleValue
-0.615

@<SCITEGIC>MOL_PROPERTY
VdW
SciTegic.value.DoubleValue
0.835

@<SCITEGIC>MOL_PROPERTY
VdW6
SciTegic.value.DoubleValue
-8.072

@<SCITEGIC>MOL_PROPERTY
VdW12
SciTegic.value.DoubleValue
8.907

@<SCITEGIC>MOL_PROPERTY
Bond
SciTegic.value.DoubleValue
0.176

@<SCITEGIC>MOL_PROPERTY
Angle
SciTegic.value.DoubleValue
2.976

@<SCITEGIC>MOL_PROPERTY
Pdih
SciTegic.value.DoubleValue
6.922

@<SCITEGIC>MOL_PROPERTY
Idih
SciTegic.value.DoubleValue
0.000

@<SCITEGIC>MOL_PROPERTY
Tether
SciTegic.value.DoubleValue
0.000

@<TRIPOS>MOLECULE
guest-s21_vm2.mol2 : vm2 ligand conformer 46
          22          21           1
SMALL
USER_CHARGES
 
@<TRIPOS>ATOM
       1    C1      19.812075   19.503648   25.636870 C.2        1 MOL1         0.6145
       2    O1      20.538612   20.476699   25.595194 O.co2      1 MOL1        -0.6735
       3    O2      19.551446   18.901697   26.659786 O.co2      1 MOL1        -0.6735
       4    C2      19.210672   18.997371   24.330819 C.3        1 MOL1        -0.1985
       5    H1      19.043762   19.862105   23.681071 H          1 MOL1         0.0740
       6    H2      18.225198   18.571947   24.554895 H          1 MOL1         0.0740
       7    C3      20.100940   17.935948   23.631893 C.3        1 MOL1        -0.1882
       8    H3      21.110328   18.337521   23.466797 H          1 MOL1         0.0742
       9    H4      20.218761   17.087659   24.320341 H          1 MOL1         0.0742
      10    C4      19.506104   17.414481   22.299173 C.3        1 MOL1        -0.1880
      11    H5      18.409086   17.467319   22.325068 H          1 MOL1         0.0742
      12    H6      19.751161   16.347269   22.209985 H          1 MOL1         0.0742
      13    C5      20.042879   18.122731   21.030031 C.3        1 MOL1        -0.1880
      14    H7      21.129970   17.978685   20.964025 H          1 MOL1         0.0742
      15    H8      19.612707   17.624769   20.150329 H          1 MOL1         0.0742
      16    C6      19.721289   19.631320   20.958589 C.3        1 MOL1        -0.1856
      17    H9      20.250680   20.163376   21.759960 H          1 MOL1         0.0742
      18    H10     18.645693   19.790392   21.116049 H          1 MOL1         0.0742
      19    C7      20.135983   20.235105   19.601646 C.3        1 MOL1        -0.2871
      20    H11     19.908949   21.308665   19.570744 H          1 MOL1         0.0754
      21    H12     19.598931   19.751495   18.775201 H          1 MOL1         0.0754
      22    H13     21.213273   20.111306   19.429954 H          1 MOL1         0.0754
@<TRIPOS>BOND
    1     1     2    1
    2     1     3    2
    3     1     4    1
    4     4     5    1
    5     4     6    1
    6     4     7    1
    7     7     8    1
    8     7     9    1
    9     7    10    1
   10    10    11    1
   11    10    12    1
   12    10    13    1
   13    13    14    1
   14    13    15    1
   15    13    16    1
   16    16    17    1
   17    16    18    1
   18    16    19    1
   19    19    20    1
   20    19    21    1
   21    19    22    1
@<TRIPOS>SUBSTRUCTURE
       1 MOL1            1 RESIDUE      1      MOL     
@<SCITEGIC>MOL_PROPERTY
VM2 Rank
SciTegic.value.IntegerValue
46

@<SCITEGIC>MOL_PROPERTY
Conf_Id
SciTegic.value.IntegerValue
756

@<SCITEGIC>MOL_PROPERTY
Probability
SciTegic.value.DoubleValue
0.04

@<SCITEGIC>MOL_PROPERTY
Sum Probability
SciTegic.value.DoubleValue
99.77

@<SCITEGIC>MOL_PROPERTY
Delta G
SciTegic.value.DoubleValue
3.975

@<SCITEGIC>MOL_PROPERTY
G
SciTegic.value.DoubleValue
-13.023

@<SCITEGIC>MOL_PROPERTY
E
SciTegic.value.DoubleValue
-32.970

@<SCITEGIC>MOL_PROPERTY
-TS
SciTegic.value.DoubleValue
19.946

@<SCITEGIC>MOL_PROPERTY
U+W
SciTegic.value.DoubleValue
-50.855

@<SCITEGIC>MOL_PROPERTY
U
SciTegic.value.DoubleValue
10.205

@<SCITEGIC>MOL_PROPERTY
W
SciTegic.value.DoubleValue
-61.060

@<SCITEGIC>MOL_PROPERTY
W(PB)
SciTegic.value.DoubleValue
-63.313

@<SCITEGIC>MOL_PROPERTY
W(SA)
SciTegic.value.DoubleValue
2.253

@<SCITEGIC>MOL_PROPERTY
Valence
SciTegic.value.DoubleValue
10.107

@<SCITEGIC>MOL_PROPERTY
Coulomb
SciTegic.value.DoubleValue
-0.699

@<SCITEGIC>MOL_PROPERTY
VdW
SciTegic.value.DoubleValue
0.797

@<SCITEGIC>MOL_PROPERTY
VdW6
SciTegic.value.DoubleValue
-8.212

@<SCITEGIC>MOL_PROPERTY
VdW12
SciTegic.value.DoubleValue
9.009

@<SCITEGIC>MOL_PROPERTY
Bond
SciTegic.value.DoubleValue
0.191

@<SCITEGIC>MOL_PROPERTY
Angle
SciTegic.value.DoubleValue
3.004

@<SCITEGIC>MOL_PROPERTY
Pdih
SciTegic.value.DoubleValue
6.911

@<SCITEGIC>MOL_PROPERTY
Idih
SciTegic.value.DoubleValue
0.001

@<SCITEGIC>MOL_PROPERTY
Tether
SciTegic.value.DoubleValue
0.000

@<TRIPOS>MOLECULE
guest-s21_vm2.mol2 : vm2 ligand conformer 47
          22          21           1
SMALL
USER_CHARGES
 
@<TRIPOS>ATOM
       1    C1      19.675586   18.849239   25.791432 C.2        1 MOL1         0.6145
       2    O1      18.503088   18.701280   26.073994 O.co2      1 MOL1        -0.6735
       3    O2      20.578361   18.230751   26.319623 O.co2      1 MOL1        -0.6735
       4    C2      20.032502   19.854529   24.702229 C.3        1 MOL1        -0.1985
       5    H1      21.009798   20.288050   24.946185 H          1 MOL1         0.0740
       6    H2      19.298676   20.668771   24.735953 H          1 MOL1         0.0740
       7    C3      20.064693   19.223092   23.288548 C.3        1 MOL1        -0.1882
       8    H3      20.798824   18.405817   23.271776 H          1 MOL1         0.0742
       9    H4      19.081932   18.781879   23.077147 H          1 MOL1         0.0742
      10    C4      20.415768   20.264085   22.202312 C.3        1 MOL1        -0.1880
      11    H5      21.337230   20.786526   22.493608 H          1 MOL1         0.0742
      12    H6      19.627912   21.028599   22.161124 H          1 MOL1         0.0742
      13    C5      20.624910   19.663934   20.789339 C.3        1 MOL1        -0.1880
      14    H7      20.922435   20.485115   20.122985 H          1 MOL1         0.0742
      15    H8      21.472687   18.965279   20.798176 H          1 MOL1         0.0742
      16    C6      19.373548   18.981239   20.182791 C.3        1 MOL1        -0.1856
      17    H9      19.357983   19.174542   19.101267 H          1 MOL1         0.0742
      18    H10     18.458151   19.434874   20.587153 H          1 MOL1         0.0742
      19    C7      19.351545   17.450852   20.393732 C.3        1 MOL1        -0.2871
      20    H11     20.229066   16.980617   19.931231 H          1 MOL1         0.0754
      21    H12     18.455590   17.013148   19.934930 H          1 MOL1         0.0754
      22    H13     19.346619   17.184888   21.456820 H          1 MOL1         0.0754
@<TRIPOS>BOND
    1     1     2    1
    2     1     3    2
    3     1     4    1
    4     4     5    1
    5     4     6    1
    6     4     7    1
    7     7     8    1
    8     7     9    1
    9     7    10    1
   10    10    11    1
   11    10    12    1
   12    10    13    1
   13    13    14    1
   14    13    15    1
   15    13    16    1
   16    16    17    1
   17    16    18    1
   18    16    19    1
   19    19    20    1
   20    19    21    1
   21    19    22    1
@<TRIPOS>SUBSTRUCTURE
       1 MOL1            1 RESIDUE      1      MOL     
@<SCITEGIC>MOL_PROPERTY
VM2 Rank
SciTegic.value.IntegerValue
47

@<SCITEGIC>MOL_PROPERTY
Conf_Id
SciTegic.value.IntegerValue
160

@<SCITEGIC>MOL_PROPERTY
Probability
SciTegic.value.DoubleValue
0.04

@<SCITEGIC>MOL_PROPERTY
Sum Probability
SciTegic.value.DoubleValue
99.81

@<SCITEGIC>MOL_PROPERTY
Delta G
SciTegic.value.DoubleValue
3.997

@<SCITEGIC>MOL_PROPERTY
G
SciTegic.value.DoubleValue
-13.002

@<SCITEGIC>MOL_PROPERTY
E
SciTegic.value.DoubleValue
-32.911

@<SCITEGIC>MOL_PROPERTY
-TS
SciTegic.value.DoubleValue
19.909

@<SCITEGIC>MOL_PROPERTY
U+W
SciTegic.value.DoubleValue
-50.795

@<SCITEGIC>MOL_PROPERTY
U
SciTegic.value.DoubleValue
10.452

@<SCITEGIC>MOL_PROPERTY
W
SciTegic.value.DoubleValue
-61.248

@<SCITEGIC>MOL_PROPERTY
W(PB)
SciTegic.value.DoubleValue
-63.526

@<SCITEGIC>MOL_PROPERTY
W(SA)
SciTegic.value.DoubleValue
2.278

@<SCITEGIC>MOL_PROPERTY
Valence
SciTegic.value.DoubleValue
10.097

@<SCITEGIC>MOL_PROPERTY
Coulomb
SciTegic.value.DoubleValue
-0.504

@<SCITEGIC>MOL_PROPERTY
VdW
SciTegic.value.DoubleValue
0.859

@<SCITEGIC>MOL_PROPERTY
VdW6
SciTegic.value.DoubleValue
-8.064

@<SCITEGIC>MOL_PROPERTY
VdW12
SciTegic.value.DoubleValue
8.923

@<SCITEGIC>MOL_PROPERTY
Bond
SciTegic.value.DoubleValue
0.175

@<SCITEGIC>MOL_PROPERTY
Angle
SciTegic.value.DoubleValue
2.998

@<SCITEGIC>MOL_PROPERTY
Pdih
SciTegic.value.DoubleValue
6.924

@<SCITEGIC>MOL_PROPERTY
Idih
SciTegic.value.DoubleValue
0.000

@<SCITEGIC>MOL_PROPERTY
Tether
SciTegic.value.DoubleValue
0.000

@<TRIPOS>MOLECULE
guest-s21_vm2.mol2 : vm2 ligand conformer 48
          22          21           1
SMALL
USER_CHARGES
 
@<TRIPOS>ATOM
       1    C1      19.995996   19.342957   25.819040 C.2        1 MOL1         0.6145
       2    O1      20.825122   20.220129   25.958965 O.co2      1 MOL1        -0.6735
       3    O2      19.023279   19.215788   26.536111 O.co2      1 MOL1        -0.6735
       4    C2      20.176464   18.358014   24.669412 C.3        1 MOL1        -0.1985
       5    H1      19.777906   17.386978   24.986895 H          1 MOL1         0.0740
       6    H2      21.251762   18.227230   24.498356 H          1 MOL1         0.0740
       7    C3      19.481465   18.821291   23.365435 C.3        1 MOL1        -0.1882
       8    H3      18.408488   18.958770   23.557895 H          1 MOL1         0.0742
       9    H4      19.876739   19.803213   23.078590 H          1 MOL1         0.0742
      10    C4      19.675255   17.801375   22.218500 C.3        1 MOL1        -0.1880
      11    H5      19.241224   16.843311   22.535855 H          1 MOL1         0.0742
      12    H6      20.744431   17.612722   22.050681 H          1 MOL1         0.0742
      13    C5      18.997521   18.232199   20.893014 C.3        1 MOL1        -0.1880
      14    H7      18.608532   17.330834   20.399943 H          1 MOL1         0.0742
      15    H8      18.120699   18.860894   21.099875 H          1 MOL1         0.0742
      16    C6      19.936875   18.943525   19.887904 C.3        1 MOL1        -0.1856
      17    H9      19.378412   19.128274   18.959920 H          1 MOL1         0.0742
      18    H10     20.764794   18.272831   19.619670 H          1 MOL1         0.0742
      19    C7      20.508023   20.283723   20.395620 C.3        1 MOL1        -0.2871
      20    H11     21.058326   20.794334   19.594864 H          1 MOL1         0.0754
      21    H12     21.205906   20.126505   21.227426 H          1 MOL1         0.0754
      22    H13     19.705196   20.951388   20.734264 H          1 MOL1         0.0754
@<TRIPOS>BOND
    1     1     2    1
    2     1     3    2
    3     1     4    1
    4     4     5    1
    5     4     6    1
    6     4     7    1
    7     7     8    1
    8     7     9    1
    9     7    10    1
   10    10    11    1
   11    10    12    1
   12    10    13    1
   13    13    14    1
   14    13    15    1
   15    13    16    1
   16    16    17    1
   17    16    18    1
   18    16    19    1
   19    19    20    1
   20    19    21    1
   21    19    22    1
@<TRIPOS>SUBSTRUCTURE
       1 MOL1            1 RESIDUE      1      MOL     
@<SCITEGIC>MOL_PROPERTY
VM2 Rank
SciTegic.value.IntegerValue
48

@<SCITEGIC>MOL_PROPERTY
Conf_Id
SciTegic.value.IntegerValue
381

@<SCITEGIC>MOL_PROPERTY
Probability
SciTegic.value.DoubleValue
0.03

@<SCITEGIC>MOL_PROPERTY
Sum Probability
SciTegic.value.DoubleValue
99.85

@<SCITEGIC>MOL_PROPERTY
Delta G
SciTegic.value.DoubleValue
4.092

@<SCITEGIC>MOL_PROPERTY
G
SciTegic.value.DoubleValue
-12.906

@<SCITEGIC>MOL_PROPERTY
E
SciTegic.value.DoubleValue
-32.814

@<SCITEGIC>MOL_PROPERTY
-TS
SciTegic.value.DoubleValue
19.908

@<SCITEGIC>MOL_PROPERTY
U+W
SciTegic.value.DoubleValue
-50.699

@<SCITEGIC>MOL_PROPERTY
U
SciTegic.value.DoubleValue
10.295

@<SCITEGIC>MOL_PROPERTY
W
SciTegic.value.DoubleValue
-60.994

@<SCITEGIC>MOL_PROPERTY
W(PB)
SciTegic.value.DoubleValue
-63.271

@<SCITEGIC>MOL_PROPERTY
W(SA)
SciTegic.value.DoubleValue
2.277

@<SCITEGIC>MOL_PROPERTY
Valence
SciTegic.value.DoubleValue
10.075

@<SCITEGIC>MOL_PROPERTY
Coulomb
SciTegic.value.DoubleValue
-0.615

@<SCITEGIC>MOL_PROPERTY
VdW
SciTegic.value.DoubleValue
0.835

@<SCITEGIC>MOL_PROPERTY
VdW6
SciTegic.value.DoubleValue
-8.072

@<SCITEGIC>MOL_PROPERTY
VdW12
SciTegic.value.DoubleValue
8.907

@<SCITEGIC>MOL_PROPERTY
Bond
SciTegic.value.DoubleValue
0.176

@<SCITEGIC>MOL_PROPERTY
Angle
SciTegic.value.DoubleValue
2.976

@<SCITEGIC>MOL_PROPERTY
Pdih
SciTegic.value.DoubleValue
6.922

@<SCITEGIC>MOL_PROPERTY
Idih
SciTegic.value.DoubleValue
0.000

@<SCITEGIC>MOL_PROPERTY
Tether
SciTegic.value.DoubleValue
0.000

@<TRIPOS>MOLECULE
guest-s21_vm2.mol2 : vm2 ligand conformer 49
          22          21           1
SMALL
USER_CHARGES
 
@<TRIPOS>ATOM
       1    C1      19.945241   18.996298   25.499737 C.2        1 MOL1         0.6145
       2    O1      19.413298   19.756614   26.284835 O.co2      1 MOL1        -0.6735
       3    O2      19.919474   17.786661   25.614182 O.co2      1 MOL1        -0.6735
       4    C2      20.712851   19.596810   24.325317 C.3        1 MOL1        -0.1985
       5    H1      21.353699   18.820935   23.891131 H          1 MOL1         0.0740
       6    H2      21.383654   20.362833   24.731259 H          1 MOL1         0.0740
       7    C3      19.808054   20.231714   23.234247 C.3        1 MOL1        -0.1882
       8    H3      19.224506   21.043772   23.689283 H          1 MOL1         0.0742
       9    H4      20.439212   20.705138   22.471102 H          1 MOL1         0.0742
      10    C4      18.830350   19.237441   22.556500 C.3        1 MOL1        -0.1880
      11    H5      18.217526   19.783424   21.827383 H          1 MOL1         0.0742
      12    H6      18.126190   18.859698   23.310366 H          1 MOL1         0.0742
      13    C5      19.500580   18.025659   21.857366 C.3        1 MOL1        -0.1880
      14    H7      19.979300   17.390659   22.614834 H          1 MOL1         0.0742
      15    H8      18.715647   17.405057   21.404499 H          1 MOL1         0.0742
      16    C6      20.542285   18.385102   20.769430 C.3        1 MOL1        -0.1856
      17    H9      20.965966   17.453888   20.369150 H          1 MOL1         0.0742
      18    H10     21.381957   18.933505   21.216388 H          1 MOL1         0.0742
      19    C7      19.947868   19.202701   19.602386 C.3        1 MOL1        -0.2871
      20    H11     19.606820   20.189377   19.940158 H          1 MOL1         0.0754
      21    H12     19.095311   18.679299   19.150552 H          1 MOL1         0.0754
      22    H13     20.701756   19.360431   18.820393 H          1 MOL1         0.0754
@<TRIPOS>BOND
    1     1     2    1
    2     1     3    2
    3     1     4    1
    4     4     5    1
    5     4     6    1
    6     4     7    1
    7     7     8    1
    8     7     9    1
    9     7    10    1
   10    10    11    1
   11    10    12    1
   12    10    13    1
   13    13    14    1
   14    13    15    1
   15    13    16    1
   16    16    17    1
   17    16    18    1
   18    16    19    1
   19    19    20    1
   20    19    21    1
   21    19    22    1
@<TRIPOS>SUBSTRUCTURE
       1 MOL1            1 RESIDUE      1      MOL     
@<SCITEGIC>MOL_PROPERTY
VM2 Rank
SciTegic.value.IntegerValue
49

@<SCITEGIC>MOL_PROPERTY
Conf_Id
SciTegic.value.IntegerValue
553

@<SCITEGIC>MOL_PROPERTY
Probability
SciTegic.value.DoubleValue
0.02

@<SCITEGIC>MOL_PROPERTY
Sum Probability
SciTegic.value.DoubleValue
99.86

@<SCITEGIC>MOL_PROPERTY
Delta G
SciTegic.value.DoubleValue
4.563

@<SCITEGIC>MOL_PROPERTY
G
SciTegic.value.DoubleValue
-12.435

@<SCITEGIC>MOL_PROPERTY
E
SciTegic.value.DoubleValue
-33.138

@<SCITEGIC>MOL_PROPERTY
-TS
SciTegic.value.DoubleValue
20.703

@<SCITEGIC>MOL_PROPERTY
U+W
SciTegic.value.DoubleValue
-51.023

@<SCITEGIC>MOL_PROPERTY
U
SciTegic.value.DoubleValue
10.565

@<SCITEGIC>MOL_PROPERTY
W
SciTegic.value.DoubleValue
-61.588

@<SCITEGIC>MOL_PROPERTY
W(PB)
SciTegic.value.DoubleValue
-63.773

@<SCITEGIC>MOL_PROPERTY
W(SA)
SciTegic.value.DoubleValue
2.185

@<SCITEGIC>MOL_PROPERTY
Valence
SciTegic.value.DoubleValue
8.743

@<SCITEGIC>MOL_PROPERTY
Coulomb
SciTegic.value.DoubleValue
1.383

@<SCITEGIC>MOL_PROPERTY
VdW
SciTegic.value.DoubleValue
0.439

@<SCITEGIC>MOL_PROPERTY
VdW6
SciTegic.value.DoubleValue
-10.217

@<SCITEGIC>MOL_PROPERTY
VdW12
SciTegic.value.DoubleValue
10.656

@<SCITEGIC>MOL_PROPERTY
Bond
SciTegic.value.DoubleValue
0.248

@<SCITEGIC>MOL_PROPERTY
Angle
SciTegic.value.DoubleValue
3.454

@<SCITEGIC>MOL_PROPERTY
Pdih
SciTegic.value.DoubleValue
5.041

@<SCITEGIC>MOL_PROPERTY
Idih
SciTegic.value.DoubleValue
0.001

@<SCITEGIC>MOL_PROPERTY
Tether
SciTegic.value.DoubleValue
0.000

@<TRIPOS>MOLECULE
guest-s21_vm2.mol2 : vm2 ligand conformer 50
          22          21           1
SMALL
USER_CHARGES
 
@<TRIPOS>ATOM
       1    C1      19.756368   18.956650   25.499284 C.2        1 MOL1         0.6145
       2    O1      19.933463   19.865887   26.286270 O.co2      1 MOL1        -0.6735
       3    O2      20.266354   17.859597   25.614928 O.co2      1 MOL1        -0.6735
       4    C2      18.818090   19.198883   24.320276 C.3        1 MOL1        -0.1985
       5    H1      17.893737   19.629935   24.721927 H          1 MOL1         0.0740
       6    H2      18.545718   18.231215   23.883678 H          1 MOL1         0.0740
       7    C3      19.396651   20.145260   23.233154 C.3        1 MOL1        -0.1882
       8    H3      18.632299   20.325608   22.466262 H          1 MOL1         0.0742
       9    H4      19.601904   21.122977   23.690280 H          1 MOL1         0.0742
      10    C4      20.695189   19.628978   22.561533 C.3        1 MOL1        -0.1880
      11    H5      21.487914   19.565558   23.319431 H          1 MOL1         0.0742
      12    H6      21.040392   20.376137   21.835001 H          1 MOL1         0.0742
      13    C5      20.572605   18.250721   21.860256 C.3        1 MOL1        -0.1880
      14    H7      21.543204   17.998737   21.412153 H          1 MOL1         0.0742
      15    H8      20.385792   17.475977   22.615921 H          1 MOL1         0.0742
      16    C6      19.479977   18.162006   20.766528 C.3        1 MOL1        -0.1856
      17    H9      18.488324   18.325766   21.208542 H          1 MOL1         0.0742
      18    H10     19.468793   17.139493   20.364991 H          1 MOL1         0.0742
      19    C7      19.701305   19.151018   19.601770 C.3        1 MOL1        -0.2871
      20    H11     20.694735   19.015365   19.154947 H          1 MOL1         0.0754
      21    H12     19.614816   20.191137   19.940303 H          1 MOL1         0.0754
      22    H13     18.951747   18.993029   18.815678 H          1 MOL1         0.0754
@<TRIPOS>BOND
    1     1     2    1
    2     1     3    2
    3     1     4    1
    4     4     5    1
    5     4     6    1
    6     4     7    1
    7     7     8    1
    8     7     9    1
    9     7    10    1
   10    10    11    1
   11    10    12    1
   12    10    13    1
   13    13    14    1
   14    13    15    1
   15    13    16    1
   16    16    17    1
   17    16    18    1
   18    16    19    1
   19    19    20    1
   20    19    21    1
   21    19    22    1
@<TRIPOS>SUBSTRUCTURE
       1 MOL1            1 RESIDUE      1      MOL     
@<SCITEGIC>MOL_PROPERTY
VM2 Rank
SciTegic.value.IntegerValue
50

@<SCITEGIC>MOL_PROPERTY
Conf_Id
SciTegic.value.IntegerValue
533

@<SCITEGIC>MOL_PROPERTY
Probability
SciTegic.value.DoubleValue
0.02

@<SCITEGIC>MOL_PROPERTY
Sum Probability
SciTegic.value.DoubleValue
99.88

@<SCITEGIC>MOL_PROPERTY
Delta G
SciTegic.value.DoubleValue
4.574

@<SCITEGIC>MOL_PROPERTY
G
SciTegic.value.DoubleValue
-12.425

@<SCITEGIC>MOL_PROPERTY
E
SciTegic.value.DoubleValue
-33.128

@<SCITEGIC>MOL_PROPERTY
-TS
SciTegic.value.DoubleValue
20.703

@<SCITEGIC>MOL_PROPERTY
U+W
SciTegic.value.DoubleValue
-51.013

@<SCITEGIC>MOL_PROPERTY
U
SciTegic.value.DoubleValue
10.566

@<SCITEGIC>MOL_PROPERTY
W
SciTegic.value.DoubleValue
-61.579

@<SCITEGIC>MOL_PROPERTY
W(PB)
SciTegic.value.DoubleValue
-63.765

@<SCITEGIC>MOL_PROPERTY
W(SA)
SciTegic.value.DoubleValue
2.187

@<SCITEGIC>MOL_PROPERTY
Valence
SciTegic.value.DoubleValue
8.743

@<SCITEGIC>MOL_PROPERTY
Coulomb
SciTegic.value.DoubleValue
1.384

@<SCITEGIC>MOL_PROPERTY
VdW
SciTegic.value.DoubleValue
0.439

@<SCITEGIC>MOL_PROPERTY
VdW6
SciTegic.value.DoubleValue
-10.218

@<SCITEGIC>MOL_PROPERTY
VdW12
SciTegic.value.DoubleValue
10.657

@<SCITEGIC>MOL_PROPERTY
Bond
SciTegic.value.DoubleValue
0.248

@<SCITEGIC>MOL_PROPERTY
Angle
SciTegic.value.DoubleValue
3.453

@<SCITEGIC>MOL_PROPERTY
Pdih
SciTegic.value.DoubleValue
5.040

@<SCITEGIC>MOL_PROPERTY
Idih
SciTegic.value.DoubleValue
0.001

@<SCITEGIC>MOL_PROPERTY
Tether
SciTegic.value.DoubleValue
0.000

@<TRIPOS>MOLECULE
guest-s21_vm2.mol2 : vm2 ligand conformer 51
          22          21           1
SMALL
USER_CHARGES
 
@<TRIPOS>ATOM
       1    C1      20.122257   18.974794   25.394706 C.2        1 MOL1         0.6145
       2    O1      20.717839   19.999248   25.665311 O.co2      1 MOL1        -0.6735
       3    O2      20.594955   17.865306   25.545398 O.co2      1 MOL1        -0.6735
       4    C2      18.680128   19.082395   24.902730 C.3        1 MOL1        -0.1985
       5    H1      18.109251   19.536050   25.721165 H          1 MOL1         0.0740
       6    H2      18.275284   18.073155   24.760047 H          1 MOL1         0.0740
       7    C3      18.478770   19.930981   23.615501 C.3        1 MOL1        -0.1882
       8    H3      17.428814   20.251914   23.583634 H          1 MOL1         0.0742
       9    H4      19.074008   20.852673   23.676495 H          1 MOL1         0.0742
      10    C4      18.783398   19.188536   22.290436 C.3        1 MOL1        -0.1880
      11    H5      18.441978   19.826259   21.465478 H          1 MOL1         0.0742
      12    H6      18.186442   18.268050   22.237006 H          1 MOL1         0.0742
      13    C5      20.280179   18.850389   22.087400 C.3        1 MOL1        -0.1880
      14    H7      20.886690   19.759398   22.199778 H          1 MOL1         0.0742
      15    H8      20.605200   18.158714   22.874063 H          1 MOL1         0.0742
      16    C6      20.582295   18.189252   20.722066 C.3        1 MOL1        -0.1856
      17    H9      19.958419   17.293509   20.596913 H          1 MOL1         0.0742
      18    H10     21.624926   17.842632   20.724023 H          1 MOL1         0.0742
      19    C7      20.380180   19.138098   19.520451 C.3        1 MOL1        -0.2871
      20    H11     20.968231   20.057038   19.642338 H          1 MOL1         0.0754
      21    H12     19.326084   19.416739   19.400240 H          1 MOL1         0.0754
      22    H13     20.702204   18.652242   18.590319 H          1 MOL1         0.0754
@<TRIPOS>BOND
    1     1     2    1
    2     1     3    2
    3     1     4    1
    4     4     5    1
    5     4     6    1
    6     4     7    1
    7     7     8    1
    8     7     9    1
    9     7    10    1
   10    10    11    1
   11    10    12    1
   12    10    13    1
   13    13    14    1
   14    13    15    1
   15    13    16    1
   16    16    17    1
   17    16    18    1
   18    16    19    1
   19    19    20    1
   20    19    21    1
   21    19    22    1
@<TRIPOS>SUBSTRUCTURE
       1 MOL1            1 RESIDUE      1      MOL     
@<SCITEGIC>MOL_PROPERTY
VM2 Rank
SciTegic.value.IntegerValue
51

@<SCITEGIC>MOL_PROPERTY
Conf_Id
SciTegic.value.IntegerValue
181

@<SCITEGIC>MOL_PROPERTY
Probability
SciTegic.value.DoubleValue
0.01

@<SCITEGIC>MOL_PROPERTY
Sum Probability
SciTegic.value.DoubleValue
99.89

@<SCITEGIC>MOL_PROPERTY
Delta G
SciTegic.value.DoubleValue
4.678

@<SCITEGIC>MOL_PROPERTY
G
SciTegic.value.DoubleValue
-12.320

@<SCITEGIC>MOL_PROPERTY
E
SciTegic.value.DoubleValue
-32.512

@<SCITEGIC>MOL_PROPERTY
-TS
SciTegic.value.DoubleValue
20.192

@<SCITEGIC>MOL_PROPERTY
U+W
SciTegic.value.DoubleValue
-50.397

@<SCITEGIC>MOL_PROPERTY
U
SciTegic.value.DoubleValue
11.649

@<SCITEGIC>MOL_PROPERTY
W
SciTegic.value.DoubleValue
-62.046

@<SCITEGIC>MOL_PROPERTY
W(PB)
SciTegic.value.DoubleValue
-64.292

@<SCITEGIC>MOL_PROPERTY
W(SA)
SciTegic.value.DoubleValue
2.247

@<SCITEGIC>MOL_PROPERTY
Valence
SciTegic.value.DoubleValue
9.667

@<SCITEGIC>MOL_PROPERTY
Coulomb
SciTegic.value.DoubleValue
1.202

@<SCITEGIC>MOL_PROPERTY
VdW
SciTegic.value.DoubleValue
0.779

@<SCITEGIC>MOL_PROPERTY
VdW6
SciTegic.value.DoubleValue
-9.278

@<SCITEGIC>MOL_PROPERTY
VdW12
SciTegic.value.DoubleValue
10.057

@<SCITEGIC>MOL_PROPERTY
Bond
SciTegic.value.DoubleValue
0.225

@<SCITEGIC>MOL_PROPERTY
Angle
SciTegic.value.DoubleValue
3.506

@<SCITEGIC>MOL_PROPERTY
Pdih
SciTegic.value.DoubleValue
5.930

@<SCITEGIC>MOL_PROPERTY
Idih
SciTegic.value.DoubleValue
0.006

@<SCITEGIC>MOL_PROPERTY
Tether
SciTegic.value.DoubleValue
0.000

@<TRIPOS>MOLECULE
guest-s21_vm2.mol2 : vm2 ligand conformer 52
          22          21           1
SMALL
USER_CHARGES
 
@<TRIPOS>ATOM
       1    C1      20.177254   18.938173   25.300841 C.2        1 MOL1         0.6145
       2    O1      20.459742   20.036873   25.737435 O.co2      1 MOL1        -0.6735
       3    O2      20.959461   18.008548   25.268909 O.co2      1 MOL1        -0.6735
       4    C2      18.744832   18.690638   24.831376 C.3        1 MOL1        -0.1985
       5    H1      18.105218   18.815711   25.712707 H          1 MOL1         0.0740
       6    H2      18.648134   17.643691   24.519267 H          1 MOL1         0.0740
       7    C3      18.243420   19.636426   23.703947 C.3        1 MOL1        -0.1882
       8    H3      17.145306   19.613824   23.705080 H          1 MOL1         0.0742
       9    H4      18.524457   20.673788   23.932883 H          1 MOL1         0.0742
      10    C4      18.721971   19.258112   22.280271 C.3        1 MOL1        -0.1880
      11    H5      18.194424   19.897627   21.559590 H          1 MOL1         0.0742
      12    H6      18.420329   18.226017   22.058202 H          1 MOL1         0.0742
      13    C5      20.246131   19.419194   22.066316 C.3        1 MOL1        -0.1880
      14    H7      20.563045   20.397697   22.452375 H          1 MOL1         0.0742
      15    H8      20.788243   18.662443   22.647640 H          1 MOL1         0.0742
      16    C6      20.669272   19.311483   20.582815 C.3        1 MOL1        -0.1856
      17    H9      21.743305   19.529734   20.505535 H          1 MOL1         0.0742
      18    H10     20.152958   20.080996   19.992500 H          1 MOL1         0.0742
      19    C7      20.397917   17.919554   19.972090 C.3        1 MOL1        -0.2871
      20    H11     19.322866   17.704100   19.930173 H          1 MOL1         0.0754
      21    H12     20.884549   17.131171   20.561038 H          1 MOL1         0.0754
      22    H13     20.788405   17.866598   18.947605 H          1 MOL1         0.0754
@<TRIPOS>BOND
    1     1     2    1
    2     1     3    2
    3     1     4    1
    4     4     5    1
    5     4     6    1
    6     4     7    1
    7     7     8    1
    8     7     9    1
    9     7    10    1
   10    10    11    1
   11    10    12    1
   12    10    13    1
   13    13    14    1
   14    13    15    1
   15    13    16    1
   16    16    17    1
   17    16    18    1
   18    16    19    1
   19    19    20    1
   20    19    21    1
   21    19    22    1
@<TRIPOS>SUBSTRUCTURE
       1 MOL1            1 RESIDUE      1      MOL     
@<SCITEGIC>MOL_PROPERTY
VM2 Rank
SciTegic.value.IntegerValue
52

@<SCITEGIC>MOL_PROPERTY
Conf_Id
SciTegic.value.IntegerValue
295

@<SCITEGIC>MOL_PROPERTY
Probability
SciTegic.value.DoubleValue
0.01

@<SCITEGIC>MOL_PROPERTY
Sum Probability
SciTegic.value.DoubleValue
99.90

@<SCITEGIC>MOL_PROPERTY
Delta G
SciTegic.value.DoubleValue
4.683

@<SCITEGIC>MOL_PROPERTY
G
SciTegic.value.DoubleValue
-12.315

@<SCITEGIC>MOL_PROPERTY
E
SciTegic.value.DoubleValue
-32.675

@<SCITEGIC>MOL_PROPERTY
-TS
SciTegic.value.DoubleValue
20.360

@<SCITEGIC>MOL_PROPERTY
U+W
SciTegic.value.DoubleValue
-50.560

@<SCITEGIC>MOL_PROPERTY
U
SciTegic.value.DoubleValue
11.686

@<SCITEGIC>MOL_PROPERTY
W
SciTegic.value.DoubleValue
-62.247

@<SCITEGIC>MOL_PROPERTY
W(PB)
SciTegic.value.DoubleValue
-64.461

@<SCITEGIC>MOL_PROPERTY
W(SA)
SciTegic.value.DoubleValue
2.214

@<SCITEGIC>MOL_PROPERTY
Valence
SciTegic.value.DoubleValue
9.470

@<SCITEGIC>MOL_PROPERTY
Coulomb
SciTegic.value.DoubleValue
1.563

@<SCITEGIC>MOL_PROPERTY
VdW
SciTegic.value.DoubleValue
0.654

@<SCITEGIC>MOL_PROPERTY
VdW6
SciTegic.value.DoubleValue
-9.495

@<SCITEGIC>MOL_PROPERTY
VdW12
SciTegic.value.DoubleValue
10.148

@<SCITEGIC>MOL_PROPERTY
Bond
SciTegic.value.DoubleValue
0.216

@<SCITEGIC>MOL_PROPERTY
Angle
SciTegic.value.DoubleValue
3.352

@<SCITEGIC>MOL_PROPERTY
Pdih
SciTegic.value.DoubleValue
5.895

@<SCITEGIC>MOL_PROPERTY
Idih
SciTegic.value.DoubleValue
0.007

@<SCITEGIC>MOL_PROPERTY
Tether
SciTegic.value.DoubleValue
0.000

@<TRIPOS>MOLECULE
guest-s21_vm2.mol2 : vm2 ligand conformer 53
          22          21           1
SMALL
USER_CHARGES
 
@<TRIPOS>ATOM
       1    C1      20.157823   19.297771   25.286983 C.2        1 MOL1         0.6145
       2    O1      20.835316   20.301197   25.181108 O.co2      1 MOL1        -0.6735
       3    O2      20.555389   18.272401   25.804777 O.co2      1 MOL1        -0.6735
       4    C2      18.708982   19.352991   24.806031 C.3        1 MOL1        -0.1985
       5    H1      18.501305   20.356545   24.415377 H          1 MOL1         0.0740
       6    H2      18.083005   19.227340   25.697018 H          1 MOL1         0.0740
       7    C3      18.316956   18.275455   23.756147 C.3        1 MOL1        -0.1882
       8    H3      18.707044   17.294879   24.062443 H          1 MOL1         0.0742
       9    H4      17.222790   18.179772   23.760054 H          1 MOL1         0.0742
      10    C4      18.757913   18.593303   22.305796 C.3        1 MOL1        -0.1880
      11    H5      18.347978   19.567022   22.006888 H          1 MOL1         0.0742
      12    H6      18.305140   17.847677   21.638184 H          1 MOL1         0.0742
      13    C5      20.291423   18.581155   22.098451 C.3        1 MOL1        -0.1880
      14    H7      20.746664   19.433881   22.618169 H          1 MOL1         0.0742
      15    H8      20.710098   17.674670   22.556645 H          1 MOL1         0.0742
      16    C6      20.706618   18.620356   20.609324 C.3        1 MOL1        -0.1856
      17    H9      20.278531   17.757006   20.081525 H          1 MOL1         0.0742
      18    H10     21.798209   18.513686   20.544476 H          1 MOL1         0.0742
      19    C7      20.289580   19.924370   19.895384 C.3        1 MOL1        -0.2871
      20    H11     20.686052   20.803135   20.420549 H          1 MOL1         0.0754
      21    H12     19.197769   20.019026   19.841525 H          1 MOL1         0.0754
      22    H13     20.676381   19.940821   18.868269 H          1 MOL1         0.0754
@<TRIPOS>BOND
    1     1     2    1
    2     1     3    2
    3     1     4    1
    4     4     5    1
    5     4     6    1
    6     4     7    1
    7     7     8    1
    8     7     9    1
    9     7    10    1
   10    10    11    1
   11    10    12    1
   12    10    13    1
   13    13    14    1
   14    13    15    1
   15    13    16    1
   16    16    17    1
   17    16    18    1
   18    16    19    1
   19    19    20    1
   20    19    21    1
   21    19    22    1
@<TRIPOS>SUBSTRUCTURE
       1 MOL1            1 RESIDUE      1      MOL     
@<SCITEGIC>MOL_PROPERTY
VM2 Rank
SciTegic.value.IntegerValue
53

@<SCITEGIC>MOL_PROPERTY
Conf_Id
SciTegic.value.IntegerValue
549

@<SCITEGIC>MOL_PROPERTY
Probability
SciTegic.value.DoubleValue
0.01

@<SCITEGIC>MOL_PROPERTY
Sum Probability
SciTegic.value.DoubleValue
99.91

@<SCITEGIC>MOL_PROPERTY
Delta G
SciTegic.value.DoubleValue
4.730

@<SCITEGIC>MOL_PROPERTY
G
SciTegic.value.DoubleValue
-12.268

@<SCITEGIC>MOL_PROPERTY
E
SciTegic.value.DoubleValue
-32.628

@<SCITEGIC>MOL_PROPERTY
-TS
SciTegic.value.DoubleValue
20.360

@<SCITEGIC>MOL_PROPERTY
U+W
SciTegic.value.DoubleValue
-50.513

@<SCITEGIC>MOL_PROPERTY
U
SciTegic.value.DoubleValue
11.687

@<SCITEGIC>MOL_PROPERTY
W
SciTegic.value.DoubleValue
-62.200

@<SCITEGIC>MOL_PROPERTY
W(PB)
SciTegic.value.DoubleValue
-64.428

@<SCITEGIC>MOL_PROPERTY
W(SA)
SciTegic.value.DoubleValue
2.228

@<SCITEGIC>MOL_PROPERTY
Valence
SciTegic.value.DoubleValue
9.469

@<SCITEGIC>MOL_PROPERTY
Coulomb
SciTegic.value.DoubleValue
1.563

@<SCITEGIC>MOL_PROPERTY
VdW
SciTegic.value.DoubleValue
0.654

@<SCITEGIC>MOL_PROPERTY
VdW6
SciTegic.value.DoubleValue
-9.495

@<SCITEGIC>MOL_PROPERTY
VdW12
SciTegic.value.DoubleValue
10.149

@<SCITEGIC>MOL_PROPERTY
Bond
SciTegic.value.DoubleValue
0.216

@<SCITEGIC>MOL_PROPERTY
Angle
SciTegic.value.DoubleValue
3.352

@<SCITEGIC>MOL_PROPERTY
Pdih
SciTegic.value.DoubleValue
5.895

@<SCITEGIC>MOL_PROPERTY
Idih
SciTegic.value.DoubleValue
0.007

@<SCITEGIC>MOL_PROPERTY
Tether
SciTegic.value.DoubleValue
0.000

@<TRIPOS>MOLECULE
guest-s21_vm2.mol2 : vm2 ligand conformer 54
          22          21           1
SMALL
USER_CHARGES
 
@<TRIPOS>ATOM
       1    C1      20.106813   19.262685   25.383549 C.2        1 MOL1         0.6145
       2    O1      20.456542   20.424911   25.447066 O.co2      1 MOL1        -0.6735
       3    O2      20.808203   18.332095   25.729246 O.co2      1 MOL1        -0.6735
       4    C2      18.686694   18.963056   24.907257 C.3        1 MOL1        -0.1985
       5    H1      18.176056   19.908920   24.689515 H          1 MOL1         0.0740
       6    H2      18.164669   18.514446   25.760357 H          1 MOL1         0.0740
       7    C3      18.583241   18.001779   23.689535 C.3        1 MOL1        -0.1882
       8    H3      19.274288   17.157127   23.818237 H          1 MOL1         0.0742
       9    H4      17.574218   17.567858   23.686817 H          1 MOL1         0.0742
      10    C4      18.811202   18.669268   22.310288 C.3        1 MOL1        -0.1880
      11    H5      18.118085   19.512698   22.188950 H          1 MOL1         0.0742
      12    H6      18.544585   17.936983   21.537961 H          1 MOL1         0.0742
      13    C5      20.263278   19.151434   22.075955 C.3        1 MOL1        -0.1880
      14    H7      20.507642   19.932840   22.805742 H          1 MOL1         0.0742
      15    H8      20.964475   18.325106   22.255644 H          1 MOL1         0.0742
      16    C6      20.497903   19.734399   20.662586 C.3        1 MOL1        -0.1856
      17    H9      21.496500   20.191790   20.633891 H          1 MOL1         0.0742
      18    H10     19.780673   20.544423   20.471057 H          1 MOL1         0.0742
      19    C7      20.406124   18.679373   19.538517 C.3        1 MOL1        -0.2871
      20    H11     21.090375   17.842268   19.728698 H          1 MOL1         0.0754
      21    H12     20.677534   19.124313   18.572460 H          1 MOL1         0.0754
      22    H13     19.389307   18.278887   19.444174 H          1 MOL1         0.0754
@<TRIPOS>BOND
    1     1     2    1
    2     1     3    2
    3     1     4    1
    4     4     5    1
    5     4     6    1
    6     4     7    1
    7     7     8    1
    8     7     9    1
    9     7    10    1
   10    10    11    1
   11    10    12    1
   12    10    13    1
   13    13    14    1
   14    13    15    1
   15    13    16    1
   16    16    17    1
   17    16    18    1
   18    16    19    1
   19    19    20    1
   20    19    21    1
   21    19    22    1
@<TRIPOS>SUBSTRUCTURE
       1 MOL1            1 RESIDUE      1      MOL     
@<SCITEGIC>MOL_PROPERTY
VM2 Rank
SciTegic.value.IntegerValue
54

@<SCITEGIC>MOL_PROPERTY
Conf_Id
SciTegic.value.IntegerValue
561

@<SCITEGIC>MOL_PROPERTY
Probability
SciTegic.value.DoubleValue
0.01

@<SCITEGIC>MOL_PROPERTY
Sum Probability
SciTegic.value.DoubleValue
99.93

@<SCITEGIC>MOL_PROPERTY
Delta G
SciTegic.value.DoubleValue
4.748

@<SCITEGIC>MOL_PROPERTY
G
SciTegic.value.DoubleValue
-12.251

@<SCITEGIC>MOL_PROPERTY
E
SciTegic.value.DoubleValue
-32.443

@<SCITEGIC>MOL_PROPERTY
-TS
SciTegic.value.DoubleValue
20.193

@<SCITEGIC>MOL_PROPERTY
U+W
SciTegic.value.DoubleValue
-50.328

@<SCITEGIC>MOL_PROPERTY
U
SciTegic.value.DoubleValue
11.648

@<SCITEGIC>MOL_PROPERTY
W
SciTegic.value.DoubleValue
-61.977

@<SCITEGIC>MOL_PROPERTY
W(PB)
SciTegic.value.DoubleValue
-64.190

@<SCITEGIC>MOL_PROPERTY
W(SA)
SciTegic.value.DoubleValue
2.214

@<SCITEGIC>MOL_PROPERTY
Valence
SciTegic.value.DoubleValue
9.667

@<SCITEGIC>MOL_PROPERTY
Coulomb
SciTegic.value.DoubleValue
1.202

@<SCITEGIC>MOL_PROPERTY
VdW
SciTegic.value.DoubleValue
0.779

@<SCITEGIC>MOL_PROPERTY
VdW6
SciTegic.value.DoubleValue
-9.278

@<SCITEGIC>MOL_PROPERTY
VdW12
SciTegic.value.DoubleValue
10.058

@<SCITEGIC>MOL_PROPERTY
Bond
SciTegic.value.DoubleValue
0.225

@<SCITEGIC>MOL_PROPERTY
Angle
SciTegic.value.DoubleValue
3.506

@<SCITEGIC>MOL_PROPERTY
Pdih
SciTegic.value.DoubleValue
5.931

@<SCITEGIC>MOL_PROPERTY
Idih
SciTegic.value.DoubleValue
0.006

@<SCITEGIC>MOL_PROPERTY
Tether
SciTegic.value.DoubleValue
0.000

@<TRIPOS>MOLECULE
guest-s21_vm2.mol2 : vm2 ligand conformer 55
          22          21           1
SMALL
USER_CHARGES
 
@<TRIPOS>ATOM
       1    C1      19.447733   19.124420   25.671148 C.2        1 MOL1         0.6145
       2    O1      19.370710   20.188253   26.253319 O.co2      1 MOL1        -0.6735
       3    O2      19.471274   18.048800   26.236030 O.co2      1 MOL1        -0.6735
       4    C2      19.542212   19.141410   24.149723 C.3        1 MOL1        -0.1985
       5    H1      18.983228   20.010495   23.782856 H          1 MOL1         0.0740
       6    H2      19.038327   18.243003   23.776165 H          1 MOL1         0.0740
       7    C3      21.004496   19.190511   23.639361 C.3        1 MOL1        -0.1882
       8    H3      21.522085   20.023823   24.134426 H          1 MOL1         0.0742
       9    H4      21.527562   18.275671   23.950292 H          1 MOL1         0.0742
      10    C4      21.137391   19.370889   22.106284 C.3        1 MOL1        -0.1880
      11    H5      22.208446   19.446081   21.874155 H          1 MOL1         0.0742
      12    H6      20.701153   20.331716   21.806316 H          1 MOL1         0.0742
      13    C5      20.544146   18.207679   21.267599 C.3        1 MOL1        -0.1880
      14    H7      21.187473   18.036295   20.393756 H          1 MOL1         0.0742
      15    H8      20.585521   17.278317   21.851812 H          1 MOL1         0.0742
      16    C6      19.096832   18.439361   20.766187 C.3        1 MOL1        -0.1856
      17    H9      18.438579   18.718566   21.597636 H          1 MOL1         0.0742
      18    H10     18.707674   17.491124   20.370700 H          1 MOL1         0.0742
      19    C7      19.005206   19.507678   19.654350 C.3        1 MOL1        -0.2871
      20    H11     19.649329   19.246409   18.804706 H          1 MOL1         0.0754
      21    H12     19.304595   20.497663   20.019323 H          1 MOL1         0.0754
      22    H13     17.975112   19.587590   19.283677 H          1 MOL1         0.0754
@<TRIPOS>BOND
    1     1     2    1
    2     1     3    2
    3     1     4    1
    4     4     5    1
    5     4     6    1
    6     4     7    1
    7     7     8    1
    8     7     9    1
    9     7    10    1
   10    10    11    1
   11    10    12    1
   12    10    13    1
   13    13    14    1
   14    13    15    1
   15    13    16    1
   16    16    17    1
   17    16    18    1
   18    16    19    1
   19    19    20    1
   20    19    21    1
   21    19    22    1
@<TRIPOS>SUBSTRUCTURE
       1 MOL1            1 RESIDUE      1      MOL     
@<SCITEGIC>MOL_PROPERTY
VM2 Rank
SciTegic.value.IntegerValue
55

@<SCITEGIC>MOL_PROPERTY
Conf_Id
SciTegic.value.IntegerValue
159

@<SCITEGIC>MOL_PROPERTY
Probability
SciTegic.value.DoubleValue
0.01

@<SCITEGIC>MOL_PROPERTY
Sum Probability
SciTegic.value.DoubleValue
99.94

@<SCITEGIC>MOL_PROPERTY
Delta G
SciTegic.value.DoubleValue
4.840

@<SCITEGIC>MOL_PROPERTY
G
SciTegic.value.DoubleValue
-12.159

@<SCITEGIC>MOL_PROPERTY
E
SciTegic.value.DoubleValue
-32.161

@<SCITEGIC>MOL_PROPERTY
-TS
SciTegic.value.DoubleValue
20.003

@<SCITEGIC>MOL_PROPERTY
U+W
SciTegic.value.DoubleValue
-50.046

@<SCITEGIC>MOL_PROPERTY
U
SciTegic.value.DoubleValue
11.011

@<SCITEGIC>MOL_PROPERTY
W
SciTegic.value.DoubleValue
-61.057

@<SCITEGIC>MOL_PROPERTY
W(PB)
SciTegic.value.DoubleValue
-63.292

@<SCITEGIC>MOL_PROPERTY
W(SA)
SciTegic.value.DoubleValue
2.234

@<SCITEGIC>MOL_PROPERTY
Valence
SciTegic.value.DoubleValue
10.804

@<SCITEGIC>MOL_PROPERTY
Coulomb
SciTegic.value.DoubleValue
-0.760

@<SCITEGIC>MOL_PROPERTY
VdW
SciTegic.value.DoubleValue
0.967

@<SCITEGIC>MOL_PROPERTY
VdW6
SciTegic.value.DoubleValue
-8.670

@<SCITEGIC>MOL_PROPERTY
VdW12
SciTegic.value.DoubleValue
9.637

@<SCITEGIC>MOL_PROPERTY
Bond
SciTegic.value.DoubleValue
0.224

@<SCITEGIC>MOL_PROPERTY
Angle
SciTegic.value.DoubleValue
3.242

@<SCITEGIC>MOL_PROPERTY
Pdih
SciTegic.value.DoubleValue
7.337

@<SCITEGIC>MOL_PROPERTY
Idih
SciTegic.value.DoubleValue
0.001

@<SCITEGIC>MOL_PROPERTY
Tether
SciTegic.value.DoubleValue
0.000

@<TRIPOS>MOLECULE
guest-s21_vm2.mol2 : vm2 ligand conformer 56
          22          21           1
SMALL
USER_CHARGES
 
@<TRIPOS>ATOM
       1    C1      20.022643   19.340501   25.707962 C.2        1 MOL1         0.6145
       2    O1      20.684274   20.359280   25.736961 O.co2      1 MOL1        -0.6735
       3    O2      20.000198   18.527130   26.610511 O.co2      1 MOL1        -0.6735
       4    C2      19.189499   19.057231   24.462980 C.3        1 MOL1        -0.1985
       5    H1      18.865001   20.019508   24.052262 H          1 MOL1         0.0740
       6    H2      18.287194   18.517847   24.774749 H          1 MOL1         0.0740
       7    C3      19.962777   18.235236   23.398500 C.3        1 MOL1        -0.1882
       8    H3      20.860619   18.786740   23.094144 H          1 MOL1         0.0742
       9    H4      20.316190   17.306255   23.866715 H          1 MOL1         0.0742
      10    C4      19.101881   17.868907   22.162956 C.3        1 MOL1        -0.1880
      11    H5      18.165332   17.416741   22.516843 H          1 MOL1         0.0742
      12    H6      19.608318   17.085081   21.583463 H          1 MOL1         0.0742
      13    C5      18.762694   19.061197   21.229066 C.3        1 MOL1        -0.1880
      14    H7      17.751716   18.903049   20.829562 H          1 MOL1         0.0742
      15    H8      18.714816   20.000617   21.793381 H          1 MOL1         0.0742
      16    C6      19.719164   19.224647   20.022114 C.3        1 MOL1        -0.1856
      17    H9      19.339997   20.034677   19.383965 H          1 MOL1         0.0742
      18    H10     19.697392   18.313902   19.407888 H          1 MOL1         0.0742
      19    C7      21.176870   19.544871   20.412950 C.3        1 MOL1        -0.2871
      20    H11     21.223408   20.414471   21.081383 H          1 MOL1         0.0754
      21    H12     21.773131   19.771332   19.519679 H          1 MOL1         0.0754
      22    H13     21.647638   18.691894   20.917241 H          1 MOL1         0.0754
@<TRIPOS>BOND
    1     1     2    1
    2     1     3    2
    3     1     4    1
    4     4     5    1
    5     4     6    1
    6     4     7    1
    7     7     8    1
    8     7     9    1
    9     7    10    1
   10    10    11    1
   11    10    12    1
   12    10    13    1
   13    13    14    1
   14    13    15    1
   15    13    16    1
   16    16    17    1
   17    16    18    1
   18    16    19    1
   19    19    20    1
   20    19    21    1
   21    19    22    1
@<TRIPOS>SUBSTRUCTURE
       1 MOL1            1 RESIDUE      1      MOL     
@<SCITEGIC>MOL_PROPERTY
VM2 Rank
SciTegic.value.IntegerValue
56

@<SCITEGIC>MOL_PROPERTY
Conf_Id
SciTegic.value.IntegerValue
666

@<SCITEGIC>MOL_PROPERTY
Probability
SciTegic.value.DoubleValue
0.01

@<SCITEGIC>MOL_PROPERTY
Sum Probability
SciTegic.value.DoubleValue
99.94

@<SCITEGIC>MOL_PROPERTY
Delta G
SciTegic.value.DoubleValue
5.042

@<SCITEGIC>MOL_PROPERTY
G
SciTegic.value.DoubleValue
-11.956

@<SCITEGIC>MOL_PROPERTY
E
SciTegic.value.DoubleValue
-31.930

@<SCITEGIC>MOL_PROPERTY
-TS
SciTegic.value.DoubleValue
19.974

@<SCITEGIC>MOL_PROPERTY
U+W
SciTegic.value.DoubleValue
-49.815

@<SCITEGIC>MOL_PROPERTY
U
SciTegic.value.DoubleValue
11.399

@<SCITEGIC>MOL_PROPERTY
W
SciTegic.value.DoubleValue
-61.214

@<SCITEGIC>MOL_PROPERTY
W(PB)
SciTegic.value.DoubleValue
-63.445

@<SCITEGIC>MOL_PROPERTY
W(SA)
SciTegic.value.DoubleValue
2.231

@<SCITEGIC>MOL_PROPERTY
Valence
SciTegic.value.DoubleValue
10.806

@<SCITEGIC>MOL_PROPERTY
Coulomb
SciTegic.value.DoubleValue
-0.350

@<SCITEGIC>MOL_PROPERTY
VdW
SciTegic.value.DoubleValue
0.943

@<SCITEGIC>MOL_PROPERTY
VdW6
SciTegic.value.DoubleValue
-8.654

@<SCITEGIC>MOL_PROPERTY
VdW12
SciTegic.value.DoubleValue
9.597

@<SCITEGIC>MOL_PROPERTY
Bond
SciTegic.value.DoubleValue
0.232

@<SCITEGIC>MOL_PROPERTY
Angle
SciTegic.value.DoubleValue
3.234

@<SCITEGIC>MOL_PROPERTY
Pdih
SciTegic.value.DoubleValue
7.339

@<SCITEGIC>MOL_PROPERTY
Idih
SciTegic.value.DoubleValue
0.000

@<SCITEGIC>MOL_PROPERTY
Tether
SciTegic.value.DoubleValue
0.000

@<TRIPOS>MOLECULE
guest-s21_vm2.mol2 : vm2 ligand conformer 57
          22          21           1
SMALL
USER_CHARGES
 
@<TRIPOS>ATOM
       1    C1      20.271869   19.059524   25.549106 C.2        1 MOL1         0.6145
       2    O1      19.998176   19.858620   26.422743 O.co2      1 MOL1        -0.6735
       3    O2      20.625957   17.918041   25.768597 O.co2      1 MOL1        -0.6735
       4    C2      20.144553   19.508210   24.097802 C.3        1 MOL1        -0.1985
       5    H1      20.912453   18.986004   23.519621 H          1 MOL1         0.0740
       6    H2      20.381033   20.577889   24.052329 H          1 MOL1         0.0740
       7    C3      18.731386   19.249964   23.511976 C.3        1 MOL1        -0.1882
       8    H3      18.482074   18.182379   23.584266 H          1 MOL1         0.0742
       9    H4      18.004020   19.776484   24.145335 H          1 MOL1         0.0742
      10    C4      18.560703   19.744229   22.052490 C.3        1 MOL1        -0.1880
      11    H5      19.196404   20.619432   21.864982 H          1 MOL1         0.0742
      12    H6      17.528863   20.103785   21.939333 H          1 MOL1         0.0742
      13    C5      18.787431   18.658333   20.967745 C.3        1 MOL1        -0.1880
      14    H7      18.085679   17.831602   21.143028 H          1 MOL1         0.0742
      15    H8      18.515350   19.079424   19.990323 H          1 MOL1         0.0742
      16    C6      20.219686   18.081407   20.872725 C.3        1 MOL1        -0.1856
      17    H9      20.227618   17.294963   20.105658 H          1 MOL1         0.0742
      18    H10     20.490834   17.584792   21.812885 H          1 MOL1         0.0742
      19    C7      21.280239   19.140671   20.500817 C.3        1 MOL1        -0.2871
      20    H11     21.367909   19.911486   21.276115 H          1 MOL1         0.0754
      21    H12     21.024849   19.634663   19.554426 H          1 MOL1         0.0754
      22    H13     22.265885   18.672446   20.382697 H          1 MOL1         0.0754
@<TRIPOS>BOND
    1     1     2    1
    2     1     3    2
    3     1     4    1
    4     4     5    1
    5     4     6    1
    6     4     7    1
    7     7     8    1
    8     7     9    1
    9     7    10    1
   10    10    11    1
   11    10    12    1
   12    10    13    1
   13    13    14    1
   14    13    15    1
   15    13    16    1
   16    16    17    1
   17    16    18    1
   18    16    19    1
   19    19    20    1
   20    19    21    1
   21    19    22    1
@<TRIPOS>SUBSTRUCTURE
       1 MOL1            1 RESIDUE      1      MOL     
@<SCITEGIC>MOL_PROPERTY
VM2 Rank
SciTegic.value.IntegerValue
57

@<SCITEGIC>MOL_PROPERTY
Conf_Id
SciTegic.value.IntegerValue
675

@<SCITEGIC>MOL_PROPERTY
Probability
SciTegic.value.DoubleValue
0.01

@<SCITEGIC>MOL_PROPERTY
Sum Probability
SciTegic.value.DoubleValue
99.95

@<SCITEGIC>MOL_PROPERTY
Delta G
SciTegic.value.DoubleValue
5.050

@<SCITEGIC>MOL_PROPERTY
G
SciTegic.value.DoubleValue
-11.949

@<SCITEGIC>MOL_PROPERTY
E
SciTegic.value.DoubleValue
-32.325

@<SCITEGIC>MOL_PROPERTY
-TS
SciTegic.value.DoubleValue
20.376

@<SCITEGIC>MOL_PROPERTY
U+W
SciTegic.value.DoubleValue
-50.209

@<SCITEGIC>MOL_PROPERTY
U
SciTegic.value.DoubleValue
11.249

@<SCITEGIC>MOL_PROPERTY
W
SciTegic.value.DoubleValue
-61.458

@<SCITEGIC>MOL_PROPERTY
W(PB)
SciTegic.value.DoubleValue
-63.656

@<SCITEGIC>MOL_PROPERTY
W(SA)
SciTegic.value.DoubleValue
2.197

@<SCITEGIC>MOL_PROPERTY
Valence
SciTegic.value.DoubleValue
10.690

@<SCITEGIC>MOL_PROPERTY
Coulomb
SciTegic.value.DoubleValue
-0.062

@<SCITEGIC>MOL_PROPERTY
VdW
SciTegic.value.DoubleValue
0.621

@<SCITEGIC>MOL_PROPERTY
VdW6
SciTegic.value.DoubleValue
-9.203

@<SCITEGIC>MOL_PROPERTY
VdW12
SciTegic.value.DoubleValue
9.824

@<SCITEGIC>MOL_PROPERTY
Bond
SciTegic.value.DoubleValue
0.231

@<SCITEGIC>MOL_PROPERTY
Angle
SciTegic.value.DoubleValue
3.570

@<SCITEGIC>MOL_PROPERTY
Pdih
SciTegic.value.DoubleValue
6.889

@<SCITEGIC>MOL_PROPERTY
Idih
SciTegic.value.DoubleValue
0.001

@<SCITEGIC>MOL_PROPERTY
Tether
SciTegic.value.DoubleValue
0.000

@<TRIPOS>MOLECULE
guest-s21_vm2.mol2 : vm2 ligand conformer 58
          22          21           1
SMALL
USER_CHARGES
 
@<TRIPOS>ATOM
       1    C1      20.045878   18.913494   25.724315 C.2        1 MOL1         0.6145
       2    O1      19.932634   19.786671   26.561816 O.co2      1 MOL1        -0.6735
       3    O2      20.812970   17.976905   25.828618 O.co2      1 MOL1        -0.6735
       4    C2      19.192062   19.009177   24.464872 C.3        1 MOL1        -0.1985
       5    H1      18.235506   19.470140   24.738370 H          1 MOL1         0.0740
       6    H2      18.975100   17.988935   24.130203 H          1 MOL1         0.0740
       7    C3      19.876292   19.826205   23.337463 C.3        1 MOL1        -0.1882
       8    H3      20.125237   20.821008   23.731828 H          1 MOL1         0.0742
       9    H4      20.829759   19.353393   23.072400 H          1 MOL1         0.0742
      10    C4      18.985927   20.001770   22.081144 C.3        1 MOL1        -0.1880
      11    H5      19.406953   20.789231   21.441364 H          1 MOL1         0.0742
      12    H6      18.004487   20.375627   22.403356 H          1 MOL1         0.0742
      13    C5      18.781642   18.711938   21.242480 C.3        1 MOL1        -0.1880
      14    H7      18.833353   17.818727   21.877111 H          1 MOL1         0.0742
      15    H8      17.761160   18.728769   20.836247 H          1 MOL1         0.0742
      16    C6      19.755206   18.561218   20.047597 C.3        1 MOL1        -0.1856
      17    H9      19.637463   19.414583   19.365609 H          1 MOL1         0.0742
      18    H10     19.468673   17.668461   19.474857 H          1 MOL1         0.0742
      19    C7      21.237388   18.431622   20.455695 C.3        1 MOL1        -0.2871
      20    H11     21.610874   19.366628   20.891322 H          1 MOL1         0.0754
      21    H12     21.858382   18.203465   19.579878 H          1 MOL1         0.0754
      22    H13     21.375090   17.625852   21.188461 H          1 MOL1         0.0754
@<TRIPOS>BOND
    1     1     2    1
    2     1     3    2
    3     1     4    1
    4     4     5    1
    5     4     6    1
    6     4     7    1
    7     7     8    1
    8     7     9    1
    9     7    10    1
   10    10    11    1
   11    10    12    1
   12    10    13    1
   13    13    14    1
   14    13    15    1
   15    13    16    1
   16    16    17    1
   17    16    18    1
   18    16    19    1
   19    19    20    1
   20    19    21    1
   21    19    22    1
@<TRIPOS>SUBSTRUCTURE
       1 MOL1            1 RESIDUE      1      MOL     
@<SCITEGIC>MOL_PROPERTY
VM2 Rank
SciTegic.value.IntegerValue
58

@<SCITEGIC>MOL_PROPERTY
Conf_Id
SciTegic.value.IntegerValue
664

@<SCITEGIC>MOL_PROPERTY
Probability
SciTegic.value.DoubleValue
0.01

@<SCITEGIC>MOL_PROPERTY
Sum Probability
SciTegic.value.DoubleValue
99.96

@<SCITEGIC>MOL_PROPERTY
Delta G
SciTegic.value.DoubleValue
5.056

@<SCITEGIC>MOL_PROPERTY
G
SciTegic.value.DoubleValue
-11.942

@<SCITEGIC>MOL_PROPERTY
E
SciTegic.value.DoubleValue
-31.916

@<SCITEGIC>MOL_PROPERTY
-TS
SciTegic.value.DoubleValue
19.975

@<SCITEGIC>MOL_PROPERTY
U+W
SciTegic.value.DoubleValue
-49.801

@<SCITEGIC>MOL_PROPERTY
U
SciTegic.value.DoubleValue
11.399

@<SCITEGIC>MOL_PROPERTY
W
SciTegic.value.DoubleValue
-61.200

@<SCITEGIC>MOL_PROPERTY
W(PB)
SciTegic.value.DoubleValue
-63.441

@<SCITEGIC>MOL_PROPERTY
W(SA)
SciTegic.value.DoubleValue
2.241

@<SCITEGIC>MOL_PROPERTY
Valence
SciTegic.value.DoubleValue
10.806

@<SCITEGIC>MOL_PROPERTY
Coulomb
SciTegic.value.DoubleValue
-0.350

@<SCITEGIC>MOL_PROPERTY
VdW
SciTegic.value.DoubleValue
0.943

@<SCITEGIC>MOL_PROPERTY
VdW6
SciTegic.value.DoubleValue
-8.654

@<SCITEGIC>MOL_PROPERTY
VdW12
SciTegic.value.DoubleValue
9.597

@<SCITEGIC>MOL_PROPERTY
Bond
SciTegic.value.DoubleValue
0.232

@<SCITEGIC>MOL_PROPERTY
Angle
SciTegic.value.DoubleValue
3.234

@<SCITEGIC>MOL_PROPERTY
Pdih
SciTegic.value.DoubleValue
7.339

@<SCITEGIC>MOL_PROPERTY
Idih
SciTegic.value.DoubleValue
0.000

@<SCITEGIC>MOL_PROPERTY
Tether
SciTegic.value.DoubleValue
0.000

@<TRIPOS>MOLECULE
guest-s21_vm2.mol2 : vm2 ligand conformer 59
          22          21           1
SMALL
USER_CHARGES
 
@<TRIPOS>ATOM
       1    C1      19.613055   18.774357   25.563530 C.2        1 MOL1         0.6145
       2    O1      19.250054   19.534850   26.439079 O.co2      1 MOL1        -0.6735
       3    O2      20.211353   17.738642   25.777713 O.co2      1 MOL1        -0.6735
       4    C2      19.319612   19.151060   24.115844 C.3        1 MOL1        -0.1985
       5    H1      18.376642   19.710190   24.096155 H          1 MOL1         0.0740
       6    H2      19.153881   18.224684   23.558151 H          1 MOL1         0.0740
       7    C3      20.452439   19.994859   23.474254 C.3        1 MOL1        -0.1882
       8    H3      20.589384   20.895495   24.088688 H          1 MOL1         0.0742
       9    H4      21.403627   19.446914   23.520247 H          1 MOL1         0.0742
      10    C4      20.155101   20.434315   22.017545 C.3        1 MOL1        -0.1880
      11    H5      20.594480   21.430601   21.872150 H          1 MOL1         0.0742
      12    H6      19.075699   20.567244   21.867629 H          1 MOL1         0.0742
      13    C5      20.751358   19.508360   20.924688 C.3        1 MOL1        -0.1880
      14    H7      20.594437   19.979297   19.944742 H          1 MOL1         0.0742
      15    H8      21.840158   19.456597   21.060701 H          1 MOL1         0.0742
      16    C6      20.188949   18.068120   20.873404 C.3        1 MOL1        -0.1856
      17    H9      20.400215   17.545554   21.814859 H          1 MOL1         0.0742
      18    H10     20.728303   17.511707   20.094655 H          1 MOL1         0.0742
      19    C7      18.678079   18.014438   20.557944 C.3        1 MOL1        -0.2871
      20    H11     18.457746   18.523505   19.610732 H          1 MOL1         0.0754
      21    H12     18.085054   18.490727   21.348133 H          1 MOL1         0.0754
      22    H13     18.340956   16.973709   20.468964 H          1 MOL1         0.0754
@<TRIPOS>BOND
    1     1     2    1
    2     1     3    2
    3     1     4    1
    4     4     5    1
    5     4     6    1
    6     4     7    1
    7     7     8    1
    8     7     9    1
    9     7    10    1
   10    10    11    1
   11    10    12    1
   12    10    13    1
   13    13    14    1
   14    13    15    1
   15    13    16    1
   16    16    17    1
   17    16    18    1
   18    16    19    1
   19    19    20    1
   20    19    21    1
   21    19    22    1
@<TRIPOS>SUBSTRUCTURE
       1 MOL1            1 RESIDUE      1      MOL     
@<SCITEGIC>MOL_PROPERTY
VM2 Rank
SciTegic.value.IntegerValue
59

@<SCITEGIC>MOL_PROPERTY
Conf_Id
SciTegic.value.IntegerValue
498

@<SCITEGIC>MOL_PROPERTY
Probability
SciTegic.value.DoubleValue
0.01

@<SCITEGIC>MOL_PROPERTY
Sum Probability
SciTegic.value.DoubleValue
99.96

@<SCITEGIC>MOL_PROPERTY
Delta G
SciTegic.value.DoubleValue
5.108

@<SCITEGIC>MOL_PROPERTY
G
SciTegic.value.DoubleValue
-11.890

@<SCITEGIC>MOL_PROPERTY
E
SciTegic.value.DoubleValue
-32.266

@<SCITEGIC>MOL_PROPERTY
-TS
SciTegic.value.DoubleValue
20.376

@<SCITEGIC>MOL_PROPERTY
U+W
SciTegic.value.DoubleValue
-50.151

@<SCITEGIC>MOL_PROPERTY
U
SciTegic.value.DoubleValue
11.249

@<SCITEGIC>MOL_PROPERTY
W
SciTegic.value.DoubleValue
-61.400

@<SCITEGIC>MOL_PROPERTY
W(PB)
SciTegic.value.DoubleValue
-63.599

@<SCITEGIC>MOL_PROPERTY
W(SA)
SciTegic.value.DoubleValue
2.199

@<SCITEGIC>MOL_PROPERTY
Valence
SciTegic.value.DoubleValue
10.690

@<SCITEGIC>MOL_PROPERTY
Coulomb
SciTegic.value.DoubleValue
-0.062

@<SCITEGIC>MOL_PROPERTY
VdW
SciTegic.value.DoubleValue
0.621

@<SCITEGIC>MOL_PROPERTY
VdW6
SciTegic.value.DoubleValue
-9.204

@<SCITEGIC>MOL_PROPERTY
VdW12
SciTegic.value.DoubleValue
9.825

@<SCITEGIC>MOL_PROPERTY
Bond
SciTegic.value.DoubleValue
0.231

@<SCITEGIC>MOL_PROPERTY
Angle
SciTegic.value.DoubleValue
3.571

@<SCITEGIC>MOL_PROPERTY
Pdih
SciTegic.value.DoubleValue
6.888

@<SCITEGIC>MOL_PROPERTY
Idih
SciTegic.value.DoubleValue
0.001

@<SCITEGIC>MOL_PROPERTY
Tether
SciTegic.value.DoubleValue
0.000

@<TRIPOS>MOLECULE
guest-s21_vm2.mol2 : vm2 ligand conformer 60
          22          21           1
SMALL
USER_CHARGES
 
@<TRIPOS>ATOM
       1    C1      20.231050   19.291898   25.480486 C.2        1 MOL1         0.6145
       2    O1      20.900095   20.301411   25.381686 O.co2      1 MOL1        -0.6735
       3    O2      19.706697   18.930835   26.515623 O.co2      1 MOL1        -0.6735
       4    C2      20.021550   18.441075   24.233152 C.3        1 MOL1        -0.1985
       5    H1      19.929920   17.394083   24.545478 H          1 MOL1         0.0740
       6    H2      20.926909   18.517853   23.621197 H          1 MOL1         0.0740
       7    C3      18.771421   18.866803   23.419937 C.3        1 MOL1        -0.1882
       8    H3      17.893995   18.821691   24.079608 H          1 MOL1         0.0742
       9    H4      18.861754   19.916300   23.112698 H          1 MOL1         0.0742
      10    C4      18.504921   17.971987   22.185602 C.3        1 MOL1        -0.1880
      11    H5      17.562015   18.288147   21.719066 H          1 MOL1         0.0742
      12    H6      18.338288   16.941978   22.529171 H          1 MOL1         0.0742
      13    C5      19.616691   17.957747   21.103336 C.3        1 MOL1        -0.1880
      14    H7      20.555707   17.565128   21.514662 H          1 MOL1         0.0742
      15    H8      19.310684   17.234248   20.335427 H          1 MOL1         0.0742
      16    C6      19.858485   19.317694   20.400876 C.3        1 MOL1        -0.1856
      17    H9      18.932959   19.909507   20.387103 H          1 MOL1         0.0742
      18    H10     20.112900   19.125425   19.349424 H          1 MOL1         0.0742
      19    C7      21.009091   20.139548   21.023302 C.3        1 MOL1        -0.2871
      20    H11     20.796280   20.422245   22.060428 H          1 MOL1         0.0754
      21    H12     21.170733   21.063923   20.454041 H          1 MOL1         0.0754
      22    H13     21.947452   19.570172   21.012043 H          1 MOL1         0.0754
@<TRIPOS>BOND
    1     1     2    1
    2     1     3    2
    3     1     4    1
    4     4     5    1
    5     4     6    1
    6     4     7    1
    7     7     8    1
    8     7     9    1
    9     7    10    1
   10    10    11    1
   11    10    12    1
   12    10    13    1
   13    13    14    1
   14    13    15    1
   15    13    16    1
   16    16    17    1
   17    16    18    1
   18    16    19    1
   19    19    20    1
   20    19    21    1
   21    19    22    1
@<TRIPOS>SUBSTRUCTURE
       1 MOL1            1 RESIDUE      1      MOL     
@<SCITEGIC>MOL_PROPERTY
VM2 Rank
SciTegic.value.IntegerValue
60

@<SCITEGIC>MOL_PROPERTY
Conf_Id
SciTegic.value.IntegerValue
365

@<SCITEGIC>MOL_PROPERTY
Probability
SciTegic.value.DoubleValue
0.00

@<SCITEGIC>MOL_PROPERTY
Sum Probability
SciTegic.value.DoubleValue
99.97

@<SCITEGIC>MOL_PROPERTY
Delta G
SciTegic.value.DoubleValue
5.351

@<SCITEGIC>MOL_PROPERTY
G
SciTegic.value.DoubleValue
-11.647

@<SCITEGIC>MOL_PROPERTY
E
SciTegic.value.DoubleValue
-32.062

@<SCITEGIC>MOL_PROPERTY
-TS
SciTegic.value.DoubleValue
20.415

@<SCITEGIC>MOL_PROPERTY
U+W
SciTegic.value.DoubleValue
-49.947

@<SCITEGIC>MOL_PROPERTY
U
SciTegic.value.DoubleValue
11.583

@<SCITEGIC>MOL_PROPERTY
W
SciTegic.value.DoubleValue
-61.530

@<SCITEGIC>MOL_PROPERTY
W(PB)
SciTegic.value.DoubleValue
-63.714

@<SCITEGIC>MOL_PROPERTY
W(SA)
SciTegic.value.DoubleValue
2.184

@<SCITEGIC>MOL_PROPERTY
Valence
SciTegic.value.DoubleValue
10.661

@<SCITEGIC>MOL_PROPERTY
Coulomb
SciTegic.value.DoubleValue
0.424

@<SCITEGIC>MOL_PROPERTY
VdW
SciTegic.value.DoubleValue
0.498

@<SCITEGIC>MOL_PROPERTY
VdW6
SciTegic.value.DoubleValue
-9.424

@<SCITEGIC>MOL_PROPERTY
VdW12
SciTegic.value.DoubleValue
9.922

@<SCITEGIC>MOL_PROPERTY
Bond
SciTegic.value.DoubleValue
0.226

@<SCITEGIC>MOL_PROPERTY
Angle
SciTegic.value.DoubleValue
3.567

@<SCITEGIC>MOL_PROPERTY
Pdih
SciTegic.value.DoubleValue
6.867

@<SCITEGIC>MOL_PROPERTY
Idih
SciTegic.value.DoubleValue
0.001

@<SCITEGIC>MOL_PROPERTY
Tether
SciTegic.value.DoubleValue
0.000

@<TRIPOS>MOLECULE
guest-s21_vm2.mol2 : vm2 ligand conformer 61
          22          21           1
SMALL
USER_CHARGES
 
@<TRIPOS>ATOM
       1    C1      19.904723   19.046018   25.712727 C.2        1 MOL1         0.6145
       2    O1      18.904354   19.565979   26.166425 O.co2      1 MOL1        -0.6735
       3    O2      20.337911   17.976329   26.093629 O.co2      1 MOL1        -0.6735
       4    C2      20.673296   19.785901   24.621277 C.3        1 MOL1        -0.1985
       5    H1      21.735581   19.753302   24.890494 H          1 MOL1         0.0740
       6    H2      20.374500   20.841068   24.635360 H          1 MOL1         0.0740
       7    C3      20.481967   19.194202   23.200371 C.3        1 MOL1        -0.1882
       8    H3      21.188447   19.689000   22.522161 H          1 MOL1         0.0742
       9    H4      20.739901   18.126206   23.211802 H          1 MOL1         0.0742
      10    C4      19.043185   19.382590   22.666050 C.3        1 MOL1        -0.1880
      11    H5      18.824638   20.455446   22.577069 H          1 MOL1         0.0742
      12    H6      18.330348   18.984646   23.401131 H          1 MOL1         0.0742
      13    C5      18.772615   18.687231   21.308189 C.3        1 MOL1        -0.1880
      14    H7      18.898377   17.600617   21.410072 H          1 MOL1         0.0742
      15    H8      17.712997   18.842842   21.063525 H          1 MOL1         0.0742
      16    C6      19.622474   19.217541   20.126492 C.3        1 MOL1        -0.1856
      17    H9      19.904202   20.265356   20.299474 H          1 MOL1         0.0742
      18    H10     19.002884   19.214001   19.219081 H          1 MOL1         0.0742
      19    C7      20.879475   18.363208   19.848840 C.3        1 MOL1        -0.2871
      20    H11     21.553412   18.335284   20.712515 H          1 MOL1         0.0754
      21    H12     21.440936   18.771491   18.998614 H          1 MOL1         0.0754
      22    H13     20.602149   17.329979   19.602641 H          1 MOL1         0.0754
@<TRIPOS>BOND
    1     1     2    1
    2     1     3    2
    3     1     4    1
    4     4     5    1
    5     4     6    1
    6     4     7    1
    7     7     8    1
    8     7     9    1
    9     7    10    1
   10    10    11    1
   11    10    12    1
   12    10    13    1
   13    13    14    1
   14    13    15    1
   15    13    16    1
   16    16    17    1
   17    16    18    1
   18    16    19    1
   19    19    20    1
   20    19    21    1
   21    19    22    1
@<TRIPOS>SUBSTRUCTURE
       1 MOL1            1 RESIDUE      1      MOL     
@<SCITEGIC>MOL_PROPERTY
VM2 Rank
SciTegic.value.IntegerValue
61

@<SCITEGIC>MOL_PROPERTY
Conf_Id
SciTegic.value.IntegerValue
722

@<SCITEGIC>MOL_PROPERTY
Probability
SciTegic.value.DoubleValue
0.00

@<SCITEGIC>MOL_PROPERTY
Sum Probability
SciTegic.value.DoubleValue
99.97

@<SCITEGIC>MOL_PROPERTY
Delta G
SciTegic.value.DoubleValue
5.399

@<SCITEGIC>MOL_PROPERTY
G
SciTegic.value.DoubleValue
-11.600

@<SCITEGIC>MOL_PROPERTY
E
SciTegic.value.DoubleValue
-31.837

@<SCITEGIC>MOL_PROPERTY
-TS
SciTegic.value.DoubleValue
20.237

@<SCITEGIC>MOL_PROPERTY
U+W
SciTegic.value.DoubleValue
-49.722

@<SCITEGIC>MOL_PROPERTY
U
SciTegic.value.DoubleValue
11.773

@<SCITEGIC>MOL_PROPERTY
W
SciTegic.value.DoubleValue
-61.495

@<SCITEGIC>MOL_PROPERTY
W(PB)
SciTegic.value.DoubleValue
-63.749

@<SCITEGIC>MOL_PROPERTY
W(SA)
SciTegic.value.DoubleValue
2.254

@<SCITEGIC>MOL_PROPERTY
Valence
SciTegic.value.DoubleValue
10.419

@<SCITEGIC>MOL_PROPERTY
Coulomb
SciTegic.value.DoubleValue
0.565

@<SCITEGIC>MOL_PROPERTY
VdW
SciTegic.value.DoubleValue
0.789

@<SCITEGIC>MOL_PROPERTY
VdW6
SciTegic.value.DoubleValue
-8.847

@<SCITEGIC>MOL_PROPERTY
VdW12
SciTegic.value.DoubleValue
9.636

@<SCITEGIC>MOL_PROPERTY
Bond
SciTegic.value.DoubleValue
0.199

@<SCITEGIC>MOL_PROPERTY
Angle
SciTegic.value.DoubleValue
3.187

@<SCITEGIC>MOL_PROPERTY
Pdih
SciTegic.value.DoubleValue
7.032

@<SCITEGIC>MOL_PROPERTY
Idih
SciTegic.value.DoubleValue
0.001

@<SCITEGIC>MOL_PROPERTY
Tether
SciTegic.value.DoubleValue
0.000

@<TRIPOS>MOLECULE
guest-s21_vm2.mol2 : vm2 ligand conformer 62
          22          21           1
SMALL
USER_CHARGES
 
@<TRIPOS>ATOM
       1    C1      19.715959   19.150652   25.718584 C.2        1 MOL1         0.6145
       2    O1      19.823972   20.336773   25.960123 O.co2      1 MOL1        -0.6735
       3    O2      20.289515   18.282049   26.345919 O.co2      1 MOL1        -0.6735
       4    C2      18.794777   18.725205   24.578606 C.3        1 MOL1        -0.1985
       5    H1      18.110906   19.552522   24.353423 H          1 MOL1         0.0740
       6    H2      18.179193   17.895999   24.946630 H          1 MOL1         0.0740
       7    C3      19.541902   18.284345   23.293046 C.3        1 MOL1        -0.1882
       8    H3      20.242469   17.475036   23.541099 H          1 MOL1         0.0742
       9    H4      18.814314   17.860657   22.591106 H          1 MOL1         0.0742
      10    C4      20.309764   19.449941   22.623253 C.3        1 MOL1        -0.1880
      11    H5      21.067791   19.815360   23.329653 H          1 MOL1         0.0742
      12    H6      19.634246   20.295991   22.437124 H          1 MOL1         0.0742
      13    C5      21.023016   19.039472   21.309990 C.3        1 MOL1        -0.1880
      14    H7      21.975090   19.584718   21.253985 H          1 MOL1         0.0742
      15    H8      21.290554   17.974356   21.338351 H          1 MOL1         0.0742
      16    C6      20.229355   19.354826   20.017985 C.3        1 MOL1        -0.1856
      17    H9      20.857295   19.101855   19.152621 H          1 MOL1         0.0742
      18    H10     20.041886   20.435676   19.955909 H          1 MOL1         0.0742
      19    C7      18.891740   18.595737   19.896494 C.3        1 MOL1        -0.2871
      20    H11     18.173277   18.937095   20.652086 H          1 MOL1         0.0754
      21    H12     19.039638   17.514804   20.017631 H          1 MOL1         0.0754
      22    H13     18.441111   18.767696   18.910524 H          1 MOL1         0.0754
@<TRIPOS>BOND
    1     1     2    1
    2     1     3    2
    3     1     4    1
    4     4     5    1
    5     4     6    1
    6     4     7    1
    7     7     8    1
    8     7     9    1
    9     7    10    1
   10    10    11    1
   11    10    12    1
   12    10    13    1
   13    13    14    1
   14    13    15    1
   15    13    16    1
   16    16    17    1
   17    16    18    1
   18    16    19    1
   19    19    20    1
   20    19    21    1
   21    19    22    1
@<TRIPOS>SUBSTRUCTURE
       1 MOL1            1 RESIDUE      1      MOL     
@<SCITEGIC>MOL_PROPERTY
VM2 Rank
SciTegic.value.IntegerValue
62

@<SCITEGIC>MOL_PROPERTY
Conf_Id
SciTegic.value.IntegerValue
65

@<SCITEGIC>MOL_PROPERTY
Probability
SciTegic.value.DoubleValue
0.00

@<SCITEGIC>MOL_PROPERTY
Sum Probability
SciTegic.value.DoubleValue
99.97

@<SCITEGIC>MOL_PROPERTY
Delta G
SciTegic.value.DoubleValue
5.403

@<SCITEGIC>MOL_PROPERTY
G
SciTegic.value.DoubleValue
-11.596

@<SCITEGIC>MOL_PROPERTY
E
SciTegic.value.DoubleValue
-31.810

@<SCITEGIC>MOL_PROPERTY
-TS
SciTegic.value.DoubleValue
20.214

@<SCITEGIC>MOL_PROPERTY
U+W
SciTegic.value.DoubleValue
-49.695

@<SCITEGIC>MOL_PROPERTY
U
SciTegic.value.DoubleValue
11.659

@<SCITEGIC>MOL_PROPERTY
W
SciTegic.value.DoubleValue
-61.354

@<SCITEGIC>MOL_PROPERTY
W(PB)
SciTegic.value.DoubleValue
-63.613

@<SCITEGIC>MOL_PROPERTY
W(SA)
SciTegic.value.DoubleValue
2.259

@<SCITEGIC>MOL_PROPERTY
Valence
SciTegic.value.DoubleValue
10.364

@<SCITEGIC>MOL_PROPERTY
Coulomb
SciTegic.value.DoubleValue
0.563

@<SCITEGIC>MOL_PROPERTY
VdW
SciTegic.value.DoubleValue
0.732

@<SCITEGIC>MOL_PROPERTY
VdW6
SciTegic.value.DoubleValue
-8.874

@<SCITEGIC>MOL_PROPERTY
VdW12
SciTegic.value.DoubleValue
9.606

@<SCITEGIC>MOL_PROPERTY
Bond
SciTegic.value.DoubleValue
0.201

@<SCITEGIC>MOL_PROPERTY
Angle
SciTegic.value.DoubleValue
3.127

@<SCITEGIC>MOL_PROPERTY
Pdih
SciTegic.value.DoubleValue
7.036

@<SCITEGIC>MOL_PROPERTY
Idih
SciTegic.value.DoubleValue
0.001

@<SCITEGIC>MOL_PROPERTY
Tether
SciTegic.value.DoubleValue
0.000

@<TRIPOS>MOLECULE
guest-s21_vm2.mol2 : vm2 ligand conformer 63
          22          21           1
SMALL
USER_CHARGES
 
@<TRIPOS>ATOM
       1    C1      19.896736   19.192959   25.707104 C.2        1 MOL1         0.6145
       2    O1      20.210349   20.329098   26.003426 O.co2      1 MOL1        -0.6735
       3    O2      18.956466   18.604223   26.203312 O.co2      1 MOL1        -0.6735
       4    C2      20.745206   18.459197   24.672170 C.3        1 MOL1        -0.1985
       5    H1      20.561968   17.382119   24.767992 H          1 MOL1         0.0740
       6    H2      21.796639   18.626700   24.933746 H          1 MOL1         0.0740
       7    C3      20.497055   18.916586   23.211037 C.3        1 MOL1        -0.1882
       8    H3      20.638292   20.003903   23.139822 H          1 MOL1         0.0742
       9    H4      21.255556   18.450510   22.569667 H          1 MOL1         0.0742
      10    C4      19.089183   18.533934   22.698632 C.3        1 MOL1        -0.1880
      11    H5      18.334575   18.907723   23.404105 H          1 MOL1         0.0742
      12    H6      18.987921   17.440128   22.692795 H          1 MOL1         0.0742
      13    C5      18.750838   19.090278   21.292743 C.3        1 MOL1        -0.1880
      14    H7      17.715159   18.803184   21.065116 H          1 MOL1         0.0742
      15    H8      18.758395   20.188708   21.310754 H          1 MOL1         0.0742
      16    C6      19.657704   18.565839   20.151490 C.3        1 MOL1        -0.1856
      17    H9      19.045049   18.433229   19.249068 H          1 MOL1         0.0742
      18    H10     20.049975   17.570782   20.402881 H          1 MOL1         0.0742
      19    C7      20.816464   19.526886   19.804086 C.3        1 MOL1        -0.2871
      20    H11     20.430434   20.502352   19.480768 H          1 MOL1         0.0754
      21    H12     21.422129   19.117664   18.985227 H          1 MOL1         0.0754
      22    H13     21.479920   19.693216   20.660279 H          1 MOL1         0.0754
@<TRIPOS>BOND
    1     1     2    1
    2     1     3    2
    3     1     4    1
    4     4     5    1
    5     4     6    1
    6     4     7    1
    7     7     8    1
    8     7     9    1
    9     7    10    1
   10    10    11    1
   11    10    12    1
   12    10    13    1
   13    13    14    1
   14    13    15    1
   15    13    16    1
   16    16    17    1
   17    16    18    1
   18    16    19    1
   19    19    20    1
   20    19    21    1
   21    19    22    1
@<TRIPOS>SUBSTRUCTURE
       1 MOL1            1 RESIDUE      1      MOL     
@<SCITEGIC>MOL_PROPERTY
VM2 Rank
SciTegic.value.IntegerValue
63

@<SCITEGIC>MOL_PROPERTY
Conf_Id
SciTegic.value.IntegerValue
639

@<SCITEGIC>MOL_PROPERTY
Probability
SciTegic.value.DoubleValue
0.00

@<SCITEGIC>MOL_PROPERTY
Sum Probability
SciTegic.value.DoubleValue
99.98

@<SCITEGIC>MOL_PROPERTY
Delta G
SciTegic.value.DoubleValue
5.428

@<SCITEGIC>MOL_PROPERTY
G
SciTegic.value.DoubleValue
-11.570

@<SCITEGIC>MOL_PROPERTY
E
SciTegic.value.DoubleValue
-31.808

@<SCITEGIC>MOL_PROPERTY
-TS
SciTegic.value.DoubleValue
20.237

@<SCITEGIC>MOL_PROPERTY
U+W
SciTegic.value.DoubleValue
-49.692

@<SCITEGIC>MOL_PROPERTY
U
SciTegic.value.DoubleValue
11.773

@<SCITEGIC>MOL_PROPERTY
W
SciTegic.value.DoubleValue
-61.466

@<SCITEGIC>MOL_PROPERTY
W(PB)
SciTegic.value.DoubleValue
-63.714

@<SCITEGIC>MOL_PROPERTY
W(SA)
SciTegic.value.DoubleValue
2.248

@<SCITEGIC>MOL_PROPERTY
Valence
SciTegic.value.DoubleValue
10.419

@<SCITEGIC>MOL_PROPERTY
Coulomb
SciTegic.value.DoubleValue
0.566

@<SCITEGIC>MOL_PROPERTY
VdW
SciTegic.value.DoubleValue
0.789

@<SCITEGIC>MOL_PROPERTY
VdW6
SciTegic.value.DoubleValue
-8.847

@<SCITEGIC>MOL_PROPERTY
VdW12
SciTegic.value.DoubleValue
9.636

@<SCITEGIC>MOL_PROPERTY
Bond
SciTegic.value.DoubleValue
0.200

@<SCITEGIC>MOL_PROPERTY
Angle
SciTegic.value.DoubleValue
3.187

@<SCITEGIC>MOL_PROPERTY
Pdih
SciTegic.value.DoubleValue
7.032

@<SCITEGIC>MOL_PROPERTY
Idih
SciTegic.value.DoubleValue
0.001

@<SCITEGIC>MOL_PROPERTY
Tether
SciTegic.value.DoubleValue
0.000

@<TRIPOS>MOLECULE
guest-s21_vm2.mol2 : vm2 ligand conformer 64
          22          21           1
SMALL
USER_CHARGES
 
@<TRIPOS>ATOM
       1    C1      19.896823   19.195427   25.718848 C.2        1 MOL1         0.6145
       2    O1      19.245632   20.192887   25.959500 O.co2      1 MOL1        -0.6735
       3    O2      19.795201   18.159050   26.345410 O.co2      1 MOL1        -0.6735
       4    C2      20.912925   19.251462   24.581515 C.3        1 MOL1        -0.1985
       5    H1      21.844053   18.806453   24.951565 H          1 MOL1         0.0740
       6    H2      21.130683   20.302813   24.357719 H          1 MOL1         0.0740
       7    C3      20.462253   18.513222   23.294225 C.3        1 MOL1        -0.1882
       8    H3      21.305369   18.479679   22.594481 H          1 MOL1         0.0742
       9    H4      20.221076   17.470007   23.540889 H          1 MOL1         0.0742
      10    C4      19.240049   19.184645   22.621718 C.3        1 MOL1        -0.1880
      11    H5      19.441836   20.248512   22.436689 H          1 MOL1         0.0742
      12    H6      18.397363   19.152662   23.325986 H          1 MOL1         0.0742
      13    C5      18.804895   18.488963   21.306978 C.3        1 MOL1        -0.1880
      14    H7      19.066356   17.422343   21.335488 H          1 MOL1         0.0742
      15    H8      17.708510   18.525792   21.248172 H          1 MOL1         0.0742
      16    C6      19.362301   19.139450   20.016711 C.3        1 MOL1        -0.1856
      17    H9      19.022821   20.182566   19.954282 H          1 MOL1         0.0742
      18    H10     18.927700   18.622663   19.149987 H          1 MOL1         0.0742
      19    C7      20.899921   19.093896   19.899094 C.3        1 MOL1        -0.2871
      20    H11     21.373488   19.731311   20.656106 H          1 MOL1         0.0754
      21    H12     21.220356   19.456936   18.914058 H          1 MOL1         0.0754
      22    H13     21.274276   18.069198   20.020826 H          1 MOL1         0.0754
@<TRIPOS>BOND
    1     1     2    1
    2     1     3    2
    3     1     4    1
    4     4     5    1
    5     4     6    1
    6     4     7    1
    7     7     8    1
    8     7     9    1
    9     7    10    1
   10    10    11    1
   11    10    12    1
   12    10    13    1
   13    13    14    1
   14    13    15    1
   15    13    16    1
   16    16    17    1
   17    16    18    1
   18    16    19    1
   19    19    20    1
   20    19    21    1
   21    19    22    1
@<TRIPOS>SUBSTRUCTURE
       1 MOL1            1 RESIDUE      1      MOL     
@<SCITEGIC>MOL_PROPERTY
VM2 Rank
SciTegic.value.IntegerValue
64

@<SCITEGIC>MOL_PROPERTY
Conf_Id
SciTegic.value.IntegerValue
80

@<SCITEGIC>MOL_PROPERTY
Probability
SciTegic.value.DoubleValue
0.00

@<SCITEGIC>MOL_PROPERTY
Sum Probability
SciTegic.value.DoubleValue
99.98

@<SCITEGIC>MOL_PROPERTY
Delta G
SciTegic.value.DoubleValue
5.433

@<SCITEGIC>MOL_PROPERTY
G
SciTegic.value.DoubleValue
-11.565

@<SCITEGIC>MOL_PROPERTY
E
SciTegic.value.DoubleValue
-31.779

@<SCITEGIC>MOL_PROPERTY
-TS
SciTegic.value.DoubleValue
20.214

@<SCITEGIC>MOL_PROPERTY
U+W
SciTegic.value.DoubleValue
-49.664

@<SCITEGIC>MOL_PROPERTY
U
SciTegic.value.DoubleValue
11.658

@<SCITEGIC>MOL_PROPERTY
W
SciTegic.value.DoubleValue
-61.322

@<SCITEGIC>MOL_PROPERTY
W(PB)
SciTegic.value.DoubleValue
-63.559

@<SCITEGIC>MOL_PROPERTY
W(SA)
SciTegic.value.DoubleValue
2.236

@<SCITEGIC>MOL_PROPERTY
Valence
SciTegic.value.DoubleValue
10.364

@<SCITEGIC>MOL_PROPERTY
Coulomb
SciTegic.value.DoubleValue
0.562

@<SCITEGIC>MOL_PROPERTY
VdW
SciTegic.value.DoubleValue
0.733

@<SCITEGIC>MOL_PROPERTY
VdW6
SciTegic.value.DoubleValue
-8.874

@<SCITEGIC>MOL_PROPERTY
VdW12
SciTegic.value.DoubleValue
9.606

@<SCITEGIC>MOL_PROPERTY
Bond
SciTegic.value.DoubleValue
0.201

@<SCITEGIC>MOL_PROPERTY
Angle
SciTegic.value.DoubleValue
3.127

@<SCITEGIC>MOL_PROPERTY
Pdih
SciTegic.value.DoubleValue
7.035

@<SCITEGIC>MOL_PROPERTY
Idih
SciTegic.value.DoubleValue
0.001

@<SCITEGIC>MOL_PROPERTY
Tether
SciTegic.value.DoubleValue
0.000

@<TRIPOS>MOLECULE
guest-s21_vm2.mol2 : vm2 ligand conformer 65
          22          21           1
SMALL
USER_CHARGES
 
@<TRIPOS>ATOM
       1    C1      19.807193   18.891362   25.601152 C.2        1 MOL1         0.6145
       2    O1      18.860374   19.499011   26.060762 O.co2      1 MOL1        -0.6735
       3    O2      20.013471   17.711730   25.808176 O.co2      1 MOL1        -0.6735
       4    C2      20.805959   19.655097   24.736110 C.3        1 MOL1        -0.1985
       5    H1      21.811911   19.368340   25.064493 H          1 MOL1         0.0740
       6    H2      20.698850   20.727101   24.941341 H          1 MOL1         0.0740
       7    C3      20.660200   19.382571   23.216388 C.3        1 MOL1        -0.1882
       8    H3      21.489775   19.867318   22.684471 H          1 MOL1         0.0742
       9    H4      20.750841   18.302671   23.040458 H          1 MOL1         0.0742
      10    C4      19.317377   19.896783   22.648361 C.3        1 MOL1        -0.1880
      11    H5      19.179685   20.943629   22.951610 H          1 MOL1         0.0742
      12    H6      18.488155   19.335349   23.100486 H          1 MOL1         0.0742
      13    C5      19.207546   19.818916   21.104914 C.3        1 MOL1        -0.1880
      14    H7      18.243643   20.262510   20.820354 H          1 MOL1         0.0742
      15    H8      19.975780   20.451365   20.639422 H          1 MOL1         0.0742
      16    C6      19.267797   18.384601   20.522734 C.3        1 MOL1        -0.1856
      17    H9      18.589021   18.327102   19.660624 H          1 MOL1         0.0742
      18    H10     18.890920   17.659332   21.257125 H          1 MOL1         0.0742
      19    C7      20.680082   17.978928   20.045401 C.3        1 MOL1        -0.2871
      20    H11     21.037805   18.659711   19.262054 H          1 MOL1         0.0754
      21    H12     20.666958   16.964032   19.627518 H          1 MOL1         0.0754
      22    H13     21.407907   17.993659   20.864458 H          1 MOL1         0.0754
@<TRIPOS>BOND
    1     1     2    1
    2     1     3    2
    3     1     4    1
    4     4     5    1
    5     4     6    1
    6     4     7    1
    7     7     8    1
    8     7     9    1
    9     7    10    1
   10    10    11    1
   11    10    12    1
   12    10    13    1
   13    13    14    1
   14    13    15    1
   15    13    16    1
   16    16    17    1
   17    16    18    1
   18    16    19    1
   19    19    20    1
   20    19    21    1
   21    19    22    1
@<TRIPOS>SUBSTRUCTURE
       1 MOL1            1 RESIDUE      1      MOL     
@<SCITEGIC>MOL_PROPERTY
VM2 Rank
SciTegic.value.IntegerValue
65

@<SCITEGIC>MOL_PROPERTY
Conf_Id
SciTegic.value.IntegerValue
370

@<SCITEGIC>MOL_PROPERTY
Probability
SciTegic.value.DoubleValue
0.00

@<SCITEGIC>MOL_PROPERTY
Sum Probability
SciTegic.value.DoubleValue
99.98

@<SCITEGIC>MOL_PROPERTY
Delta G
SciTegic.value.DoubleValue
5.491

@<SCITEGIC>MOL_PROPERTY
G
SciTegic.value.DoubleValue
-11.507

@<SCITEGIC>MOL_PROPERTY
E
SciTegic.value.DoubleValue
-31.711

@<SCITEGIC>MOL_PROPERTY
-TS
SciTegic.value.DoubleValue
20.203

@<SCITEGIC>MOL_PROPERTY
U+W
SciTegic.value.DoubleValue
-49.596

@<SCITEGIC>MOL_PROPERTY
U
SciTegic.value.DoubleValue
12.072

@<SCITEGIC>MOL_PROPERTY
W
SciTegic.value.DoubleValue
-61.667

@<SCITEGIC>MOL_PROPERTY
W(PB)
SciTegic.value.DoubleValue
-63.917

@<SCITEGIC>MOL_PROPERTY
W(SA)
SciTegic.value.DoubleValue
2.250

@<SCITEGIC>MOL_PROPERTY
Valence
SciTegic.value.DoubleValue
10.343

@<SCITEGIC>MOL_PROPERTY
Coulomb
SciTegic.value.DoubleValue
1.036

@<SCITEGIC>MOL_PROPERTY
VdW
SciTegic.value.DoubleValue
0.692

@<SCITEGIC>MOL_PROPERTY
VdW6
SciTegic.value.DoubleValue
-8.924

@<SCITEGIC>MOL_PROPERTY
VdW12
SciTegic.value.DoubleValue
9.616

@<SCITEGIC>MOL_PROPERTY
Bond
SciTegic.value.DoubleValue
0.196

@<SCITEGIC>MOL_PROPERTY
Angle
SciTegic.value.DoubleValue
3.145

@<SCITEGIC>MOL_PROPERTY
Pdih
SciTegic.value.DoubleValue
7.001

@<SCITEGIC>MOL_PROPERTY
Idih
SciTegic.value.DoubleValue
0.001

@<SCITEGIC>MOL_PROPERTY
Tether
SciTegic.value.DoubleValue
0.000

@<TRIPOS>MOLECULE
guest-s21_vm2.mol2 : vm2 ligand conformer 66
          22          21           1
SMALL
USER_CHARGES
 
@<TRIPOS>ATOM
       1    C1      20.127160   18.941906   25.491615 C.2        1 MOL1         0.6145
       2    O1      19.571641   19.413897   26.464159 O.co2      1 MOL1        -0.6735
       3    O2      20.482501   17.782064   25.418267 O.co2      1 MOL1        -0.6735
       4    C2      20.415624   19.864230   24.310113 C.3        1 MOL1        -0.1985
       5    H1      21.176618   19.391008   23.681671 H          1 MOL1         0.0740
       6    H2      20.866986   20.777384   24.715260 H          1 MOL1         0.0740
       7    C3      19.156398   20.238527   23.479771 C.3        1 MOL1        -0.1882
       8    H3      18.404976   20.647975   24.169196 H          1 MOL1         0.0742
       9    H4      19.398684   21.050760   22.781296 H          1 MOL1         0.0742
      10    C4      18.528059   19.050622   22.705270 C.3        1 MOL1        -0.1880
      11    H5      17.437922   19.186037   22.700267 H          1 MOL1         0.0742
      12    H6      18.707257   18.106119   23.236841 H          1 MOL1         0.0742
      13    C5      18.987437   18.922966   21.231134 C.3        1 MOL1        -0.1880
      14    H7      18.420439   18.105894   20.764486 H          1 MOL1         0.0742
      15    H8      18.718094   19.836322   20.683376 H          1 MOL1         0.0742
      16    C6      20.496642   18.646867   21.057752 C.3        1 MOL1        -0.1856
      17    H9      20.791963   17.791658   21.681432 H          1 MOL1         0.0742
      18    H10     21.075451   19.514703   21.399432 H          1 MOL1         0.0742
      19    C7      20.854539   18.357922   19.585919 C.3        1 MOL1        -0.2871
      20    H11     20.591075   19.208556   18.943772 H          1 MOL1         0.0754
      21    H12     20.320803   17.471888   19.217977 H          1 MOL1         0.0754
      22    H13     21.931313   18.173087   19.479103 H          1 MOL1         0.0754
@<TRIPOS>BOND
    1     1     2    1
    2     1     3    2
    3     1     4    1
    4     4     5    1
    5     4     6    1
    6     4     7    1
    7     7     8    1
    8     7     9    1
    9     7    10    1
   10    10    11    1
   11    10    12    1
   12    10    13    1
   13    13    14    1
   14    13    15    1
   15    13    16    1
   16    16    17    1
   17    16    18    1
   18    16    19    1
   19    19    20    1
   20    19    21    1
   21    19    22    1
@<TRIPOS>SUBSTRUCTURE
       1 MOL1            1 RESIDUE      1      MOL     
@<SCITEGIC>MOL_PROPERTY
VM2 Rank
SciTegic.value.IntegerValue
66

@<SCITEGIC>MOL_PROPERTY
Conf_Id
SciTegic.value.IntegerValue
746

@<SCITEGIC>MOL_PROPERTY
Probability
SciTegic.value.DoubleValue
0.00

@<SCITEGIC>MOL_PROPERTY
Sum Probability
SciTegic.value.DoubleValue
99.99

@<SCITEGIC>MOL_PROPERTY
Delta G
SciTegic.value.DoubleValue
5.510

@<SCITEGIC>MOL_PROPERTY
G
SciTegic.value.DoubleValue
-11.489

@<SCITEGIC>MOL_PROPERTY
E
SciTegic.value.DoubleValue
-31.788

@<SCITEGIC>MOL_PROPERTY
-TS
SciTegic.value.DoubleValue
20.300

@<SCITEGIC>MOL_PROPERTY
U+W
SciTegic.value.DoubleValue
-49.673

@<SCITEGIC>MOL_PROPERTY
U
SciTegic.value.DoubleValue
11.908

@<SCITEGIC>MOL_PROPERTY
W
SciTegic.value.DoubleValue
-61.582

@<SCITEGIC>MOL_PROPERTY
W(PB)
SciTegic.value.DoubleValue
-63.808

@<SCITEGIC>MOL_PROPERTY
W(SA)
SciTegic.value.DoubleValue
2.226

@<SCITEGIC>MOL_PROPERTY
Valence
SciTegic.value.DoubleValue
10.449

@<SCITEGIC>MOL_PROPERTY
Coulomb
SciTegic.value.DoubleValue
0.769

@<SCITEGIC>MOL_PROPERTY
VdW
SciTegic.value.DoubleValue
0.691

@<SCITEGIC>MOL_PROPERTY
VdW6
SciTegic.value.DoubleValue
-9.053

@<SCITEGIC>MOL_PROPERTY
VdW12
SciTegic.value.DoubleValue
9.744

@<SCITEGIC>MOL_PROPERTY
Bond
SciTegic.value.DoubleValue
0.222

@<SCITEGIC>MOL_PROPERTY
Angle
SciTegic.value.DoubleValue
3.228

@<SCITEGIC>MOL_PROPERTY
Pdih
SciTegic.value.DoubleValue
6.998

@<SCITEGIC>MOL_PROPERTY
Idih
SciTegic.value.DoubleValue
0.001

@<SCITEGIC>MOL_PROPERTY
Tether
SciTegic.value.DoubleValue
0.000

@<TRIPOS>MOLECULE
guest-s21_vm2.mol2 : vm2 ligand conformer 67
          22          21           1
SMALL
USER_CHARGES
 
@<TRIPOS>ATOM
       1    C1      20.163869   19.173828   25.423461 C.2        1 MOL1         0.6145
       2    O1      20.931708   20.114634   25.470978 O.co2      1 MOL1        -0.6735
       3    O2      20.440164   18.059512   25.822160 O.co2      1 MOL1        -0.6735
       4    C2      18.766527   19.413906   24.858381 C.3        1 MOL1        -0.1985
       5    H1      18.386519   20.339548   25.306438 H          1 MOL1         0.0740
       6    H2      18.107901   18.604127   25.194955 H          1 MOL1         0.0740
       7    C3      18.725190   19.531978   23.312822 C.3        1 MOL1        -0.1882
       8    H3      17.718865   19.848755   23.007647 H          1 MOL1         0.0742
       9    H4      19.410793   20.327230   22.995990 H          1 MOL1         0.0742
      10    C4      19.071831   18.198405   22.606869 C.3        1 MOL1        -0.1880
      11    H5      18.341456   17.442503   22.926172 H          1 MOL1         0.0742
      12    H6      20.053672   17.831235   22.936004 H          1 MOL1         0.0742
      13    C5      19.036102   18.296365   21.060598 C.3        1 MOL1        -0.1880
      14    H7      18.646850   17.347496   20.666936 H          1 MOL1         0.0742
      15    H8      18.320458   19.067154   20.743537 H          1 MOL1         0.0742
      16    C6      20.413883   18.545236   20.398420 C.3        1 MOL1        -0.1856
      17    H9      20.286240   18.521147   19.307434 H          1 MOL1         0.0742
      18    H10     21.095373   17.719828   20.646450 H          1 MOL1         0.0742
      19    C7      21.070726   19.885136   20.790312 C.3        1 MOL1        -0.2871
      20    H11     20.387594   20.725813   20.612877 H          1 MOL1         0.0754
      21    H12     21.978893   20.055328   20.197885 H          1 MOL1         0.0754
      22    H13     21.361249   19.888554   21.848658 H          1 MOL1         0.0754
@<TRIPOS>BOND
    1     1     2    1
    2     1     3    2
    3     1     4    1
    4     4     5    1
    5     4     6    1
    6     4     7    1
    7     7     8    1
    8     7     9    1
    9     7    10    1
   10    10    11    1
   11    10    12    1
   12    10    13    1
   13    13    14    1
   14    13    15    1
   15    13    16    1
   16    16    17    1
   17    16    18    1
   18    16    19    1
   19    19    20    1
   20    19    21    1
   21    19    22    1
@<TRIPOS>SUBSTRUCTURE
       1 MOL1            1 RESIDUE      1      MOL     
@<SCITEGIC>MOL_PROPERTY
VM2 Rank
SciTegic.value.IntegerValue
67

@<SCITEGIC>MOL_PROPERTY
Conf_Id
SciTegic.value.IntegerValue
668

@<SCITEGIC>MOL_PROPERTY
Probability
SciTegic.value.DoubleValue
0.00

@<SCITEGIC>MOL_PROPERTY
Sum Probability
SciTegic.value.DoubleValue
99.99

@<SCITEGIC>MOL_PROPERTY
Delta G
SciTegic.value.DoubleValue
5.657

@<SCITEGIC>MOL_PROPERTY
G
SciTegic.value.DoubleValue
-11.341

@<SCITEGIC>MOL_PROPERTY
E
SciTegic.value.DoubleValue
-31.598

@<SCITEGIC>MOL_PROPERTY
-TS
SciTegic.value.DoubleValue
20.257

@<SCITEGIC>MOL_PROPERTY
U+W
SciTegic.value.DoubleValue
-49.483

@<SCITEGIC>MOL_PROPERTY
U
SciTegic.value.DoubleValue
12.672

@<SCITEGIC>MOL_PROPERTY
W
SciTegic.value.DoubleValue
-62.155

@<SCITEGIC>MOL_PROPERTY
W(PB)
SciTegic.value.DoubleValue
-64.363

@<SCITEGIC>MOL_PROPERTY
W(SA)
SciTegic.value.DoubleValue
2.207

@<SCITEGIC>MOL_PROPERTY
Valence
SciTegic.value.DoubleValue
10.318

@<SCITEGIC>MOL_PROPERTY
Coulomb
SciTegic.value.DoubleValue
1.786

@<SCITEGIC>MOL_PROPERTY
VdW
SciTegic.value.DoubleValue
0.569

@<SCITEGIC>MOL_PROPERTY
VdW6
SciTegic.value.DoubleValue
-9.119

@<SCITEGIC>MOL_PROPERTY
VdW12
SciTegic.value.DoubleValue
9.688

@<SCITEGIC>MOL_PROPERTY
Bond
SciTegic.value.DoubleValue
0.199

@<SCITEGIC>MOL_PROPERTY
Angle
SciTegic.value.DoubleValue
3.116

@<SCITEGIC>MOL_PROPERTY
Pdih
SciTegic.value.DoubleValue
7.003

@<SCITEGIC>MOL_PROPERTY
Idih
SciTegic.value.DoubleValue
0.001

@<SCITEGIC>MOL_PROPERTY
Tether
SciTegic.value.DoubleValue
0.000

@<TRIPOS>MOLECULE
guest-s21_vm2.mol2 : vm2 ligand conformer 68
          22          21           1
SMALL
USER_CHARGES
 
@<TRIPOS>ATOM
       1    C1      20.169395   19.072160   25.427313 C.2        1 MOL1         0.6145
       2    O1      20.322292   20.236969   25.738511 O.co2      1 MOL1        -0.6735
       3    O2      21.034002   18.226034   25.543392 O.co2      1 MOL1        -0.6735
       4    C2      18.808421   18.640344   24.888054 C.3        1 MOL1        -0.1985
       5    H1      18.064939   19.397710   25.164539 H          1 MOL1         0.0740
       6    H2      18.528611   17.716066   25.407083 H          1 MOL1         0.0740
       7    C3      18.786397   18.400800   23.356214 C.3        1 MOL1        -0.1882
       8    H3      19.555046   17.662244   23.098194 H          1 MOL1         0.0742
       9    H4      17.821359   17.954988   23.080319 H          1 MOL1         0.0742
      10    C4      18.990122   19.706138   22.549037 C.3        1 MOL1        -0.1880
      11    H5      19.925264   20.201113   22.845111 H          1 MOL1         0.0742
      12    H6      18.181170   20.401033   22.812678 H          1 MOL1         0.0742
      13    C5      18.971595   19.487077   21.014928 C.3        1 MOL1        -0.1880
      14    H7      18.344569   18.621657   20.760613 H          1 MOL1         0.0742
      15    H8      18.483933   20.355579   20.551541 H          1 MOL1         0.0742
      16    C6      20.370925   19.338397   20.368042 C.3        1 MOL1        -0.1856
      17    H9      20.958357   20.249035   20.549445 H          1 MOL1         0.0742
      18    H10     20.245976   19.265111   19.278941 H          1 MOL1         0.0742
      19    C7      21.166850   18.111082   20.858509 C.3        1 MOL1        -0.2871
      20    H11     21.451636   18.219939   21.912814 H          1 MOL1         0.0754
      21    H12     22.090539   17.995079   20.277094 H          1 MOL1         0.0754
      22    H13     20.579151   17.190520   20.748675 H          1 MOL1         0.0754
@<TRIPOS>BOND
    1     1     2    1
    2     1     3    2
    3     1     4    1
    4     4     5    1
    5     4     6    1
    6     4     7    1
    7     7     8    1
    8     7     9    1
    9     7    10    1
   10    10    11    1
   11    10    12    1
   12    10    13    1
   13    13    14    1
   14    13    15    1
   15    13    16    1
   16    16    17    1
   17    16    18    1
   18    16    19    1
   19    19    20    1
   20    19    21    1
   21    19    22    1
@<TRIPOS>SUBSTRUCTURE
       1 MOL1            1 RESIDUE      1      MOL     
@<SCITEGIC>MOL_PROPERTY
VM2 Rank
SciTegic.value.IntegerValue
68

@<SCITEGIC>MOL_PROPERTY
Conf_Id
SciTegic.value.IntegerValue
669

@<SCITEGIC>MOL_PROPERTY
Probability
SciTegic.value.DoubleValue
0.00

@<SCITEGIC>MOL_PROPERTY
Sum Probability
SciTegic.value.DoubleValue
99.99

@<SCITEGIC>MOL_PROPERTY
Delta G
SciTegic.value.DoubleValue
5.701

@<SCITEGIC>MOL_PROPERTY
G
SciTegic.value.DoubleValue
-11.297

@<SCITEGIC>MOL_PROPERTY
E
SciTegic.value.DoubleValue
-31.554

@<SCITEGIC>MOL_PROPERTY
-TS
SciTegic.value.DoubleValue
20.257

@<SCITEGIC>MOL_PROPERTY
U+W
SciTegic.value.DoubleValue
-49.439

@<SCITEGIC>MOL_PROPERTY
U
SciTegic.value.DoubleValue
12.673

@<SCITEGIC>MOL_PROPERTY
W
SciTegic.value.DoubleValue
-62.111

@<SCITEGIC>MOL_PROPERTY
W(PB)
SciTegic.value.DoubleValue
-64.337

@<SCITEGIC>MOL_PROPERTY
W(SA)
SciTegic.value.DoubleValue
2.226

@<SCITEGIC>MOL_PROPERTY
Valence
SciTegic.value.DoubleValue
10.318

@<SCITEGIC>MOL_PROPERTY
Coulomb
SciTegic.value.DoubleValue
1.786

@<SCITEGIC>MOL_PROPERTY
VdW
SciTegic.value.DoubleValue
0.569

@<SCITEGIC>MOL_PROPERTY
VdW6
SciTegic.value.DoubleValue
-9.120

@<SCITEGIC>MOL_PROPERTY
VdW12
SciTegic.value.DoubleValue
9.688

@<SCITEGIC>MOL_PROPERTY
Bond
SciTegic.value.DoubleValue
0.198

@<SCITEGIC>MOL_PROPERTY
Angle
SciTegic.value.DoubleValue
3.116

@<SCITEGIC>MOL_PROPERTY
Pdih
SciTegic.value.DoubleValue
7.003

@<SCITEGIC>MOL_PROPERTY
Idih
SciTegic.value.DoubleValue
0.001

@<SCITEGIC>MOL_PROPERTY
Tether
SciTegic.value.DoubleValue
0.000

@<TRIPOS>MOLECULE
guest-s21_vm2.mol2 : vm2 ligand conformer 69
          22          21           1
SMALL
USER_CHARGES
 
@<TRIPOS>ATOM
       1    C1      20.332225   19.096689   24.961476 C.2        1 MOL1         0.6145
       2    O1      20.808543   20.215080   24.960839 O.co2      1 MOL1        -0.6735
       3    O2      20.995076   18.085221   25.083813 O.co2      1 MOL1        -0.6735
       4    C2      18.811295   18.961010   24.921200 C.3        1 MOL1        -0.1985
       5    H1      18.431154   19.501273   25.795971 H          1 MOL1         0.0740
       6    H2      18.542723   17.907192   25.062788 H          1 MOL1         0.0740
       7    C3      18.128604   19.525806   23.643764 C.3        1 MOL1        -0.1882
       8    H3      17.079653   19.738819   23.889945 H          1 MOL1         0.0742
       9    H4      18.571306   20.494444   23.376401 H          1 MOL1         0.0742
      10    C4      18.134388   18.564481   22.426567 C.3        1 MOL1        -0.1880
      11    H5      17.513249   19.002219   21.633249 H          1 MOL1         0.0742
      12    H6      17.638855   17.626699   22.712330 H          1 MOL1         0.0742
      13    C5      19.525436   18.231347   21.833654 C.3        1 MOL1        -0.1880
      14    H7      20.139477   17.711932   22.580061 H          1 MOL1         0.0742
      15    H8      19.386023   17.518797   21.009423 H          1 MOL1         0.0742
      16    C6      20.281261   19.468825   21.299641 C.3        1 MOL1        -0.1856
      17    H9      20.502244   20.159840   22.124081 H          1 MOL1         0.0742
      18    H10     19.647115   20.012011   20.585758 H          1 MOL1         0.0742
      19    C7      21.603172   19.070541   20.613046 C.3        1 MOL1        -0.2871
      20    H11     21.418978   18.404760   19.759830 H          1 MOL1         0.0754
      21    H12     22.267316   18.551860   21.317028 H          1 MOL1         0.0754
      22    H13     22.129709   19.959633   20.242692 H          1 MOL1         0.0754
@<TRIPOS>BOND
    1     1     2    1
    2     1     3    2
    3     1     4    1
    4     4     5    1
    5     4     6    1
    6     4     7    1
    7     7     8    1
    8     7     9    1
    9     7    10    1
   10    10    11    1
   11    10    12    1
   12    10    13    1
   13    13    14    1
   14    13    15    1
   15    13    16    1
   16    16    17    1
   17    16    18    1
   18    16    19    1
   19    19    20    1
   20    19    21    1
   21    19    22    1
@<TRIPOS>SUBSTRUCTURE
       1 MOL1            1 RESIDUE      1      MOL     
@<SCITEGIC>MOL_PROPERTY
VM2 Rank
SciTegic.value.IntegerValue
69

@<SCITEGIC>MOL_PROPERTY
Conf_Id
SciTegic.value.IntegerValue
690

@<SCITEGIC>MOL_PROPERTY
Probability
SciTegic.value.DoubleValue
0.00

@<SCITEGIC>MOL_PROPERTY
Sum Probability
SciTegic.value.DoubleValue
99.99

@<SCITEGIC>MOL_PROPERTY
Delta G
SciTegic.value.DoubleValue
6.004

@<SCITEGIC>MOL_PROPERTY
G
SciTegic.value.DoubleValue
-10.994

@<SCITEGIC>MOL_PROPERTY
E
SciTegic.value.DoubleValue
-31.863

@<SCITEGIC>MOL_PROPERTY
-TS
SciTegic.value.DoubleValue
20.869

@<SCITEGIC>MOL_PROPERTY
U+W
SciTegic.value.DoubleValue
-49.748

@<SCITEGIC>MOL_PROPERTY
U
SciTegic.value.DoubleValue
12.940

@<SCITEGIC>MOL_PROPERTY
W
SciTegic.value.DoubleValue
-62.688

@<SCITEGIC>MOL_PROPERTY
W(PB)
SciTegic.value.DoubleValue
-64.863

@<SCITEGIC>MOL_PROPERTY
W(SA)
SciTegic.value.DoubleValue
2.175

@<SCITEGIC>MOL_PROPERTY
Valence
SciTegic.value.DoubleValue
9.684

@<SCITEGIC>MOL_PROPERTY
Coulomb
SciTegic.value.DoubleValue
3.147

@<SCITEGIC>MOL_PROPERTY
VdW
SciTegic.value.DoubleValue
0.109

@<SCITEGIC>MOL_PROPERTY
VdW6
SciTegic.value.DoubleValue
-10.251

@<SCITEGIC>MOL_PROPERTY
VdW12
SciTegic.value.DoubleValue
10.360

@<SCITEGIC>MOL_PROPERTY
Bond
SciTegic.value.DoubleValue
0.223

@<SCITEGIC>MOL_PROPERTY
Angle
SciTegic.value.DoubleValue
3.698

@<SCITEGIC>MOL_PROPERTY
Pdih
SciTegic.value.DoubleValue
5.745

@<SCITEGIC>MOL_PROPERTY
Idih
SciTegic.value.DoubleValue
0.018

@<SCITEGIC>MOL_PROPERTY
Tether
SciTegic.value.DoubleValue
0.000

@<TRIPOS>MOLECULE
guest-s21_vm2.mol2 : vm2 ligand conformer 70
          22          21           1
SMALL
USER_CHARGES
 
@<TRIPOS>ATOM
       1    C1      20.056768   19.466575   25.178223 C.2        1 MOL1         0.6145
       2    O1      20.484291   20.542307   24.808996 O.co2      1 MOL1        -0.6735
       3    O2      19.299988   19.334616   26.120383 O.co2      1 MOL1        -0.6735
       4    C2      20.535347   18.208608   24.456198 C.3        1 MOL1        -0.1985
       5    H1      21.052346   17.591309   25.199826 H          1 MOL1         0.0740
       6    H2      21.287587   18.485851   23.709958 H          1 MOL1         0.0740
       7    C3      19.400322   17.374497   23.803740 C.3        1 MOL1        -0.1882
       8    H3      19.821912   16.440467   23.408609 H          1 MOL1         0.0742
       9    H4      18.691319   17.078175   24.589196 H          1 MOL1         0.0742
      10    C4      18.616916   18.095865   22.677338 C.3        1 MOL1        -0.1880
      11    H5      18.174104   19.027799   23.055055 H          1 MOL1         0.0742
      12    H6      17.768114   17.453406   22.405985 H          1 MOL1         0.0742
      13    C5      19.439023   18.365519   21.391124 C.3        1 MOL1        -0.1880
      14    H7      20.251813   17.632254   21.299733 H          1 MOL1         0.0742
      15    H8      18.785343   18.205848   20.522692 H          1 MOL1         0.0742
      16    C6      20.002311   19.802362   21.308607 C.3        1 MOL1        -0.1856
      17    H9      20.660510   20.007411   22.161147 H          1 MOL1         0.0742
      18    H10     19.177615   20.525762   21.368675 H          1 MOL1         0.0742
      19    C7      20.785035   20.028652   19.999390 C.3        1 MOL1        -0.2871
      20    H11     21.636301   19.339130   19.927393 H          1 MOL1         0.0754
      21    H12     21.174671   21.053926   19.954619 H          1 MOL1         0.0754
      22    H13     20.141230   19.871969   19.124041 H          1 MOL1         0.0754
@<TRIPOS>BOND
    1     1     2    1
    2     1     3    2
    3     1     4    1
    4     4     5    1
    5     4     6    1
    6     4     7    1
    7     7     8    1
    8     7     9    1
    9     7    10    1
   10    10    11    1
   11    10    12    1
   12    10    13    1
   13    13    14    1
   14    13    15    1
   15    13    16    1
   16    16    17    1
   17    16    18    1
   18    16    19    1
   19    19    20    1
   20    19    21    1
   21    19    22    1
@<TRIPOS>SUBSTRUCTURE
       1 MOL1            1 RESIDUE      1      MOL     
@<SCITEGIC>MOL_PROPERTY
VM2 Rank
SciTegic.value.IntegerValue
70

@<SCITEGIC>MOL_PROPERTY
Conf_Id
SciTegic.value.IntegerValue
331

@<SCITEGIC>MOL_PROPERTY
Probability
SciTegic.value.DoubleValue
0.00

@<SCITEGIC>MOL_PROPERTY
Sum Probability
SciTegic.value.DoubleValue
99.99

@<SCITEGIC>MOL_PROPERTY
Delta G
SciTegic.value.DoubleValue
6.082

@<SCITEGIC>MOL_PROPERTY
G
SciTegic.value.DoubleValue
-10.916

@<SCITEGIC>MOL_PROPERTY
E
SciTegic.value.DoubleValue
-31.214

@<SCITEGIC>MOL_PROPERTY
-TS
SciTegic.value.DoubleValue
20.298

@<SCITEGIC>MOL_PROPERTY
U+W
SciTegic.value.DoubleValue
-49.099

@<SCITEGIC>MOL_PROPERTY
U
SciTegic.value.DoubleValue
13.118

@<SCITEGIC>MOL_PROPERTY
W
SciTegic.value.DoubleValue
-62.216

@<SCITEGIC>MOL_PROPERTY
W(PB)
SciTegic.value.DoubleValue
-64.413

@<SCITEGIC>MOL_PROPERTY
W(SA)
SciTegic.value.DoubleValue
2.196

@<SCITEGIC>MOL_PROPERTY
Valence
SciTegic.value.DoubleValue
10.731

@<SCITEGIC>MOL_PROPERTY
Coulomb
SciTegic.value.DoubleValue
2.056

@<SCITEGIC>MOL_PROPERTY
VdW
SciTegic.value.DoubleValue
0.330

@<SCITEGIC>MOL_PROPERTY
VdW6
SciTegic.value.DoubleValue
-9.569

@<SCITEGIC>MOL_PROPERTY
VdW12
SciTegic.value.DoubleValue
9.899

@<SCITEGIC>MOL_PROPERTY
Bond
SciTegic.value.DoubleValue
0.211

@<SCITEGIC>MOL_PROPERTY
Angle
SciTegic.value.DoubleValue
3.393

@<SCITEGIC>MOL_PROPERTY
Pdih
SciTegic.value.DoubleValue
7.123

@<SCITEGIC>MOL_PROPERTY
Idih
SciTegic.value.DoubleValue
0.004

@<SCITEGIC>MOL_PROPERTY
Tether
SciTegic.value.DoubleValue
0.000

@<TRIPOS>MOLECULE
guest-s21_vm2.mol2 : vm2 ligand conformer 71
          22          21           1
SMALL
USER_CHARGES
 
@<TRIPOS>ATOM
       1    C1      20.330333   19.131367   24.960159 C.2        1 MOL1         0.6145
       2    O1      20.879710   20.214787   25.002478 O.co2      1 MOL1        -0.6735
       3    O2      20.924502   18.074088   25.042622 O.co2      1 MOL1        -0.6735
       4    C2      18.803815   19.098964   24.915959 C.3        1 MOL1        -0.1985
       5    H1      18.422696   20.125423   24.977927 H          1 MOL1         0.0740
       6    H2      18.480502   18.589148   25.830930 H          1 MOL1         0.0740
       7    C3      18.191177   18.368198   23.688136 C.3        1 MOL1        -0.1882
       8    H3      18.736642   17.435264   23.493641 H          1 MOL1         0.0742
       9    H4      17.170224   18.062954   23.954144 H          1 MOL1         0.0742
      10    C4      18.098536   19.228901   22.401138 C.3        1 MOL1        -0.1880
      11    H5      17.503871   20.127013   22.616585 H          1 MOL1         0.0742
      12    H6      17.531323   18.667676   21.646105 H          1 MOL1         0.0742
      13    C5      19.448110   19.663474   21.778774 C.3        1 MOL1        -0.1880
      14    H7      19.236260   20.291932   20.903170 H          1 MOL1         0.0742
      15    H8      19.999677   20.301326   22.480829 H          1 MOL1         0.0742
      16    C6      20.334802   18.477331   21.337600 C.3        1 MOL1        -0.1856
      17    H9      19.765667   17.816217   20.669891 H          1 MOL1         0.0742
      18    H10     20.625443   17.879025   22.211438 H          1 MOL1         0.0742
      19    C7      21.609016   18.961890   20.617133 C.3        1 MOL1        -0.2871
      20    H11     21.357792   19.536816   19.716290 H          1 MOL1         0.0754
      21    H12     22.210575   19.601297   21.276672 H          1 MOL1         0.0754
      22    H13     22.229687   18.108922   20.313653 H          1 MOL1         0.0754
@<TRIPOS>BOND
    1     1     2    1
    2     1     3    2
    3     1     4    1
    4     4     5    1
    5     4     6    1
    6     4     7    1
    7     7     8    1
    8     7     9    1
    9     7    10    1
   10    10    11    1
   11    10    12    1
   12    10    13    1
   13    13    14    1
   14    13    15    1
   15    13    16    1
   16    16    17    1
   17    16    18    1
   18    16    19    1
   19    19    20    1
   20    19    21    1
   21    19    22    1
@<TRIPOS>SUBSTRUCTURE
       1 MOL1            1 RESIDUE      1      MOL     
@<SCITEGIC>MOL_PROPERTY
VM2 Rank
SciTegic.value.IntegerValue
71

@<SCITEGIC>MOL_PROPERTY
Conf_Id
SciTegic.value.IntegerValue
170

@<SCITEGIC>MOL_PROPERTY
Probability
SciTegic.value.DoubleValue
0.00

@<SCITEGIC>MOL_PROPERTY
Sum Probability
SciTegic.value.DoubleValue
100.00

@<SCITEGIC>MOL_PROPERTY
Delta G
SciTegic.value.DoubleValue
6.107

@<SCITEGIC>MOL_PROPERTY
G
SciTegic.value.DoubleValue
-10.891

@<SCITEGIC>MOL_PROPERTY
E
SciTegic.value.DoubleValue
-31.760

@<SCITEGIC>MOL_PROPERTY
-TS
SciTegic.value.DoubleValue
20.869

@<SCITEGIC>MOL_PROPERTY
U+W
SciTegic.value.DoubleValue
-49.645

@<SCITEGIC>MOL_PROPERTY
U
SciTegic.value.DoubleValue
12.940

@<SCITEGIC>MOL_PROPERTY
W
SciTegic.value.DoubleValue
-62.585

@<SCITEGIC>MOL_PROPERTY
W(PB)
SciTegic.value.DoubleValue
-64.781

@<SCITEGIC>MOL_PROPERTY
W(SA)
SciTegic.value.DoubleValue
2.196

@<SCITEGIC>MOL_PROPERTY
Valence
SciTegic.value.DoubleValue
9.684

@<SCITEGIC>MOL_PROPERTY
Coulomb
SciTegic.value.DoubleValue
3.147

@<SCITEGIC>MOL_PROPERTY
VdW
SciTegic.value.DoubleValue
0.109

@<SCITEGIC>MOL_PROPERTY
VdW6
SciTegic.value.DoubleValue
-10.251

@<SCITEGIC>MOL_PROPERTY
VdW12
SciTegic.value.DoubleValue
10.360

@<SCITEGIC>MOL_PROPERTY
Bond
SciTegic.value.DoubleValue
0.223

@<SCITEGIC>MOL_PROPERTY
Angle
SciTegic.value.DoubleValue
3.698

@<SCITEGIC>MOL_PROPERTY
Pdih
SciTegic.value.DoubleValue
5.745

@<SCITEGIC>MOL_PROPERTY
Idih
SciTegic.value.DoubleValue
0.018

@<SCITEGIC>MOL_PROPERTY
Tether
SciTegic.value.DoubleValue
0.000

@<TRIPOS>MOLECULE
guest-s21_vm2.mol2 : vm2 ligand conformer 72
          22          21           1
SMALL
USER_CHARGES
 
@<TRIPOS>ATOM
       1    C1      20.095433   18.751646   25.205565 C.2        1 MOL1         0.6145
       2    O1      19.324784   18.872777   26.137885 O.co2      1 MOL1        -0.6735
       3    O2      20.638068   17.703264   24.917907 O.co2      1 MOL1        -0.6735
       4    C2      20.438692   19.995090   24.387723 C.3        1 MOL1        -0.1985
       5    H1      21.219561   19.744405   23.661770 H          1 MOL1         0.0740
       6    H2      20.883026   20.719437   25.079979 H          1 MOL1         0.0740
       7    C3      19.223153   20.649812   23.678120 C.3        1 MOL1        -0.1882
       8    H3      18.483108   20.927180   24.441556 H          1 MOL1         0.0742
       9    H4      19.543331   21.590888   23.211062 H          1 MOL1         0.0742
      10    C4      18.526665   19.764343   22.613352 C.3        1 MOL1        -0.1880
      11    H5      17.614750   20.289044   22.297204 H          1 MOL1         0.0742
      12    H6      18.185216   18.821741   23.062982 H          1 MOL1         0.0742
      13    C5      19.378342   19.487305   21.348119 C.3        1 MOL1        -0.1880
      14    H7      18.714849   19.508774   20.472742 H          1 MOL1         0.0742
      15    H8      20.107773   20.294723   21.197579 H          1 MOL1         0.0742
      16    C6      20.093478   18.117426   21.373335 C.3        1 MOL1        -0.1856
      17    H9      19.351276   17.316113   21.491971 H          1 MOL1         0.0742
      18    H10     20.766436   18.050263   22.236300 H          1 MOL1         0.0742
      19    C7      20.901385   17.877337   20.081995 C.3        1 MOL1        -0.2871
      20    H11     20.248037   17.896341   19.199926 H          1 MOL1         0.0754
      21    H12     21.399401   16.899607   20.114126 H          1 MOL1         0.0754
      22    H13     21.673692   18.647025   19.953926 H          1 MOL1         0.0754
@<TRIPOS>BOND
    1     1     2    1
    2     1     3    2
    3     1     4    1
    4     4     5    1
    5     4     6    1
    6     4     7    1
    7     7     8    1
    8     7     9    1
    9     7    10    1
   10    10    11    1
   11    10    12    1
   12    10    13    1
   13    13    14    1
   14    13    15    1
   15    13    16    1
   16    16    17    1
   17    16    18    1
   18    16    19    1
   19    19    20    1
   20    19    21    1
   21    19    22    1
@<TRIPOS>SUBSTRUCTURE
       1 MOL1            1 RESIDUE      1      MOL     
@<SCITEGIC>MOL_PROPERTY
VM2 Rank
SciTegic.value.IntegerValue
72

@<SCITEGIC>MOL_PROPERTY
Conf_Id
SciTegic.value.IntegerValue
52

@<SCITEGIC>MOL_PROPERTY
Probability
SciTegic.value.DoubleValue
0.00

@<SCITEGIC>MOL_PROPERTY
Sum Probability
SciTegic.value.DoubleValue
100.00

@<SCITEGIC>MOL_PROPERTY
Delta G
SciTegic.value.DoubleValue
6.130

@<SCITEGIC>MOL_PROPERTY
G
SciTegic.value.DoubleValue
-10.868

@<SCITEGIC>MOL_PROPERTY
E
SciTegic.value.DoubleValue
-31.165

@<SCITEGIC>MOL_PROPERTY
-TS
SciTegic.value.DoubleValue
20.297

@<SCITEGIC>MOL_PROPERTY
U+W
SciTegic.value.DoubleValue
-49.050

@<SCITEGIC>MOL_PROPERTY
U
SciTegic.value.DoubleValue
13.118

@<SCITEGIC>MOL_PROPERTY
W
SciTegic.value.DoubleValue
-62.168

@<SCITEGIC>MOL_PROPERTY
W(PB)
SciTegic.value.DoubleValue
-64.348

@<SCITEGIC>MOL_PROPERTY
W(SA)
SciTegic.value.DoubleValue
2.180

@<SCITEGIC>MOL_PROPERTY
Valence
SciTegic.value.DoubleValue
10.731

@<SCITEGIC>MOL_PROPERTY
Coulomb
SciTegic.value.DoubleValue
2.057

@<SCITEGIC>MOL_PROPERTY
VdW
SciTegic.value.DoubleValue
0.330

@<SCITEGIC>MOL_PROPERTY
VdW6
SciTegic.value.DoubleValue
-9.569

@<SCITEGIC>MOL_PROPERTY
VdW12
SciTegic.value.DoubleValue
9.899

@<SCITEGIC>MOL_PROPERTY
Bond
SciTegic.value.DoubleValue
0.211

@<SCITEGIC>MOL_PROPERTY
Angle
SciTegic.value.DoubleValue
3.394

@<SCITEGIC>MOL_PROPERTY
Pdih
SciTegic.value.DoubleValue
7.123

@<SCITEGIC>MOL_PROPERTY
Idih
SciTegic.value.DoubleValue
0.004

@<SCITEGIC>MOL_PROPERTY
Tether
SciTegic.value.DoubleValue
0.000

@<TRIPOS>MOLECULE
guest-s21_vm2.mol2 : vm2 ligand conformer 73
          22          21           1
SMALL
USER_CHARGES
 
@<TRIPOS>ATOM
       1    C1      19.560349   19.393049   25.082701 C.2        1 MOL1         0.6145
       2    O1      19.860739   20.570421   25.048436 O.co2      1 MOL1        -0.6735
       3    O2      18.452740   18.992308   25.382778 O.co2      1 MOL1        -0.6735
       4    C2      20.660807   18.361139   24.844577 C.3        1 MOL1        -0.1985
       5    H1      20.266865   17.361915   25.065976 H          1 MOL1         0.0740
       6    H2      21.438938   18.562947   25.589837 H          1 MOL1         0.0740
       7    C3      21.300482   18.387842   23.427867 C.3        1 MOL1        -0.1882
       8    H3      21.497008   19.423855   23.121505 H          1 MOL1         0.0742
       9    H4      22.285754   17.907436   23.495589 H          1 MOL1         0.0742
      10    C4      20.491243   17.638166   22.337643 C.3        1 MOL1        -0.1880
      11    H5      20.333018   16.601308   22.663692 H          1 MOL1         0.0742
      12    H6      21.104755   17.569709   21.429802 H          1 MOL1         0.0742
      13    C5      19.117910   18.257171   21.970069 C.3        1 MOL1        -0.1880
      14    H7      18.651560   17.634191   21.195011 H          1 MOL1         0.0742
      15    H8      18.447389   18.198834   22.836613 H          1 MOL1         0.0742
      16    C6      19.166374   19.720546   21.465639 C.3        1 MOL1        -0.1856
      17    H9      19.548241   20.381090   22.255335 H          1 MOL1         0.0742
      18    H10     18.139550   20.054220   21.263179 H          1 MOL1         0.0742
      19    C7      20.009355   19.898358   20.184290 C.3        1 MOL1        -0.2871
      20    H11     21.068789   19.683141   20.371893 H          1 MOL1         0.0754
      21    H12     19.939175   20.930902   19.818734 H          1 MOL1         0.0754
      22    H13     19.657313   19.231545   19.386585 H          1 MOL1         0.0754
@<TRIPOS>BOND
    1     1     2    1
    2     1     3    2
    3     1     4    1
    4     4     5    1
    5     4     6    1
    6     4     7    1
    7     7     8    1
    8     7     9    1
    9     7    10    1
   10    10    11    1
   11    10    12    1
   12    10    13    1
   13    13    14    1
   14    13    15    1
   15    13    16    1
   16    16    17    1
   17    16    18    1
   18    16    19    1
   19    19    20    1
   20    19    21    1
   21    19    22    1
@<TRIPOS>SUBSTRUCTURE
       1 MOL1            1 RESIDUE      1      MOL     
@<SCITEGIC>MOL_PROPERTY
VM2 Rank
SciTegic.value.IntegerValue
73

@<SCITEGIC>MOL_PROPERTY
Conf_Id
SciTegic.value.IntegerValue
379

@<SCITEGIC>MOL_PROPERTY
Probability
SciTegic.value.DoubleValue
0.00

@<SCITEGIC>MOL_PROPERTY
Sum Probability
SciTegic.value.DoubleValue
100.00

@<SCITEGIC>MOL_PROPERTY
Delta G
SciTegic.value.DoubleValue
6.514

@<SCITEGIC>MOL_PROPERTY
G
SciTegic.value.DoubleValue
-10.485

@<SCITEGIC>MOL_PROPERTY
E
SciTegic.value.DoubleValue
-31.617

@<SCITEGIC>MOL_PROPERTY
-TS
SciTegic.value.DoubleValue
21.132

@<SCITEGIC>MOL_PROPERTY
U+W
SciTegic.value.DoubleValue
-49.502

@<SCITEGIC>MOL_PROPERTY
U
SciTegic.value.DoubleValue
12.977

@<SCITEGIC>MOL_PROPERTY
W
SciTegic.value.DoubleValue
-62.478

@<SCITEGIC>MOL_PROPERTY
W(PB)
SciTegic.value.DoubleValue
-64.635

@<SCITEGIC>MOL_PROPERTY
W(SA)
SciTegic.value.DoubleValue
2.156

@<SCITEGIC>MOL_PROPERTY
Valence
SciTegic.value.DoubleValue
10.104

@<SCITEGIC>MOL_PROPERTY
Coulomb
SciTegic.value.DoubleValue
2.675

@<SCITEGIC>MOL_PROPERTY
VdW
SciTegic.value.DoubleValue
0.198

@<SCITEGIC>MOL_PROPERTY
VdW6
SciTegic.value.DoubleValue
-10.984

@<SCITEGIC>MOL_PROPERTY
VdW12
SciTegic.value.DoubleValue
11.182

@<SCITEGIC>MOL_PROPERTY
Bond
SciTegic.value.DoubleValue
0.262

@<SCITEGIC>MOL_PROPERTY
Angle
SciTegic.value.DoubleValue
4.020

@<SCITEGIC>MOL_PROPERTY
Pdih
SciTegic.value.DoubleValue
5.805

@<SCITEGIC>MOL_PROPERTY
Idih
SciTegic.value.DoubleValue
0.017

@<SCITEGIC>MOL_PROPERTY
Tether
SciTegic.value.DoubleValue
0.000

@<TRIPOS>MOLECULE
guest-s21_vm2.mol2 : vm2 ligand conformer 74
          22          21           1
SMALL
USER_CHARGES
 
@<TRIPOS>ATOM
       1    C1      20.197745   19.128538   25.106240 C.2        1 MOL1         0.6145
       2    O1      20.820990   20.171933   25.083701 O.co2      1 MOL1        -0.6735
       3    O2      20.675663   18.069861   25.464339 O.co2      1 MOL1        -0.6735
       4    C2      18.707923   19.171449   24.772865 C.3        1 MOL1        -0.1985
       5    H1      18.255905   19.883565   25.473006 H          1 MOL1         0.0740
       6    H2      18.264892   18.192560   24.992311 H          1 MOL1         0.0740
       7    C3      18.365079   19.606053   23.320094 C.3        1 MOL1        -0.1882
       8    H3      17.327273   19.965292   23.313520 H          1 MOL1         0.0742
       9    H4      18.978628   20.469012   23.029121 H          1 MOL1         0.0742
      10    C4      18.472931   18.475838   22.263472 C.3        1 MOL1        -0.1880
      11    H5      18.049362   18.837894   21.317553 H          1 MOL1         0.0742
      12    H6      17.830563   17.639893   22.571662 H          1 MOL1         0.0742
      13    C5      19.900787   17.932251   21.998789 C.3        1 MOL1        -0.1880
      14    H7      20.277433   17.439304   22.903800 H          1 MOL1         0.0742
      15    H8      19.837059   17.142169   21.238519 H          1 MOL1         0.0742
      16    C6      20.933258   18.987231   21.530508 C.3        1 MOL1        -0.1856
      17    H9      21.904964   18.491427   21.401415 H          1 MOL1         0.0742
      18    H10     21.082150   19.744446   22.311671 H          1 MOL1         0.0742
      19    C7      20.545624   19.675847   20.203992 C.3        1 MOL1        -0.2871
      20    H11     20.371746   18.935098   19.412812 H          1 MOL1         0.0754
      21    H12     21.348252   20.346121   19.870485 H          1 MOL1         0.0754
      22    H13     19.635699   20.278053   20.319315 H          1 MOL1         0.0754
@<TRIPOS>BOND
    1     1     2    1
    2     1     3    2
    3     1     4    1
    4     4     5    1
    5     4     6    1
    6     4     7    1
    7     7     8    1
    8     7     9    1
    9     7    10    1
   10    10    11    1
   11    10    12    1
   12    10    13    1
   13    13    14    1
   14    13    15    1
   15    13    16    1
   16    16    17    1
   17    16    18    1
   18    16    19    1
   19    19    20    1
   20    19    21    1
   21    19    22    1
@<TRIPOS>SUBSTRUCTURE
       1 MOL1            1 RESIDUE      1      MOL     
@<SCITEGIC>MOL_PROPERTY
VM2 Rank
SciTegic.value.IntegerValue
74

@<SCITEGIC>MOL_PROPERTY
Conf_Id
SciTegic.value.IntegerValue
377

@<SCITEGIC>MOL_PROPERTY
Probability
SciTegic.value.DoubleValue
0.00

@<SCITEGIC>MOL_PROPERTY
Sum Probability
SciTegic.value.DoubleValue
100.00

@<SCITEGIC>MOL_PROPERTY
Delta G
SciTegic.value.DoubleValue
6.527

@<SCITEGIC>MOL_PROPERTY
G
SciTegic.value.DoubleValue
-10.471

@<SCITEGIC>MOL_PROPERTY
E
SciTegic.value.DoubleValue
-31.604

@<SCITEGIC>MOL_PROPERTY
-TS
SciTegic.value.DoubleValue
21.132

@<SCITEGIC>MOL_PROPERTY
U+W
SciTegic.value.DoubleValue
-49.489

@<SCITEGIC>MOL_PROPERTY
U
SciTegic.value.DoubleValue
12.978

@<SCITEGIC>MOL_PROPERTY
W
SciTegic.value.DoubleValue
-62.466

@<SCITEGIC>MOL_PROPERTY
W(PB)
SciTegic.value.DoubleValue
-64.624

@<SCITEGIC>MOL_PROPERTY
W(SA)
SciTegic.value.DoubleValue
2.157

@<SCITEGIC>MOL_PROPERTY
Valence
SciTegic.value.DoubleValue
10.104

@<SCITEGIC>MOL_PROPERTY
Coulomb
SciTegic.value.DoubleValue
2.676

@<SCITEGIC>MOL_PROPERTY
VdW
SciTegic.value.DoubleValue
0.197

@<SCITEGIC>MOL_PROPERTY
VdW6
SciTegic.value.DoubleValue
-10.984

@<SCITEGIC>MOL_PROPERTY
VdW12
SciTegic.value.DoubleValue
11.181

@<SCITEGIC>MOL_PROPERTY
Bond
SciTegic.value.DoubleValue
0.262

@<SCITEGIC>MOL_PROPERTY
Angle
SciTegic.value.DoubleValue
4.020

@<SCITEGIC>MOL_PROPERTY
Pdih
SciTegic.value.DoubleValue
5.805

@<SCITEGIC>MOL_PROPERTY
Idih
SciTegic.value.DoubleValue
0.017

@<SCITEGIC>MOL_PROPERTY
Tether
SciTegic.value.DoubleValue
0.000

@<TRIPOS>MOLECULE
guest-s21_vm2.mol2 : vm2 ligand conformer 75
          22          21           1
SMALL
USER_CHARGES
 
@<TRIPOS>ATOM
       1    C1      19.944683   19.200007   25.585705 C.2        1 MOL1         0.6145
       2    O1      19.621306   20.366872   25.689347 O.co2      1 MOL1        -0.6735
       3    O2      19.619932   18.339971   26.380771 O.co2      1 MOL1        -0.6735
       4    C2      20.827345   18.794614   24.408482 C.3        1 MOL1        -0.1985
       5    H1      21.654306   18.199850   24.813613 H          1 MOL1         0.0740
       6    H2      21.275910   19.698005   23.981220 H          1 MOL1         0.0740
       7    C3      20.090977   17.969917   23.316416 C.3        1 MOL1        -0.1882
       8    H3      20.822837   17.617877   22.580157 H          1 MOL1         0.0742
       9    H4      19.673501   17.068366   23.785499 H          1 MOL1         0.0742
      10    C4      18.944620   18.734772   22.604103 C.3        1 MOL1        -0.1880
      11    H5      18.271110   19.145923   23.368352 H          1 MOL1         0.0742
      12    H6      18.335715   18.024944   22.028045 H          1 MOL1         0.0742
      13    C5      19.407514   19.887454   21.673634 C.3        1 MOL1        -0.1880
      14    H7      18.663774   20.693338   21.737585 H          1 MOL1         0.0742
      15    H8      20.347881   20.325749   22.029218 H          1 MOL1         0.0742
      16    C6      19.542373   19.496428   20.181211 C.3        1 MOL1        -0.1856
      17    H9      19.785422   20.399793   19.605022 H          1 MOL1         0.0742
      18    H10     18.573201   19.142681   19.803380 H          1 MOL1         0.0742
      19    C7      20.621249   18.428967   19.904330 C.3        1 MOL1        -0.2871
      20    H11     20.335630   17.458674   20.329030 H          1 MOL1         0.0754
      21    H12     21.588056   18.726218   20.330884 H          1 MOL1         0.0754
      22    H13     20.755554   18.290181   18.823842 H          1 MOL1         0.0754
@<TRIPOS>BOND
    1     1     2    1
    2     1     3    2
    3     1     4    1
    4     4     5    1
    5     4     6    1
    6     4     7    1
    7     7     8    1
    8     7     9    1
    9     7    10    1
   10    10    11    1
   11    10    12    1
   12    10    13    1
   13    13    14    1
   14    13    15    1
   15    13    16    1
   16    16    17    1
   17    16    18    1
   18    16    19    1
   19    19    20    1
   20    19    21    1
   21    19    22    1
@<TRIPOS>SUBSTRUCTURE
       1 MOL1            1 RESIDUE      1      MOL     
@<SCITEGIC>MOL_PROPERTY
VM2 Rank
SciTegic.value.IntegerValue
75

@<SCITEGIC>MOL_PROPERTY
Conf_Id
SciTegic.value.IntegerValue
163

@<SCITEGIC>MOL_PROPERTY
Probability
SciTegic.value.DoubleValue
0.00

@<SCITEGIC>MOL_PROPERTY
Sum Probability
SciTegic.value.DoubleValue
100.00

@<SCITEGIC>MOL_PROPERTY
Delta G
SciTegic.value.DoubleValue
6.596

@<SCITEGIC>MOL_PROPERTY
G
SciTegic.value.DoubleValue
-10.403

@<SCITEGIC>MOL_PROPERTY
E
SciTegic.value.DoubleValue
-30.610

@<SCITEGIC>MOL_PROPERTY
-TS
SciTegic.value.DoubleValue
20.208

@<SCITEGIC>MOL_PROPERTY
U+W
SciTegic.value.DoubleValue
-48.495

@<SCITEGIC>MOL_PROPERTY
U
SciTegic.value.DoubleValue
12.987

@<SCITEGIC>MOL_PROPERTY
W
SciTegic.value.DoubleValue
-61.482

@<SCITEGIC>MOL_PROPERTY
W(PB)
SciTegic.value.DoubleValue
-63.695

@<SCITEGIC>MOL_PROPERTY
W(SA)
SciTegic.value.DoubleValue
2.213

@<SCITEGIC>MOL_PROPERTY
Valence
SciTegic.value.DoubleValue
11.114

@<SCITEGIC>MOL_PROPERTY
Coulomb
SciTegic.value.DoubleValue
1.103

@<SCITEGIC>MOL_PROPERTY
VdW
SciTegic.value.DoubleValue
0.770

@<SCITEGIC>MOL_PROPERTY
VdW6
SciTegic.value.DoubleValue
-9.558

@<SCITEGIC>MOL_PROPERTY
VdW12
SciTegic.value.DoubleValue
10.328

@<SCITEGIC>MOL_PROPERTY
Bond
SciTegic.value.DoubleValue
0.268

@<SCITEGIC>MOL_PROPERTY
Angle
SciTegic.value.DoubleValue
3.531

@<SCITEGIC>MOL_PROPERTY
Pdih
SciTegic.value.DoubleValue
7.313

@<SCITEGIC>MOL_PROPERTY
Idih
SciTegic.value.DoubleValue
0.001

@<SCITEGIC>MOL_PROPERTY
Tether
SciTegic.value.DoubleValue
0.000

@<TRIPOS>MOLECULE
guest-s21_vm2.mol2 : vm2 ligand conformer 76
          22          21           1
SMALL
USER_CHARGES
 
@<TRIPOS>ATOM
       1    C1      20.143040   19.218194   25.358962 C.2        1 MOL1         0.6145
       2    O1      20.263770   20.426941   25.322356 O.co2      1 MOL1        -0.6735
       3    O2      19.699245   18.616484   26.317314 O.co2      1 MOL1        -0.6735
       4    C2      20.599724   18.407056   24.149676 C.3        1 MOL1        -0.1985
       5    H1      21.245189   17.602655   24.520869 H          1 MOL1         0.0740
       6    H2      21.228858   19.045326   23.519521 H          1 MOL1         0.0740
       7    C3      19.436481   17.793114   23.323104 C.3        1 MOL1        -0.1882
       8    H3      19.841963   17.145117   22.536583 H          1 MOL1         0.0742
       9    H4      18.851978   17.134183   23.979797 H          1 MOL1         0.0742
      10    C4      18.480445   18.837489   22.695266 C.3        1 MOL1        -0.1880
      11    H5      18.002635   19.407792   23.503627 H          1 MOL1         0.0742
      12    H6      17.665887   18.306709   22.184139 H          1 MOL1         0.0742
      13    C5      19.124627   19.840177   21.702017 C.3        1 MOL1        -0.1880
      14    H7      18.342517   20.555837   21.414351 H          1 MOL1         0.0742
      15    H8      19.896489   20.440160   22.202088 H          1 MOL1         0.0742
      16    C6      19.682698   19.205228   20.403175 C.3        1 MOL1        -0.1856
      17    H9      19.532034   19.914897   19.578004 H          1 MOL1         0.0742
      18    H10     19.107802   18.306520   20.140855 H          1 MOL1         0.0742
      19    C7      21.189972   18.874318   20.472131 C.3        1 MOL1        -0.2871
      20    H11     21.407166   18.114337   21.230296 H          1 MOL1         0.0754
      21    H12     21.776961   19.770869   20.710015 H          1 MOL1         0.0754
      22    H13     21.541682   18.489331   19.506309 H          1 MOL1         0.0754
@<TRIPOS>BOND
    1     1     2    1
    2     1     3    2
    3     1     4    1
    4     4     5    1
    5     4     6    1
    6     4     7    1
    7     7     8    1
    8     7     9    1
    9     7    10    1
   10    10    11    1
   11    10    12    1
   12    10    13    1
   13    13    14    1
   14    13    15    1
   15    13    16    1
   16    16    17    1
   17    16    18    1
   18    16    19    1
   19    19    20    1
   20    19    21    1
   21    19    22    1
@<TRIPOS>SUBSTRUCTURE
       1 MOL1            1 RESIDUE      1      MOL     
@<SCITEGIC>MOL_PROPERTY
VM2 Rank
SciTegic.value.IntegerValue
76

@<SCITEGIC>MOL_PROPERTY
Conf_Id
SciTegic.value.IntegerValue
302

@<SCITEGIC>MOL_PROPERTY
Probability
SciTegic.value.DoubleValue
0.00

@<SCITEGIC>MOL_PROPERTY
Sum Probability
SciTegic.value.DoubleValue
100.00

@<SCITEGIC>MOL_PROPERTY
Delta G
SciTegic.value.DoubleValue
6.680

@<SCITEGIC>MOL_PROPERTY
G
SciTegic.value.DoubleValue
-10.318

@<SCITEGIC>MOL_PROPERTY
E
SciTegic.value.DoubleValue
-31.010

@<SCITEGIC>MOL_PROPERTY
-TS
SciTegic.value.DoubleValue
20.692

@<SCITEGIC>MOL_PROPERTY
U+W
SciTegic.value.DoubleValue
-48.895

@<SCITEGIC>MOL_PROPERTY
U
SciTegic.value.DoubleValue
13.163

@<SCITEGIC>MOL_PROPERTY
W
SciTegic.value.DoubleValue
-62.058

@<SCITEGIC>MOL_PROPERTY
W(PB)
SciTegic.value.DoubleValue
-64.213

@<SCITEGIC>MOL_PROPERTY
W(SA)
SciTegic.value.DoubleValue
2.155

@<SCITEGIC>MOL_PROPERTY
Valence
SciTegic.value.DoubleValue
10.932

@<SCITEGIC>MOL_PROPERTY
Coulomb
SciTegic.value.DoubleValue
1.922

@<SCITEGIC>MOL_PROPERTY
VdW
SciTegic.value.DoubleValue
0.309

@<SCITEGIC>MOL_PROPERTY
VdW6
SciTegic.value.DoubleValue
-10.319

@<SCITEGIC>MOL_PROPERTY
VdW12
SciTegic.value.DoubleValue
10.628

@<SCITEGIC>MOL_PROPERTY
Bond
SciTegic.value.DoubleValue
0.254

@<SCITEGIC>MOL_PROPERTY
Angle
SciTegic.value.DoubleValue
3.841

@<SCITEGIC>MOL_PROPERTY
Pdih
SciTegic.value.DoubleValue
6.835

@<SCITEGIC>MOL_PROPERTY
Idih
SciTegic.value.DoubleValue
0.001

@<SCITEGIC>MOL_PROPERTY
Tether
SciTegic.value.DoubleValue
0.000

@<TRIPOS>MOLECULE
guest-s21_vm2.mol2 : vm2 ligand conformer 77
          22          21           1
SMALL
USER_CHARGES
 
@<TRIPOS>ATOM
       1    C1      19.744177   19.383933   25.355575 C.2        1 MOL1         0.6145
       2    O1      20.516463   20.321805   25.324645 O.co2      1 MOL1        -0.6735
       3    O2      19.616427   18.650789   26.316629 O.co2      1 MOL1        -0.6735
       4    C2      18.865420   19.127841   24.134477 C.3        1 MOL1        -0.1985
       5    H1      18.883466   20.020105   23.498997 H          1 MOL1         0.0740
       6    H2      17.834479   19.020062   24.490866 H          1 MOL1         0.0740
       7    C3      19.263288   17.865225   23.321593 C.3        1 MOL1        -0.1882
       8    H3      19.198816   16.990194   23.982836 H          1 MOL1         0.0742
       9    H4      18.529836   17.690507   22.525064 H          1 MOL1         0.0742
      10    C4      20.687178   17.920694   22.714659 C.3        1 MOL1        -0.1880
      11    H5      20.893350   16.965753   22.212600 H          1 MOL1         0.0742
      12    H6      21.416266   17.989642   23.533607 H          1 MOL1         0.0742
      13    C5      20.958092   19.078345   21.717992 C.3        1 MOL1        -0.1880
      14    H7      20.831292   20.051792   22.210077 H          1 MOL1         0.0742
      15    H8      22.021237   19.027256   21.446461 H          1 MOL1         0.0742
      16    C6      20.133817   19.017570   20.407086 C.3        1 MOL1        -0.1856
      17    H9      19.906278   17.974437   20.148057 H          1 MOL1         0.0742
      18    H10     20.755330   19.406124   19.588560 H          1 MOL1         0.0742
      19    C7      18.835138   19.852796   20.451343 C.3        1 MOL1        -0.2871
      20    H11     18.132068   19.475488   21.201604 H          1 MOL1         0.0754
      21    H12     18.328572   19.824218   19.478048 H          1 MOL1         0.0754
      22    H13     19.052980   20.902827   20.685709 H          1 MOL1         0.0754
@<TRIPOS>BOND
    1     1     2    1
    2     1     3    2
    3     1     4    1
    4     4     5    1
    5     4     6    1
    6     4     7    1
    7     7     8    1
    8     7     9    1
    9     7    10    1
   10    10    11    1
   11    10    12    1
   12    10    13    1
   13    13    14    1
   14    13    15    1
   15    13    16    1
   16    16    17    1
   17    16    18    1
   18    16    19    1
   19    19    20    1
   20    19    21    1
   21    19    22    1
@<TRIPOS>SUBSTRUCTURE
       1 MOL1            1 RESIDUE      1      MOL     
@<SCITEGIC>MOL_PROPERTY
VM2 Rank
SciTegic.value.IntegerValue
77

@<SCITEGIC>MOL_PROPERTY
Conf_Id
SciTegic.value.IntegerValue
507

@<SCITEGIC>MOL_PROPERTY
Probability
SciTegic.value.DoubleValue
0.00

@<SCITEGIC>MOL_PROPERTY
Sum Probability
SciTegic.value.DoubleValue
100.00

@<SCITEGIC>MOL_PROPERTY
Delta G
SciTegic.value.DoubleValue
6.719

@<SCITEGIC>MOL_PROPERTY
G
SciTegic.value.DoubleValue
-10.279

@<SCITEGIC>MOL_PROPERTY
E
SciTegic.value.DoubleValue
-30.971

@<SCITEGIC>MOL_PROPERTY
-TS
SciTegic.value.DoubleValue
20.692

@<SCITEGIC>MOL_PROPERTY
U+W
SciTegic.value.DoubleValue
-48.856

@<SCITEGIC>MOL_PROPERTY
U
SciTegic.value.DoubleValue
13.163

@<SCITEGIC>MOL_PROPERTY
W
SciTegic.value.DoubleValue
-62.019

@<SCITEGIC>MOL_PROPERTY
W(PB)
SciTegic.value.DoubleValue
-64.194

@<SCITEGIC>MOL_PROPERTY
W(SA)
SciTegic.value.DoubleValue
2.176

@<SCITEGIC>MOL_PROPERTY
Valence
SciTegic.value.DoubleValue
10.932

@<SCITEGIC>MOL_PROPERTY
Coulomb
SciTegic.value.DoubleValue
1.922

@<SCITEGIC>MOL_PROPERTY
VdW
SciTegic.value.DoubleValue
0.309

@<SCITEGIC>MOL_PROPERTY
VdW6
SciTegic.value.DoubleValue
-10.319

@<SCITEGIC>MOL_PROPERTY
VdW12
SciTegic.value.DoubleValue
10.628

@<SCITEGIC>MOL_PROPERTY
Bond
SciTegic.value.DoubleValue
0.254

@<SCITEGIC>MOL_PROPERTY
Angle
SciTegic.value.DoubleValue
3.840

@<SCITEGIC>MOL_PROPERTY
Pdih
SciTegic.value.DoubleValue
6.836

@<SCITEGIC>MOL_PROPERTY
Idih
SciTegic.value.DoubleValue
0.001

@<SCITEGIC>MOL_PROPERTY
Tether
SciTegic.value.DoubleValue
0.000

@<TRIPOS>MOLECULE
guest-s21_vm2.mol2 : vm2 ligand conformer 78
          22          21           1
SMALL
USER_CHARGES
 
@<TRIPOS>ATOM
       1    C1      20.310606   19.153536   25.444114 C.2        1 MOL1         0.6145
       2    O1      21.182522   19.991669   25.327087 O.co2      1 MOL1        -0.6735
       3    O2      19.760706   18.897055   26.497050 O.co2      1 MOL1        -0.6735
       4    C2      19.867787   18.394913   24.198267 C.3        1 MOL1        -0.1985
       5    H1      19.565215   17.386661   24.505010 H          1 MOL1         0.0740
       6    H2      20.739743   18.280373   23.547220 H          1 MOL1         0.0740
       7    C3      18.701585   19.095157   23.452046 C.3        1 MOL1        -0.1882
       8    H3      17.847659   19.150563   24.141282 H          1 MOL1         0.0742
       9    H4      18.966120   20.134363   23.214778 H          1 MOL1         0.0742
      10    C4      18.254924   18.348608   22.170597 C.3        1 MOL1        -0.1880
      11    H5      17.166163   18.463294   22.079117 H          1 MOL1         0.0742
      12    H6      18.429481   17.269413   22.278580 H          1 MOL1         0.0742
      13    C5      18.882421   18.859439   20.846589 C.3        1 MOL1        -0.1880
      14    H7      18.380492   18.330700   20.024769 H          1 MOL1         0.0742
      15    H8      18.643635   19.921975   20.702260 H          1 MOL1         0.0742
      16    C6      20.405814   18.628592   20.693956 C.3        1 MOL1        -0.1856
      17    H9      20.622224   18.417379   19.637654 H          1 MOL1         0.0742
      18    H10     20.714243   17.733086   21.249649 H          1 MOL1         0.0742
      19    C7      21.253636   19.850032   21.114294 C.3        1 MOL1        -0.2871
      20    H11     21.004858   20.726562   20.502206 H          1 MOL1         0.0754
      21    H12     22.322543   19.639728   20.980851 H          1 MOL1         0.0754
      22    H13     21.094575   20.117198   22.165306 H          1 MOL1         0.0754
@<TRIPOS>BOND
    1     1     2    1
    2     1     3    2
    3     1     4    1
    4     4     5    1
    5     4     6    1
    6     4     7    1
    7     7     8    1
    8     7     9    1
    9     7    10    1
   10    10    11    1
   11    10    12    1
   12    10    13    1
   13    13    14    1
   14    13    15    1
   15    13    16    1
   16    16    17    1
   17    16    18    1
   18    16    19    1
   19    19    20    1
   20    19    21    1
   21    19    22    1
@<TRIPOS>SUBSTRUCTURE
       1 MOL1            1 RESIDUE      1      MOL     
@<SCITEGIC>MOL_PROPERTY
VM2 Rank
SciTegic.value.IntegerValue
78

@<SCITEGIC>MOL_PROPERTY
Conf_Id
SciTegic.value.IntegerValue
121

@<SCITEGIC>MOL_PROPERTY
Probability
SciTegic.value.DoubleValue
0.00

@<SCITEGIC>MOL_PROPERTY
Sum Probability
SciTegic.value.DoubleValue
100.00

@<SCITEGIC>MOL_PROPERTY
Delta G
SciTegic.value.DoubleValue
7.511

@<SCITEGIC>MOL_PROPERTY
G
SciTegic.value.DoubleValue
-9.487

@<SCITEGIC>MOL_PROPERTY
E
SciTegic.value.DoubleValue
-29.954

@<SCITEGIC>MOL_PROPERTY
-TS
SciTegic.value.DoubleValue
20.467

@<SCITEGIC>MOL_PROPERTY
U+W
SciTegic.value.DoubleValue
-47.839

@<SCITEGIC>MOL_PROPERTY
U
SciTegic.value.DoubleValue
13.811

@<SCITEGIC>MOL_PROPERTY
W
SciTegic.value.DoubleValue
-61.650

@<SCITEGIC>MOL_PROPERTY
W(PB)
SciTegic.value.DoubleValue
-63.848

@<SCITEGIC>MOL_PROPERTY
W(SA)
SciTegic.value.DoubleValue
2.198

@<SCITEGIC>MOL_PROPERTY
Valence
SciTegic.value.DoubleValue
12.676

@<SCITEGIC>MOL_PROPERTY
Coulomb
SciTegic.value.DoubleValue
0.619

@<SCITEGIC>MOL_PROPERTY
VdW
SciTegic.value.DoubleValue
0.516

@<SCITEGIC>MOL_PROPERTY
VdW6
SciTegic.value.DoubleValue
-9.538

@<SCITEGIC>MOL_PROPERTY
VdW12
SciTegic.value.DoubleValue
10.054

@<SCITEGIC>MOL_PROPERTY
Bond
SciTegic.value.DoubleValue
0.234

@<SCITEGIC>MOL_PROPERTY
Angle
SciTegic.value.DoubleValue
3.707

@<SCITEGIC>MOL_PROPERTY
Pdih
SciTegic.value.DoubleValue
8.734

@<SCITEGIC>MOL_PROPERTY
Idih
SciTegic.value.DoubleValue
0.001

@<SCITEGIC>MOL_PROPERTY
Tether
SciTegic.value.DoubleValue
0.000

@<TRIPOS>MOLECULE
guest-s21_vm2.mol2 : vm2 ligand conformer 79
          22          21           1
SMALL
USER_CHARGES
 
@<TRIPOS>ATOM
       1    C1      19.931996   19.514254   25.440555 C.2        1 MOL1         0.6145
       2    O1      20.728556   20.424208   25.322752 O.co2      1 MOL1        -0.6735
       3    O2      19.691899   18.962558   26.496411 O.co2      1 MOL1        -0.6735
       4    C2      19.208088   19.023497   24.192019 C.3        1 MOL1        -0.1985
       5    H1      19.058105   19.882692   23.531279 H          1 MOL1         0.0740
       6    H2      18.212602   18.675448   24.492158 H          1 MOL1         0.0740
       7    C3      19.971199   17.885504   23.464115 C.3        1 MOL1        -0.1882
       8    H3      20.998734   18.197735   23.234094 H          1 MOL1         0.0742
       9    H4      20.060895   17.041829   24.162308 H          1 MOL1         0.0742
      10    C4      19.259869   17.391137   22.180153 C.3        1 MOL1        -0.1880
      11    H5      18.172485   17.514313   22.276154 H          1 MOL1         0.0742
      12    H6      19.427877   16.308379   22.100603 H          1 MOL1         0.0742
      13    C5      19.752977   18.030031   20.854877 C.3        1 MOL1        -0.1880
      14    H7      20.827200   17.841621   20.723058 H          1 MOL1         0.0742
      15    H8      19.257351   17.495301   20.033108 H          1 MOL1         0.0742
      16    C6      19.450302   19.538940   20.684875 C.3        1 MOL1        -0.1856
      17    H9      18.535483   19.808919   21.228997 H          1 MOL1         0.0742
      18    H10     19.239341   19.734813   19.624522 H          1 MOL1         0.0742
      19    C7      20.625115   20.448871   21.108243 C.3        1 MOL1        -0.2871
      20    H11     20.889239   20.312903   22.163258 H          1 MOL1         0.0754
      21    H12     20.364721   21.505025   20.962190 H          1 MOL1         0.0754
      22    H13     21.518661   20.237048   20.506951 H          1 MOL1         0.0754
@<TRIPOS>BOND
    1     1     2    1
    2     1     3    2
    3     1     4    1
    4     4     5    1
    5     4     6    1
    6     4     7    1
    7     7     8    1
    8     7     9    1
    9     7    10    1
   10    10    11    1
   11    10    12    1
   12    10    13    1
   13    13    14    1
   14    13    15    1
   15    13    16    1
   16    16    17    1
   17    16    18    1
   18    16    19    1
   19    19    20    1
   20    19    21    1
   21    19    22    1
@<TRIPOS>SUBSTRUCTURE
       1 MOL1            1 RESIDUE      1      MOL     
@<SCITEGIC>MOL_PROPERTY
VM2 Rank
SciTegic.value.IntegerValue
79

@<SCITEGIC>MOL_PROPERTY
Conf_Id
SciTegic.value.IntegerValue
126

@<SCITEGIC>MOL_PROPERTY
Probability
SciTegic.value.DoubleValue
0.00

@<SCITEGIC>MOL_PROPERTY
Sum Probability
SciTegic.value.DoubleValue
100.00

@<SCITEGIC>MOL_PROPERTY
Delta G
SciTegic.value.DoubleValue
7.562

@<SCITEGIC>MOL_PROPERTY
G
SciTegic.value.DoubleValue
-9.436

@<SCITEGIC>MOL_PROPERTY
E
SciTegic.value.DoubleValue
-29.904

@<SCITEGIC>MOL_PROPERTY
-TS
SciTegic.value.DoubleValue
20.468

@<SCITEGIC>MOL_PROPERTY
U+W
SciTegic.value.DoubleValue
-47.789

@<SCITEGIC>MOL_PROPERTY
U
SciTegic.value.DoubleValue
13.811

@<SCITEGIC>MOL_PROPERTY
W
SciTegic.value.DoubleValue
-61.600

@<SCITEGIC>MOL_PROPERTY
W(PB)
SciTegic.value.DoubleValue
-63.797

@<SCITEGIC>MOL_PROPERTY
W(SA)
SciTegic.value.DoubleValue
2.197

@<SCITEGIC>MOL_PROPERTY
Valence
SciTegic.value.DoubleValue
12.676

@<SCITEGIC>MOL_PROPERTY
Coulomb
SciTegic.value.DoubleValue
0.620

@<SCITEGIC>MOL_PROPERTY
VdW
SciTegic.value.DoubleValue
0.516

@<SCITEGIC>MOL_PROPERTY
VdW6
SciTegic.value.DoubleValue
-9.538

@<SCITEGIC>MOL_PROPERTY
VdW12
SciTegic.value.DoubleValue
10.053

@<SCITEGIC>MOL_PROPERTY
Bond
SciTegic.value.DoubleValue
0.234

@<SCITEGIC>MOL_PROPERTY
Angle
SciTegic.value.DoubleValue
3.707

@<SCITEGIC>MOL_PROPERTY
Pdih
SciTegic.value.DoubleValue
8.735

@<SCITEGIC>MOL_PROPERTY
Idih
SciTegic.value.DoubleValue
0.001

@<SCITEGIC>MOL_PROPERTY
Tether
SciTegic.value.DoubleValue
0.000

@<TRIPOS>MOLECULE
guest-s21_vm2.mol2 : vm2 ligand conformer 80
          22          21           1
SMALL
USER_CHARGES
 
@<TRIPOS>ATOM
       1    C1      20.326066   18.844609   24.891578 C.2        1 MOL1         0.6145
       2    O1      20.809497   19.914354   25.208264 O.co2      1 MOL1        -0.6735
       3    O2      20.972420   17.818610   24.812143 O.co2      1 MOL1        -0.6735
       4    C2      18.810615   18.749734   24.707494 C.3        1 MOL1        -0.1985
       5    H1      18.382326   18.761370   25.716265 H          1 MOL1         0.0740
       6    H2      18.563907   17.772761   24.274969 H          1 MOL1         0.0740
       7    C3      18.157857   19.887729   23.871946 C.3        1 MOL1        -0.1882
       8    H3      17.101662   19.957861   24.165030 H          1 MOL1         0.0742
       9    H4      18.605561   20.854623   24.140294 H          1 MOL1         0.0742
      10    C4      18.202848   19.693712   22.334527 C.3        1 MOL1        -0.1880
      11    H5      17.631512   20.515768   21.882041 H          1 MOL1         0.0742
      12    H6      17.668969   18.774756   22.056231 H          1 MOL1         0.0742
      13    C5      19.622650   19.700914   21.715898 C.3        1 MOL1        -0.1880
      14    H7      19.596464   20.280080   20.782805 H          1 MOL1         0.0742
      15    H8      20.324090   20.225122   22.379402 H          1 MOL1         0.0742
      16    C6      20.144557   18.283721   21.389729 C.3        1 MOL1        -0.1856
      17    H9      19.473588   17.801378   20.665769 H          1 MOL1         0.0742
      18    H10     20.136329   17.658730   22.291329 H          1 MOL1         0.0742
      19    C7      21.573489   18.325617   20.812420 C.3        1 MOL1        -0.2871
      20    H11     22.272364   18.767232   21.535164 H          1 MOL1         0.0754
      21    H12     21.609027   18.920931   19.890751 H          1 MOL1         0.0754
      22    H13     21.925251   17.312774   20.577361 H          1 MOL1         0.0754
@<TRIPOS>BOND
    1     1     2    1
    2     1     3    2
    3     1     4    1
    4     4     5    1
    5     4     6    1
    6     4     7    1
    7     7     8    1
    8     7     9    1
    9     7    10    1
   10    10    11    1
   11    10    12    1
   12    10    13    1
   13    13    14    1
   14    13    15    1
   15    13    16    1
   16    16    17    1
   17    16    18    1
   18    16    19    1
   19    19    20    1
   20    19    21    1
   21    19    22    1
@<TRIPOS>SUBSTRUCTURE
       1 MOL1            1 RESIDUE      1      MOL     
@<SCITEGIC>MOL_PROPERTY
VM2 Rank
SciTegic.value.IntegerValue
80

@<SCITEGIC>MOL_PROPERTY
Conf_Id
SciTegic.value.IntegerValue
649

@<SCITEGIC>MOL_PROPERTY
Probability
SciTegic.value.DoubleValue
0.00

@<SCITEGIC>MOL_PROPERTY
Sum Probability
SciTegic.value.DoubleValue
100.00

@<SCITEGIC>MOL_PROPERTY
Delta G
SciTegic.value.DoubleValue
8.528

@<SCITEGIC>MOL_PROPERTY
G
SciTegic.value.DoubleValue
-8.471

@<SCITEGIC>MOL_PROPERTY
E
SciTegic.value.DoubleValue
-29.145

@<SCITEGIC>MOL_PROPERTY
-TS
SciTegic.value.DoubleValue
20.675

@<SCITEGIC>MOL_PROPERTY
U+W
SciTegic.value.DoubleValue
-47.030

@<SCITEGIC>MOL_PROPERTY
U
SciTegic.value.DoubleValue
15.739

@<SCITEGIC>MOL_PROPERTY
W
SciTegic.value.DoubleValue
-62.769

@<SCITEGIC>MOL_PROPERTY
W(PB)
SciTegic.value.DoubleValue
-64.934

@<SCITEGIC>MOL_PROPERTY
W(SA)
SciTegic.value.DoubleValue
2.164

@<SCITEGIC>MOL_PROPERTY
Valence
SciTegic.value.DoubleValue
12.167

@<SCITEGIC>MOL_PROPERTY
Coulomb
SciTegic.value.DoubleValue
3.363

@<SCITEGIC>MOL_PROPERTY
VdW
SciTegic.value.DoubleValue
0.209

@<SCITEGIC>MOL_PROPERTY
VdW6
SciTegic.value.DoubleValue
-10.463

@<SCITEGIC>MOL_PROPERTY
VdW12
SciTegic.value.DoubleValue
10.673

@<SCITEGIC>MOL_PROPERTY
Bond
SciTegic.value.DoubleValue
0.233

@<SCITEGIC>MOL_PROPERTY
Angle
SciTegic.value.DoubleValue
3.823

@<SCITEGIC>MOL_PROPERTY
Pdih
SciTegic.value.DoubleValue
8.088

@<SCITEGIC>MOL_PROPERTY
Idih
SciTegic.value.DoubleValue
0.023

@<SCITEGIC>MOL_PROPERTY
Tether
SciTegic.value.DoubleValue
0.000

@<TRIPOS>MOLECULE
guest-s21_vm2.mol2 : vm2 ligand conformer 81
          22          21           1
SMALL
USER_CHARGES
 
@<TRIPOS>ATOM
       1    C1      20.343024   19.325199   24.867758 C.2        1 MOL1         0.6145
       2    O1      20.751203   18.260591   25.290072 O.co2      1 MOL1        -0.6735
       3    O2      21.059523   20.290517   24.690140 O.co2      1 MOL1        -0.6735
       4    C2      18.837344   19.507690   24.670027 C.3        1 MOL1        -0.1985
       5    H1      18.658340   20.452258   24.142609 H          1 MOL1         0.0740
       6    H2      18.412822   19.625483   25.673567 H          1 MOL1         0.0740
       7    C3      18.103385   18.341654   23.948278 C.3        1 MOL1        -0.1882
       8    H3      18.483045   17.376824   24.312003 H          1 MOL1         0.0742
       9    H4      17.045901   18.375023   24.243200 H          1 MOL1         0.0742
      10    C4      18.156533   18.379811   22.399396 C.3        1 MOL1        -0.1880
      11    H5      17.687553   19.302143   22.030182 H          1 MOL1         0.0742
      12    H6      17.527297   17.559393   22.028022 H          1 MOL1         0.0742
      13    C5      19.570164   18.212065   21.789397 C.3        1 MOL1        -0.1880
      14    H7      20.235351   17.707713   22.503684 H          1 MOL1         0.0742
      15    H8      19.500116   17.547179   20.917731 H          1 MOL1         0.0742
      16    C6      20.189188   19.550113   21.327182 C.3        1 MOL1        -0.1856
      17    H9      20.228011   20.259815   22.162873 H          1 MOL1         0.0742
      18    H10     19.551245   20.004810   20.556954 H          1 MOL1         0.0742
      19    C7      21.609636   19.351358   20.761750 C.3        1 MOL1        -0.2871
      20    H11     22.278285   18.935050   21.526868 H          1 MOL1         0.0754
      21    H12     22.030828   20.308933   20.429354 H          1 MOL1         0.0754
      22    H13     21.600079   18.667195   19.903284 H          1 MOL1         0.0754
@<TRIPOS>BOND
    1     1     2    1
    2     1     3    2
    3     1     4    1
    4     4     5    1
    5     4     6    1
    6     4     7    1
    7     7     8    1
    8     7     9    1
    9     7    10    1
   10    10    11    1
   11    10    12    1
   12    10    13    1
   13    13    14    1
   14    13    15    1
   15    13    16    1
   16    16    17    1
   17    16    18    1
   18    16    19    1
   19    19    20    1
   20    19    21    1
   21    19    22    1
@<TRIPOS>SUBSTRUCTURE
       1 MOL1            1 RESIDUE      1      MOL     
@<SCITEGIC>MOL_PROPERTY
VM2 Rank
SciTegic.value.IntegerValue
81

@<SCITEGIC>MOL_PROPERTY
Conf_Id
SciTegic.value.IntegerValue
445

@<SCITEGIC>MOL_PROPERTY
Probability
SciTegic.value.DoubleValue
0.00

@<SCITEGIC>MOL_PROPERTY
Sum Probability
SciTegic.value.DoubleValue
100.00

@<SCITEGIC>MOL_PROPERTY
Delta G
SciTegic.value.DoubleValue
8.582

@<SCITEGIC>MOL_PROPERTY
G
SciTegic.value.DoubleValue
-8.416

@<SCITEGIC>MOL_PROPERTY
E
SciTegic.value.DoubleValue
-29.091

@<SCITEGIC>MOL_PROPERTY
-TS
SciTegic.value.DoubleValue
20.675

@<SCITEGIC>MOL_PROPERTY
U+W
SciTegic.value.DoubleValue
-46.975

@<SCITEGIC>MOL_PROPERTY
U
SciTegic.value.DoubleValue
15.738

@<SCITEGIC>MOL_PROPERTY
W
SciTegic.value.DoubleValue
-62.713

@<SCITEGIC>MOL_PROPERTY
W(PB)
SciTegic.value.DoubleValue
-64.888

@<SCITEGIC>MOL_PROPERTY
W(SA)
SciTegic.value.DoubleValue
2.174

@<SCITEGIC>MOL_PROPERTY
Valence
SciTegic.value.DoubleValue
12.167

@<SCITEGIC>MOL_PROPERTY
Coulomb
SciTegic.value.DoubleValue
3.362

@<SCITEGIC>MOL_PROPERTY
VdW
SciTegic.value.DoubleValue
0.210

@<SCITEGIC>MOL_PROPERTY
VdW6
SciTegic.value.DoubleValue
-10.463

@<SCITEGIC>MOL_PROPERTY
VdW12
SciTegic.value.DoubleValue
10.673

@<SCITEGIC>MOL_PROPERTY
Bond
SciTegic.value.DoubleValue
0.233

@<SCITEGIC>MOL_PROPERTY
Angle
SciTegic.value.DoubleValue
3.823

@<SCITEGIC>MOL_PROPERTY
Pdih
SciTegic.value.DoubleValue
8.088

@<SCITEGIC>MOL_PROPERTY
Idih
SciTegic.value.DoubleValue
0.022

@<SCITEGIC>MOL_PROPERTY
Tether
SciTegic.value.DoubleValue
0.000

@<TRIPOS>MOLECULE
guest-s21_vm2.mol2 : vm2 ligand conformer 82
          22          21           1
SMALL
USER_CHARGES
 
@<TRIPOS>ATOM
       1    C1      20.125157   18.688962   24.949259 C.2        1 MOL1         0.6145
       2    O1      19.457864   17.688725   25.127705 O.co2      1 MOL1        -0.6735
       3    O2      21.336967   18.711742   25.041192 O.co2      1 MOL1        -0.6735
       4    C2      19.397590   20.017242   24.755513 C.3        1 MOL1        -0.1985
       5    H1      19.791971   20.697690   25.519317 H          1 MOL1         0.0740
       6    H2      18.334137   19.877094   24.983485 H          1 MOL1         0.0740
       7    C3      19.570915   20.677506   23.358250 C.3        1 MOL1        -0.1882
       8    H3      19.386453   21.753525   23.478394 H          1 MOL1         0.0742
       9    H4      20.610163   20.597557   23.019310 H          1 MOL1         0.0742
      10    C4      18.589068   20.164484   22.274437 C.3        1 MOL1        -0.1880
      11    H5      18.629441   20.844691   21.412865 H          1 MOL1         0.0742
      12    H6      17.566664   20.249197   22.667114 H          1 MOL1         0.0742
      13    C5      18.801534   18.714246   21.767738 C.3        1 MOL1        -0.1880
      14    H7      18.811238   18.001335   22.601071 H          1 MOL1         0.0742
      15    H8      17.914992   18.451716   21.174646 H          1 MOL1         0.0742
      16    C6      20.039705   18.513113   20.857302 C.3        1 MOL1        -0.1856
      17    H9      20.254946   19.431357   20.294046 H          1 MOL1         0.0742
      18    H10     19.794855   17.747426   20.108308 H          1 MOL1         0.0742
      19    C7      21.301201   18.042979   21.612605 C.3        1 MOL1        -0.2871
      20    H11     21.669131   18.805175   22.307270 H          1 MOL1         0.0754
      21    H12     22.111182   17.820474   20.906323 H          1 MOL1         0.0754
      22    H13     21.096652   17.131505   22.189569 H          1 MOL1         0.0754
@<TRIPOS>BOND
    1     1     2    1
    2     1     3    2
    3     1     4    1
    4     4     5    1
    5     4     6    1
    6     4     7    1
    7     7     8    1
    8     7     9    1
    9     7    10    1
   10    10    11    1
   11    10    12    1
   12    10    13    1
   13    13    14    1
   14    13    15    1
   15    13    16    1
   16    16    17    1
   17    16    18    1
   18    16    19    1
   19    19    20    1
   20    19    21    1
   21    19    22    1
@<TRIPOS>SUBSTRUCTURE
       1 MOL1            1 RESIDUE      1      MOL     
@<SCITEGIC>MOL_PROPERTY
VM2 Rank
SciTegic.value.IntegerValue
82

@<SCITEGIC>MOL_PROPERTY
Conf_Id
SciTegic.value.IntegerValue
173

@<SCITEGIC>MOL_PROPERTY
Probability
SciTegic.value.DoubleValue
0.00

@<SCITEGIC>MOL_PROPERTY
Sum Probability
SciTegic.value.DoubleValue
100.00

@<SCITEGIC>MOL_PROPERTY
Delta G
SciTegic.value.DoubleValue
9.712

@<SCITEGIC>MOL_PROPERTY
G
SciTegic.value.DoubleValue
-7.286

@<SCITEGIC>MOL_PROPERTY
E
SciTegic.value.DoubleValue
-27.898

@<SCITEGIC>MOL_PROPERTY
-TS
SciTegic.value.DoubleValue
20.612

@<SCITEGIC>MOL_PROPERTY
U+W
SciTegic.value.DoubleValue
-45.783

@<SCITEGIC>MOL_PROPERTY
U
SciTegic.value.DoubleValue
16.807

@<SCITEGIC>MOL_PROPERTY
W
SciTegic.value.DoubleValue
-62.590

@<SCITEGIC>MOL_PROPERTY
W(PB)
SciTegic.value.DoubleValue
-64.716

@<SCITEGIC>MOL_PROPERTY
W(SA)
SciTegic.value.DoubleValue
2.126

@<SCITEGIC>MOL_PROPERTY
Valence
SciTegic.value.DoubleValue
13.059

@<SCITEGIC>MOL_PROPERTY
Coulomb
SciTegic.value.DoubleValue
3.862

@<SCITEGIC>MOL_PROPERTY
VdW
SciTegic.value.DoubleValue
-0.114

@<SCITEGIC>MOL_PROPERTY
VdW6
SciTegic.value.DoubleValue
-11.029

@<SCITEGIC>MOL_PROPERTY
VdW12
SciTegic.value.DoubleValue
10.916

@<SCITEGIC>MOL_PROPERTY
Bond
SciTegic.value.DoubleValue
0.270

@<SCITEGIC>MOL_PROPERTY
Angle
SciTegic.value.DoubleValue
4.725

@<SCITEGIC>MOL_PROPERTY
Pdih
SciTegic.value.DoubleValue
8.030

@<SCITEGIC>MOL_PROPERTY
Idih
SciTegic.value.DoubleValue
0.034

@<SCITEGIC>MOL_PROPERTY
Tether
SciTegic.value.DoubleValue
0.000

