VeraChem MOL file


 22 21  0  0  0  0  0  0  0  0999 V2000     
   19.8314   19.1341   26.1875 C   0  0  0  0  0  0  0  0  0  0  0  0
   20.0587   20.2372   26.6434 O   0  5  0  0  0  0  0  0  0  0  0  0
   20.1745   18.0999   26.7251 O   0  0  0  0  0  0  0  0  0  0  0  0
   19.0946   19.0433   24.8559 C   0  0  0  0  0  0  0  0  0  0  0  0
   18.3980   19.8879   24.7937 H   0  0  0  0  0  0  0  0  0  0  0  0
   18.4929   18.1264   24.8613 H   0  0  0  0  0  0  0  0  0  0  0  0
   20.0506   19.0480   23.6377 C   0  0  0  0  0  0  0  0  0  0  0  0
   20.6548   19.9657   23.6541 H   0  0  0  0  0  0  0  0  0  0  0  0
   20.7496   18.2043   23.7217 H   0  0  0  0  0  0  0  0  0  0  0  0
   19.2808   18.9554   22.3025 C   0  0  0  0  0  0  0  0  0  0  0  0
   18.5821   19.7995   22.2223 H   0  0  0  0  0  0  0  0  0  0  0  0
   18.6768   18.0376   22.2898 H   0  0  0  0  0  0  0  0  0  0  0  0
   20.2363   18.9603   21.0900 C   0  0  0  0  0  0  0  0  0  0  0  0
   20.8405   19.8778   21.1023 H   0  0  0  0  0  0  0  0  0  0  0  0
   20.9351   18.1162   21.1698 H   0  0  0  0  0  0  0  0  0  0  0  0
   19.4677   18.8679   19.7552 C   0  0  0  0  0  0  0  0  0  0  0  0
   18.7690   19.7118   19.6708 H   0  0  0  0  0  0  0  0  0  0  0  0
   18.8635   17.9502   19.7382 H   0  0  0  0  0  0  0  0  0  0  0  0
   20.4254   18.8730   18.5468 C   0  0  0  0  0  0  0  0  0  0  0  0
   21.0205   19.7953   18.5213 H   0  0  0  0  0  0  0  0  0  0  0  0
   19.8624   18.8068   17.6067 H   0  0  0  0  0  0  0  0  0  0  0  0
   21.1158   18.0204   18.5892 H   0  0  0  0  0  0  0  0  0  0  0  0
  1  2  1  0  0  0  0
  1  3  2  0  0  0  0
  1  4  1  0  0  0  0
  4  5  1  0  0  0  0
  4  6  1  0  0  0  0
  4  7  1  0  0  0  0
  7  8  1  0  0  0  0
  7  9  1  0  0  0  0
  7 10  1  0  0  0  0
 10 11  1  0  0  0  0
 10 12  1  0  0  0  0
 10 13  1  0  0  0  0
 13 14  1  0  0  0  0
 13 15  1  0  0  0  0
 13 16  1  0  0  0  0
 16 17  1  0  0  0  0
 16 18  1  0  0  0  0
 16 19  1  0  0  0  0
 19 20  1  0  0  0  0
 19 21  1  0  0  0  0
 19 22  1  0  0  0  0
M  END
> <VM2 Rank>
1

> <Conf_Id>
394

> <Probability>
32.47

> <Sum Probability>
32.47

> <Delta G>
0.000

> <G>
-16.998

> <E>
-36.566

> <-TS>
19.568

> <U+W>
-54.451

> <U>
5.779

> <W>
-60.230

> <W(PB)>
-62.557

> <W(SA)>
2.328

> <Valence>
7.101

> <Coulomb>
-2.079

> <VdW>
0.757

> <VdW6>
-6.496

> <VdW12>
7.253

> <Bond>
0.100

> <Angle>
2.262

> <Pdih>
4.739

> <Idih>
0.001

> <Tether>
0.000

$$$$
VeraChem MOL file


 22 21  0  0  0  0  0  0  0  0999 V2000     
   19.7290   18.8549   25.9656 C   0  0  0  0  0  0  0  0  0  0  0  0
   19.2129   19.6430   26.7331 O   0  5  0  0  0  0  0  0  0  0  0  0
   20.5231   18.0022   26.3100 O   0  0  0  0  0  0  0  0  0  0  0  0
   19.3783   18.9570   24.4854 C   0  0  0  0  0  0  0  0  0  0  0  0
   18.3435   19.3105   24.4045 H   0  0  0  0  0  0  0  0  0  0  0  0
   19.4107   17.9456   24.0650 H   0  0  0  0  0  0  0  0  0  0  0  0
   20.3295   19.9033   23.7076 C   0  0  0  0  0  0  0  0  0  0  0  0
   20.3434   20.8802   24.2104 H   0  0  0  0  0  0  0  0  0  0  0  0
   21.3558   19.5141   23.7577 H   0  0  0  0  0  0  0  0  0  0  0  0
   19.9209   20.1122   22.2300 C   0  0  0  0  0  0  0  0  0  0  0  0
   20.5739   20.8802   21.7933 H   0  0  0  0  0  0  0  0  0  0  0  0
   18.8982   20.5108   22.1839 H   0  0  0  0  0  0  0  0  0  0  0  0
   20.0179   18.8259   21.3776 C   0  0  0  0  0  0  0  0  0  0  0  0
   21.0267   18.4004   21.4682 H   0  0  0  0  0  0  0  0  0  0  0  0
   19.3160   18.0714   21.7558 H   0  0  0  0  0  0  0  0  0  0  0  0
   19.7077   19.1024   19.8914 C   0  0  0  0  0  0  0  0  0  0  0  0
   20.4102   19.8505   19.4987 H   0  0  0  0  0  0  0  0  0  0  0  0
   18.6999   19.5301   19.7970 H   0  0  0  0  0  0  0  0  0  0  0  0
   19.8008   17.8181   19.0433 C   0  0  0  0  0  0  0  0  0  0  0  0
   20.8085   17.3855   19.0950 H   0  0  0  0  0  0  0  0  0  0  0  0
   19.5779   18.0331   17.9901 H   0  0  0  0  0  0  0  0  0  0  0  0
   19.0851   17.0630   19.3939 H   0  0  0  0  0  0  0  0  0  0  0  0
  1  2  1  0  0  0  0
  1  3  2  0  0  0  0
  1  4  1  0  0  0  0
  4  5  1  0  0  0  0
  4  6  1  0  0  0  0
  4  7  1  0  0  0  0
  7  8  1  0  0  0  0
  7  9  1  0  0  0  0
  7 10  1  0  0  0  0
 10 11  1  0  0  0  0
 10 12  1  0  0  0  0
 10 13  1  0  0  0  0
 13 14  1  0  0  0  0
 13 15  1  0  0  0  0
 13 16  1  0  0  0  0
 16 17  1  0  0  0  0
 16 18  1  0  0  0  0
 16 19  1  0  0  0  0
 19 20  1  0  0  0  0
 19 21  1  0  0  0  0
 19 22  1  0  0  0  0
M  END
> <VM2 Rank>
2

> <Conf_Id>
718

> <Probability>
8.37

> <Sum Probability>
40.84

> <Delta G>
0.808

> <G>
-16.190

> <E>
-35.868

> <-TS>
19.677

> <U+W>
-53.752

> <U>
6.782

> <W>
-60.535

> <W(PB)>
-62.847

> <W(SA)>
2.313

> <Valence>
7.621

> <Coulomb>
-1.711

> <VdW>
0.872

> <VdW6>
-7.188

> <VdW12>
8.060

> <Bond>
0.142

> <Angle>
2.504

> <Pdih>
4.974

> <Idih>
0.001

> <Tether>
0.000

$$$$
VeraChem MOL file


 22 21  0  0  0  0  0  0  0  0999 V2000     
   20.1334   19.1303   25.9560 C   0  0  0  0  0  0  0  0  0  0  0  0
   19.6139   19.9159   26.7237 O   0  5  0  0  0  0  0  0  0  0  0  0
   20.6479   18.0869   26.3070 O   0  0  0  0  0  0  0  0  0  0  0  0
   20.1189   19.4613   24.4679 C   0  0  0  0  0  0  0  0  0  0  0  0
   21.0341   19.0511   24.0264 H   0  0  0  0  0  0  0  0  0  0  0  0
   20.1661   20.5517   24.3615 H   0  0  0  0  0  0  0  0  0  0  0  0
   18.8654   18.9067   23.7423 C   0  0  0  0  0  0  0  0  0  0  0  0
   18.8533   17.8106   23.8170 H   0  0  0  0  0  0  0  0  0  0  0  0
   17.9680   19.2632   24.2667 H   0  0  0  0  0  0  0  0  0  0  0  0
   18.7730   19.3307   22.2572 C   0  0  0  0  0  0  0  0  0  0  0  0
   18.7753   20.4271   22.1868 H   0  0  0  0  0  0  0  0  0  0  0  0
   17.8054   18.9957   21.8589 H   0  0  0  0  0  0  0  0  0  0  0  0
   19.9060   18.7497   21.3803 C   0  0  0  0  0  0  0  0  0  0  0  0
   20.8770   19.1338   21.7189 H   0  0  0  0  0  0  0  0  0  0  0  0
   19.9351   17.6574   21.4940 H   0  0  0  0  0  0  0  0  0  0  0  0
   19.7144   19.1070   19.8913 C   0  0  0  0  0  0  0  0  0  0  0  0
   19.6828   20.1991   19.7738 H   0  0  0  0  0  0  0  0  0  0  0  0
   18.7487   18.7197   19.5381 H   0  0  0  0  0  0  0  0  0  0  0  0
   20.8471   18.5303   19.0184 C   0  0  0  0  0  0  0  0  0  0  0  0
   21.8229   18.9263   19.3290 H   0  0  0  0  0  0  0  0  0  0  0  0
   20.6948   18.7934   17.9636 H   0  0  0  0  0  0  0  0  0  0  0  0
   20.8819   17.4355   19.0932 H   0  0  0  0  0  0  0  0  0  0  0  0
  1  2  1  0  0  0  0
  1  3  2  0  0  0  0
  1  4  1  0  0  0  0
  4  5  1  0  0  0  0
  4  6  1  0  0  0  0
  4  7  1  0  0  0  0
  7  8  1  0  0  0  0
  7  9  1  0  0  0  0
  7 10  1  0  0  0  0
 10 11  1  0  0  0  0
 10 12  1  0  0  0  0
 10 13  1  0  0  0  0
 13 14  1  0  0  0  0
 13 15  1  0  0  0  0
 13 16  1  0  0  0  0
 16 17  1  0  0  0  0
 16 18  1  0  0  0  0
 16 19  1  0  0  0  0
 19 20  1  0  0  0  0
 19 21  1  0  0  0  0
 19 22  1  0  0  0  0
M  END
> <VM2 Rank>
3

> <Conf_Id>
752

> <Probability>
7.51

> <Sum Probability>
48.36

> <Delta G>
0.872

> <G>
-16.126

> <E>
-35.803

> <-TS>
19.677

> <U+W>
-53.688

> <U>
6.782

> <W>
-60.470

> <W(PB)>
-62.790

> <W(SA)>
2.320

> <Valence>
7.621

> <Coulomb>
-1.711

> <VdW>
0.872

> <VdW6>
-7.188

> <VdW12>
8.060

> <Bond>
0.142

> <Angle>
2.504

> <Pdih>
4.974

> <Idih>
0.001

> <Tether>
0.000

$$$$
VeraChem MOL file


 22 21  0  0  0  0  0  0  0  0999 V2000     
   19.9961   19.0328   25.9874 C   0  0  0  0  0  0  0  0  0  0  0  0
   20.3224   20.0800   26.5104 O   0  5  0  0  0  0  0  0  0  0  0  0
   20.4207   17.9476   26.3318 O   0  0  0  0  0  0  0  0  0  0  0  0
   19.0155   19.0853   24.8213 C   0  0  0  0  0  0  0  0  0  0  0  0
   18.3318   19.9261   24.9890 H   0  0  0  0  0  0  0  0  0  0  0  0
   18.4134   18.1688   24.8408 H   0  0  0  0  0  0  0  0  0  0  0  0
   19.7191   19.2327   23.4497 C   0  0  0  0  0  0  0  0  0  0  0  0
   20.3245   20.1497   23.4494 H   0  0  0  0  0  0  0  0  0  0  0  0
   20.4116   18.3916   23.3142 H   0  0  0  0  0  0  0  0  0  0  0  0
   18.7022   19.2787   22.2857 C   0  0  0  0  0  0  0  0  0  0  0  0
   17.9736   20.0777   22.4798 H   0  0  0  0  0  0  0  0  0  0  0  0
   18.1327   18.3397   22.2536 H   0  0  0  0  0  0  0  0  0  0  0  0
   19.3550   19.5357   20.9068 C   0  0  0  0  0  0  0  0  0  0  0  0
   18.5570   19.6777   20.1652 H   0  0  0  0  0  0  0  0  0  0  0  0
   19.9215   20.4764   20.9373 H   0  0  0  0  0  0  0  0  0  0  0  0
   20.2767   18.3875   20.4374 C   0  0  0  0  0  0  0  0  0  0  0  0
   19.7250   17.4375   20.4573 H   0  0  0  0  0  0  0  0  0  0  0  0
   21.1264   18.2793   21.1242 H   0  0  0  0  0  0  0  0  0  0  0  0
   20.8123   18.6387   19.0134 C   0  0  0  0  0  0  0  0  0  0  0  0
   21.4672   17.8169   18.6960 H   0  0  0  0  0  0  0  0  0  0  0  0
   21.3921   19.5701   18.9710 H   0  0  0  0  0  0  0  0  0  0  0  0
   19.9889   18.7140   18.2911 H   0  0  0  0  0  0  0  0  0  0  0  0
  1  2  1  0  0  0  0
  1  3  2  0  0  0  0
  1  4  1  0  0  0  0
  4  5  1  0  0  0  0
  4  6  1  0  0  0  0
  4  7  1  0  0  0  0
  7  8  1  0  0  0  0
  7  9  1  0  0  0  0
  7 10  1  0  0  0  0
 10 11  1  0  0  0  0
 10 12  1  0  0  0  0
 10 13  1  0  0  0  0
 13 14  1  0  0  0  0
 13 15  1  0  0  0  0
 13 16  1  0  0  0  0
 16 17  1  0  0  0  0
 16 18  1  0  0  0  0
 16 19  1  0  0  0  0
 19 20  1  0  0  0  0
 19 21  1  0  0  0  0
 19 22  1  0  0  0  0
M  END
> <VM2 Rank>
4

> <Conf_Id>
132

> <Probability>
7.45

> <Sum Probability>
55.80

> <Delta G>
0.878

> <G>
-16.120

> <E>
-35.794

> <-TS>
19.673

> <U+W>
-53.679

> <U>
7.026

> <W>
-60.705

> <W(PB)>
-63.009

> <W(SA)>
2.304

> <Valence>
7.638

> <Coulomb>
-1.488

> <VdW>
0.877

> <VdW6>
-7.165

> <VdW12>
8.042

> <Bond>
0.134

> <Angle>
2.513

> <Pdih>
4.990

> <Idih>
0.001

> <Tether>
0.000

$$$$
VeraChem MOL file


 22 21  0  0  0  0  0  0  0  0999 V2000     
   19.6005   19.0272   25.9803 C   0  0  0  0  0  0  0  0  0  0  0  0
   19.2261   20.0644   26.4906 O   0  5  0  0  0  0  0  0  0  0  0  0
   19.1951   17.9302   26.3099 O   0  0  0  0  0  0  0  0  0  0  0  0
   20.6206   19.1081   24.8502 C   0  0  0  0  0  0  0  0  0  0  0  0
   21.2473   18.2091   24.8918 H   0  0  0  0  0  0  0  0  0  0  0  0
   21.2737   19.9679   25.0419 H   0  0  0  0  0  0  0  0  0  0  0  0
   19.9629   19.2362   23.4540 C   0  0  0  0  0  0  0  0  0  0  0  0
   19.3000   18.3757   23.2942 H   0  0  0  0  0  0  0  0  0  0  0  0
   19.3321   20.1356   23.4315 H   0  0  0  0  0  0  0  0  0  0  0  0
   21.0194   19.3116   22.3274 C   0  0  0  0  0  0  0  0  0  0  0  0
   21.6162   18.3892   22.3163 H   0  0  0  0  0  0  0  0  0  0  0  0
   21.7176   20.1309   22.5472 H   0  0  0  0  0  0  0  0  0  0  0  0
   20.4097   19.5506   20.9257 C   0  0  0  0  0  0  0  0  0  0  0  0
   19.8161   20.4750   20.9353 H   0  0  0  0  0  0  0  0  0  0  0  0
   21.2295   19.7156   20.2132 H   0  0  0  0  0  0  0  0  0  0  0  0
   19.5383   18.3770   20.4242 C   0  0  0  0  0  0  0  0  0  0  0  0
   18.6678   18.2446   21.0800 H   0  0  0  0  0  0  0  0  0  0  0  0
   20.1155   17.4430   20.4644 H   0  0  0  0  0  0  0  0  0  0  0  0
   19.0474   18.6137   18.9817 C   0  0  0  0  0  0  0  0  0  0  0  0
   18.4278   17.7738   18.6413 H   0  0  0  0  0  0  0  0  0  0  0  0
   19.8938   18.7125   18.2894 H   0  0  0  0  0  0  0  0  0  0  0  0
   18.4434   19.5283   18.9178 H   0  0  0  0  0  0  0  0  0  0  0  0
  1  2  1  0  0  0  0
  1  3  2  0  0  0  0
  1  4  1  0  0  0  0
  4  5  1  0  0  0  0
  4  6  1  0  0  0  0
  4  7  1  0  0  0  0
  7  8  1  0  0  0  0
  7  9  1  0  0  0  0
  7 10  1  0  0  0  0
 10 11  1  0  0  0  0
 10 12  1  0  0  0  0
 10 13  1  0  0  0  0
 13 14  1  0  0  0  0
 13 15  1  0  0  0  0
 13 16  1  0  0  0  0
 16 17  1  0  0  0  0
 16 18  1  0  0  0  0
 16 19  1  0  0  0  0
 19 20  1  0  0  0  0
 19 21  1  0  0  0  0
 19 22  1  0  0  0  0
M  END
> <VM2 Rank>
5

> <Conf_Id>
345

> <Probability>
7.03

> <Sum Probability>
62.83

> <Delta G>
0.913

> <G>
-16.086

> <E>
-35.759

> <-TS>
19.673

> <U+W>
-53.644

> <U>
7.026

> <W>
-60.670

> <W(PB)>
-62.962

> <W(SA)>
2.292

> <Valence>
7.638

> <Coulomb>
-1.489

> <VdW>
0.877

> <VdW6>
-7.165

> <VdW12>
8.042

> <Bond>
0.134

> <Angle>
2.513

> <Pdih>
4.990

> <Idih>
0.001

> <Tether>
0.000

$$$$
VeraChem MOL file


 22 21  0  0  0  0  0  0  0  0999 V2000     
   19.7329   19.2233   26.0947 C   0  0  0  0  0  0  0  0  0  0  0  0
   20.1388   20.2915   26.5079 O   0  5  0  0  0  0  0  0  0  0  0  0
   19.7907   18.1897   26.7309 O   0  0  0  0  0  0  0  0  0  0  0  0
   19.1379   19.1730   24.6920 C   0  0  0  0  0  0  0  0  0  0  0  0
   18.6464   20.1335   24.4957 H   0  0  0  0  0  0  0  0  0  0  0  0
   18.3585   18.4016   24.6799 H   0  0  0  0  0  0  0  0  0  0  0  0
   20.1959   18.8809   23.5996 C   0  0  0  0  0  0  0  0  0  0  0  0
   20.9754   19.6548   23.6330 H   0  0  0  0  0  0  0  0  0  0  0  0
   20.6878   17.9229   23.8182 H   0  0  0  0  0  0  0  0  0  0  0  0
   19.5687   18.8351   22.1893 C   0  0  0  0  0  0  0  0  0  0  0  0
   19.0742   19.7935   21.9843 H   0  0  0  0  0  0  0  0  0  0  0  0
   18.7916   18.0592   22.1583 H   0  0  0  0  0  0  0  0  0  0  0  0
   20.6295   18.5471   21.1021 C   0  0  0  0  0  0  0  0  0  0  0  0
   21.3809   19.3486   21.0965 H   0  0  0  0  0  0  0  0  0  0  0  0
   21.1632   17.6221   21.3596 H   0  0  0  0  0  0  0  0  0  0  0  0
   20.0306   18.3900   19.6851 C   0  0  0  0  0  0  0  0  0  0  0  0
   19.2831   17.5847   19.6853 H   0  0  0  0  0  0  0  0  0  0  0  0
   20.8278   18.0729   18.9987 H   0  0  0  0  0  0  0  0  0  0  0  0
   19.3951   19.6884   19.1424 C   0  0  0  0  0  0  0  0  0  0  0  0
   18.5178   19.9821   19.7322 H   0  0  0  0  0  0  0  0  0  0  0  0
   19.0661   19.5499   18.1044 H   0  0  0  0  0  0  0  0  0  0  0  0
   20.1160   20.5161   19.1608 H   0  0  0  0  0  0  0  0  0  0  0  0
  1  2  1  0  0  0  0
  1  3  2  0  0  0  0
  1  4  1  0  0  0  0
  4  5  1  0  0  0  0
  4  6  1  0  0  0  0
  4  7  1  0  0  0  0
  7  8  1  0  0  0  0
  7  9  1  0  0  0  0
  7 10  1  0  0  0  0
 10 11  1  0  0  0  0
 10 12  1  0  0  0  0
 10 13  1  0  0  0  0
 13 14  1  0  0  0  0
 13 15  1  0  0  0  0
 13 16  1  0  0  0  0
 16 17  1  0  0  0  0
 16 18  1  0  0  0  0
 16 19  1  0  0  0  0
 19 20  1  0  0  0  0
 19 21  1  0  0  0  0
 19 22  1  0  0  0  0
M  END
> <VM2 Rank>
6

> <Conf_Id>
711

> <Probability>
6.48

> <Sum Probability>
69.31

> <Delta G>
0.961

> <G>
-16.038

> <E>
-35.715

> <-TS>
19.677

> <U+W>
-53.599

> <U>
6.751

> <W>
-60.351

> <W(PB)>
-62.660

> <W(SA)>
2.309

> <Valence>
7.602

> <Coulomb>
-1.744

> <VdW>
0.894

> <VdW6>
-7.110

> <VdW12>
8.004

> <Bond>
0.131

> <Angle>
2.489

> <Pdih>
4.981

> <Idih>
0.001

> <Tether>
0.000

$$$$
VeraChem MOL file


 22 21  0  0  0  0  0  0  0  0999 V2000     
   19.7434   19.0279   26.1022 C   0  0  0  0  0  0  0  0  0  0  0  0
   19.6870   20.1073   26.6574 O   0  5  0  0  0  0  0  0  0  0  0  0
   20.2602   18.0443   26.5941 O   0  0  0  0  0  0  0  0  0  0  0  0
   19.1523   18.9066   24.7022 C   0  0  0  0  0  0  0  0  0  0  0  0
   18.2945   19.5866   24.6344 H   0  0  0  0  0  0  0  0  0  0  0  0
   18.7678   17.8867   24.5819 H   0  0  0  0  0  0  0  0  0  0  0  0
   20.1773   19.2265   23.5863 C   0  0  0  0  0  0  0  0  0  0  0  0
   20.5624   20.2457   23.7291 H   0  0  0  0  0  0  0  0  0  0  0  0
   21.0352   18.5457   23.6755 H   0  0  0  0  0  0  0  0  0  0  0  0
   19.5545   19.0968   22.1793 C   0  0  0  0  0  0  0  0  0  0  0  0
   18.6986   19.7800   22.0923 H   0  0  0  0  0  0  0  0  0  0  0  0
   19.1668   18.0779   22.0500 H   0  0  0  0  0  0  0  0  0  0  0  0
   20.5827   19.4133   21.0689 C   0  0  0  0  0  0  0  0  0  0  0  0
   21.0128   20.4074   21.2528 H   0  0  0  0  0  0  0  0  0  0  0  0
   21.4159   18.6993   21.1213 H   0  0  0  0  0  0  0  0  0  0  0  0
   19.9761   19.3966   19.6465 C   0  0  0  0  0  0  0  0  0  0  0  0
   20.7374   19.7443   18.9347 H   0  0  0  0  0  0  0  0  0  0  0  0
   19.1462   20.1143   19.5884 H   0  0  0  0  0  0  0  0  0  0  0  0
   19.4864   17.9996   19.2072 C   0  0  0  0  0  0  0  0  0  0  0  0
   20.2922   17.2582   19.2856 H   0  0  0  0  0  0  0  0  0  0  0  0
   19.1486   18.0223   18.1630 H   0  0  0  0  0  0  0  0  0  0  0  0
   18.6435   17.6590   19.8213 H   0  0  0  0  0  0  0  0  0  0  0  0
  1  2  1  0  0  0  0
  1  3  2  0  0  0  0
  1  4  1  0  0  0  0
  4  5  1  0  0  0  0
  4  6  1  0  0  0  0
  4  7  1  0  0  0  0
  7  8  1  0  0  0  0
  7  9  1  0  0  0  0
  7 10  1  0  0  0  0
 10 11  1  0  0  0  0
 10 12  1  0  0  0  0
 10 13  1  0  0  0  0
 13 14  1  0  0  0  0
 13 15  1  0  0  0  0
 13 16  1  0  0  0  0
 16 17  1  0  0  0  0
 16 18  1  0  0  0  0
 16 19  1  0  0  0  0
 19 20  1  0  0  0  0
 19 21  1  0  0  0  0
 19 22  1  0  0  0  0
M  END
> <VM2 Rank>
7

> <Conf_Id>
695

> <Probability>
6.16

> <Sum Probability>
75.47

> <Delta G>
0.991

> <G>
-16.007

> <E>
-35.684

> <-TS>
19.677

> <U+W>
-53.569

> <U>
6.751

> <W>
-60.321

> <W(PB)>
-62.642

> <W(SA)>
2.321

> <Valence>
7.602

> <Coulomb>
-1.744

> <VdW>
0.894

> <VdW6>
-7.111

> <VdW12>
8.004

> <Bond>
0.131

> <Angle>
2.489

> <Pdih>
4.982

> <Idih>
0.001

> <Tether>
0.000

$$$$
VeraChem MOL file


 22 21  0  0  0  0  0  0  0  0999 V2000     
   19.9960   19.0181   25.8023 C   0  0  0  0  0  0  0  0  0  0  0  0
   20.5946   19.9818   26.2379 O   0  5  0  0  0  0  0  0  0  0  0  0
   20.3757   17.8720   25.9402 O   0  0  0  0  0  0  0  0  0  0  0  0
   18.6863   19.2617   25.0576 C   0  0  0  0  0  0  0  0  0  0  0  0
   18.1021   19.9780   25.6473 H   0  0  0  0  0  0  0  0  0  0  0  0
   18.1150   18.3257   25.0383 H   0  0  0  0  0  0  0  0  0  0  0  0
   18.8715   19.8058   23.6172 C   0  0  0  0  0  0  0  0  0  0  0  0
   17.8887   20.0805   23.2109 H   0  0  0  0  0  0  0  0  0  0  0  0
   19.4689   20.7275   23.6504 H   0  0  0  0  0  0  0  0  0  0  0  0
   19.5431   18.7803   22.6764 C   0  0  0  0  0  0  0  0  0  0  0  0
   18.9492   17.8562   22.6571 H   0  0  0  0  0  0  0  0  0  0  0  0
   20.5347   18.5134   23.0674 H   0  0  0  0  0  0  0  0  0  0  0  0
   19.6887   19.3308   21.2414 C   0  0  0  0  0  0  0  0  0  0  0  0
   18.6981   19.5958   20.8472 H   0  0  0  0  0  0  0  0  0  0  0  0
   20.2827   20.2549   21.2616 H   0  0  0  0  0  0  0  0  0  0  0  0
   20.3600   18.3076   20.3015 C   0  0  0  0  0  0  0  0  0  0  0  0
   19.7678   17.3823   20.2775 H   0  0  0  0  0  0  0  0  0  0  0  0
   21.3522   18.0416   20.6917 H   0  0  0  0  0  0  0  0  0  0  0  0
   20.5041   18.8610   18.8695 C   0  0  0  0  0  0  0  0  0  0  0  0
   19.5227   19.1061   18.4426 H   0  0  0  0  0  0  0  0  0  0  0  0
   20.9830   18.1210   18.2152 H   0  0  0  0  0  0  0  0  0  0  0  0
   21.1191   19.7704   18.8599 H   0  0  0  0  0  0  0  0  0  0  0  0
  1  2  1  0  0  0  0
  1  3  2  0  0  0  0
  1  4  1  0  0  0  0
  4  5  1  0  0  0  0
  4  6  1  0  0  0  0
  4  7  1  0  0  0  0
  7  8  1  0  0  0  0
  7  9  1  0  0  0  0
  7 10  1  0  0  0  0
 10 11  1  0  0  0  0
 10 12  1  0  0  0  0
 10 13  1  0  0  0  0
 13 14  1  0  0  0  0
 13 15  1  0  0  0  0
 13 16  1  0  0  0  0
 16 17  1  0  0  0  0
 16 18  1  0  0  0  0
 16 19  1  0  0  0  0
 19 20  1  0  0  0  0
 19 21  1  0  0  0  0
 19 22  1  0  0  0  0
M  END
> <VM2 Rank>
8

> <Conf_Id>
134

> <Probability>
2.88

> <Sum Probability>
78.36

> <Delta G>
1.444

> <G>
-15.555

> <E>
-35.435

> <-TS>
19.880

> <U+W>
-53.320

> <U>
7.937

> <W>
-61.257

> <W(PB)>
-63.561

> <W(SA)>
2.304

> <Valence>
7.358

> <Coulomb>
-0.021

> <VdW>
0.600

> <VdW6>
-7.363

> <VdW12>
7.964

> <Bond>
0.121

> <Angle>
2.425

> <Pdih>
4.811

> <Idih>
0.001

> <Tether>
0.000

$$$$
VeraChem MOL file


 22 21  0  0  0  0  0  0  0  0999 V2000     
   19.5407   19.1475   25.7849 C   0  0  0  0  0  0  0  0  0  0  0  0
   19.5087   20.2905   26.1967 O   0  5  0  0  0  0  0  0  0  0  0  0
   18.6068   18.3749   25.8728 O   0  0  0  0  0  0  0  0  0  0  0  0
   20.8317   18.6517   25.1394 C   0  0  0  0  0  0  0  0  0  0  0  0
   20.8256   17.5550   25.1417 H   0  0  0  0  0  0  0  0  0  0  0  0
   21.6618   18.9659   25.7831 H   0  0  0  0  0  0  0  0  0  0  0  0
   21.0621   19.1830   23.7008 C   0  0  0  0  0  0  0  0  0  0  0  0
   21.0375   20.2816   23.7102 H   0  0  0  0  0  0  0  0  0  0  0  0
   22.0684   18.8921   23.3703 H   0  0  0  0  0  0  0  0  0  0  0  0
   20.0202   18.6448   22.6946 C   0  0  0  0  0  0  0  0  0  0  0  0
   19.0115   18.9466   23.0092 H   0  0  0  0  0  0  0  0  0  0  0  0
   20.0394   17.5463   22.6987 H   0  0  0  0  0  0  0  0  0  0  0  0
   20.2871   19.1607   21.2642 C   0  0  0  0  0  0  0  0  0  0  0  0
   20.2677   20.2592   21.2609 H   0  0  0  0  0  0  0  0  0  0  0  0
   21.2942   18.8576   20.9462 H   0  0  0  0  0  0  0  0  0  0  0  0
   19.2466   18.6242   20.2589 C   0  0  0  0  0  0  0  0  0  0  0  0
   18.2380   18.9271   20.5728 H   0  0  0  0  0  0  0  0  0  0  0  0
   19.2642   17.5255   20.2583 H   0  0  0  0  0  0  0  0  0  0  0  0
   19.5162   19.1417   18.8318 C   0  0  0  0  0  0  0  0  0  0  0  0
   20.5072   18.8261   18.4801 H   0  0  0  0  0  0  0  0  0  0  0  0
   19.4732   20.2383   18.7970 H   0  0  0  0  0  0  0  0  0  0  0  0
   18.7674   18.7508   18.1306 H   0  0  0  0  0  0  0  0  0  0  0  0
  1  2  1  0  0  0  0
  1  3  2  0  0  0  0
  1  4  1  0  0  0  0
  4  5  1  0  0  0  0
  4  6  1  0  0  0  0
  4  7  1  0  0  0  0
  7  8  1  0  0  0  0
  7  9  1  0  0  0  0
  7 10  1  0  0  0  0
 10 11  1  0  0  0  0
 10 12  1  0  0  0  0
 10 13  1  0  0  0  0
 13 14  1  0  0  0  0
 13 15  1  0  0  0  0
 13 16  1  0  0  0  0
 16 17  1  0  0  0  0
 16 18  1  0  0  0  0
 16 19  1  0  0  0  0
 19 20  1  0  0  0  0
 19 21  1  0  0  0  0
 19 22  1  0  0  0  0
M  END
> <VM2 Rank>
9

> <Conf_Id>
297

> <Probability>
2.79

> <Sum Probability>
81.14

> <Delta G>
1.464

> <G>
-15.535

> <E>
-35.414

> <-TS>
19.880

> <U+W>
-53.299

> <U>
7.937

> <W>
-61.236

> <W(PB)>
-63.533

> <W(SA)>
2.297

> <Valence>
7.358

> <Coulomb>
-0.022

> <VdW>
0.600

> <VdW6>
-7.363

> <VdW12>
7.963

> <Bond>
0.121

> <Angle>
2.425

> <Pdih>
4.811

> <Idih>
0.000

> <Tether>
0.000

$$$$
VeraChem MOL file


 22 21  0  0  0  0  0  0  0  0999 V2000     
   19.5828   19.1075   25.9231 C   0  0  0  0  0  0  0  0  0  0  0  0
   19.6062   20.2422   26.3573 O   0  5  0  0  0  0  0  0  0  0  0  0
   19.7025   18.1185   26.6188 O   0  0  0  0  0  0  0  0  0  0  0  0
   19.4169   18.9147   24.4200 C   0  0  0  0  0  0  0  0  0  0  0  0
   18.7811   19.7259   24.0477 H   0  0  0  0  0  0  0  0  0  0  0  0
   18.8761   17.9752   24.2550 H   0  0  0  0  0  0  0  0  0  0  0  0
   20.7712   18.8919   23.6648 C   0  0  0  0  0  0  0  0  0  0  0  0
   21.2843   19.8537   23.8025 H   0  0  0  0  0  0  0  0  0  0  0  0
   21.4167   18.1281   24.1201 H   0  0  0  0  0  0  0  0  0  0  0  0
   20.6294   18.5859   22.1548 C   0  0  0  0  0  0  0  0  0  0  0  0
   20.1342   17.6141   22.0286 H   0  0  0  0  0  0  0  0  0  0  0  0
   21.6343   18.4831   21.7232 H   0  0  0  0  0  0  0  0  0  0  0  0
   19.8563   19.6797   21.3784 C   0  0  0  0  0  0  0  0  0  0  0  0
   18.8114   19.7127   21.7135 H   0  0  0  0  0  0  0  0  0  0  0  0
   20.2915   20.6607   21.6128 H   0  0  0  0  0  0  0  0  0  0  0  0
   19.8899   19.4802   19.8453 C   0  0  0  0  0  0  0  0  0  0  0  0
   20.9315   19.4626   19.4958 H   0  0  0  0  0  0  0  0  0  0  0  0
   19.4166   20.3482   19.3660 H   0  0  0  0  0  0  0  0  0  0  0  0
   19.1648   18.1983   19.3815 C   0  0  0  0  0  0  0  0  0  0  0  0
   19.6718   17.2969   19.7479 H   0  0  0  0  0  0  0  0  0  0  0  0
   19.1426   18.1450   18.2854 H   0  0  0  0  0  0  0  0  0  0  0  0
   18.1280   18.1813   19.7419 H   0  0  0  0  0  0  0  0  0  0  0  0
  1  2  1  0  0  0  0
  1  3  2  0  0  0  0
  1  4  1  0  0  0  0
  4  5  1  0  0  0  0
  4  6  1  0  0  0  0
  4  7  1  0  0  0  0
  7  8  1  0  0  0  0
  7  9  1  0  0  0  0
  7 10  1  0  0  0  0
 10 11  1  0  0  0  0
 10 12  1  0  0  0  0
 10 13  1  0  0  0  0
 13 14  1  0  0  0  0
 13 15  1  0  0  0  0
 13 16  1  0  0  0  0
 16 17  1  0  0  0  0
 16 18  1  0  0  0  0
 16 19  1  0  0  0  0
 19 20  1  0  0  0  0
 19 21  1  0  0  0  0
 19 22  1  0  0  0  0
M  END
> <VM2 Rank>
10

> <Conf_Id>
661

> <Probability>
1.65

> <Sum Probability>
82.79

> <Delta G>
1.777

> <G>
-15.221

> <E>
-35.031

> <-TS>
19.810

> <U+W>
-52.916

> <U>
7.600

> <W>
-60.516

> <W(PB)>
-62.798

> <W(SA)>
2.282

> <Valence>
8.094

> <Coulomb>
-1.473

> <VdW>
0.979

> <VdW6>
-7.827

> <VdW12>
8.806

> <Bond>
0.173

> <Angle>
2.687

> <Pdih>
5.233

> <Idih>
0.001

> <Tether>
0.000

$$$$
VeraChem MOL file


 22 21  0  0  0  0  0  0  0  0999 V2000     
   19.8254   19.1168   26.2070 C   0  0  0  0  0  0  0  0  0  0  0  0
   20.5310   20.1068   26.2306 O   0  5  0  0  0  0  0  0  0  0  0  0
   19.4086   18.5752   27.2114 O   0  0  0  0  0  0  0  0  0  0  0  0
   19.4267   18.5007   24.8650 C   0  0  0  0  0  0  0  0  0  0  0  0
   18.3312   18.4811   24.8268 H   0  0  0  0  0  0  0  0  0  0  0  0
   19.7664   17.4584   24.8699 H   0  0  0  0  0  0  0  0  0  0  0  0
   19.9822   19.2273   23.6112 C   0  0  0  0  0  0  0  0  0  0  0  0
   19.6433   20.2726   23.6157 H   0  0  0  0  0  0  0  0  0  0  0  0
   21.0798   19.2488   23.6588 H   0  0  0  0  0  0  0  0  0  0  0  0
   19.5322   18.5409   22.3032 C   0  0  0  0  0  0  0  0  0  0  0  0
   18.4346   18.5207   22.2579 H   0  0  0  0  0  0  0  0  0  0  0  0
   19.8719   17.4961   22.3011 H   0  0  0  0  0  0  0  0  0  0  0  0
   20.0859   19.2652   21.0574 C   0  0  0  0  0  0  0  0  0  0  0  0
   19.7464   20.3102   21.0591 H   0  0  0  0  0  0  0  0  0  0  0  0
   21.1835   19.2857   21.1022 H   0  0  0  0  0  0  0  0  0  0  0  0
   19.6365   18.5799   19.7499 C   0  0  0  0  0  0  0  0  0  0  0  0
   18.5390   18.5594   19.7006 H   0  0  0  0  0  0  0  0  0  0  0  0
   19.9760   17.5348   19.7437 H   0  0  0  0  0  0  0  0  0  0  0  0
   20.1916   19.3061   18.5082 C   0  0  0  0  0  0  0  0  0  0  0  0
   19.8416   20.3461   18.4723 H   0  0  0  0  0  0  0  0  0  0  0  0
   19.8625   18.8059   17.5881 H   0  0  0  0  0  0  0  0  0  0  0  0
   21.2895   19.3138   18.5158 H   0  0  0  0  0  0  0  0  0  0  0  0
  1  2  1  0  0  0  0
  1  3  2  0  0  0  0
  1  4  1  0  0  0  0
  4  5  1  0  0  0  0
  4  6  1  0  0  0  0
  4  7  1  0  0  0  0
  7  8  1  0  0  0  0
  7  9  1  0  0  0  0
  7 10  1  0  0  0  0
 10 11  1  0  0  0  0
 10 12  1  0  0  0  0
 10 13  1  0  0  0  0
 13 14  1  0  0  0  0
 13 15  1  0  0  0  0
 13 16  1  0  0  0  0
 16 17  1  0  0  0  0
 16 18  1  0  0  0  0
 16 19  1  0  0  0  0
 19 20  1  0  0  0  0
 19 21  1  0  0  0  0
 19 22  1  0  0  0  0
M  END
> <VM2 Rank>
11

> <Conf_Id>
0

> <Probability>
1.56

> <Sum Probability>
84.36

> <Delta G>
1.808

> <G>
-15.190

> <E>
-35.274

> <-TS>
20.084

> <U+W>
-53.159

> <U>
6.763

> <W>
-59.922

> <W(PB)>
-62.256

> <W(SA)>
2.334

> <Valence>
7.600

> <Coulomb>
-2.139

> <VdW>
1.302

> <VdW6>
-6.786

> <VdW12>
8.088

> <Bond>
0.134

> <Angle>
2.720

> <Pdih>
4.746

> <Idih>
0.000

> <Tether>
0.000

$$$$
VeraChem MOL file


 22 21  0  0  0  0  0  0  0  0999 V2000     
   19.7290   19.2105   25.9882 C   0  0  0  0  0  0  0  0  0  0  0  0
   20.0549   20.3279   26.3373 O   0  5  0  0  0  0  0  0  0  0  0  0
   19.7207   18.2492   26.7314 O   0  0  0  0  0  0  0  0  0  0  0  0
   19.3301   18.9984   24.5322 C   0  0  0  0  0  0  0  0  0  0  0  0
   18.8409   19.9151   24.1846 H   0  0  0  0  0  0  0  0  0  0  0  0
   18.5825   18.1969   24.4978 H   0  0  0  0  0  0  0  0  0  0  0  0
   20.5373   18.6432   23.6255 C   0  0  0  0  0  0  0  0  0  0  0  0
   21.2567   19.4738   23.6290 H   0  0  0  0  0  0  0  0  0  0  0  0
   21.0597   17.7792   24.0593 H   0  0  0  0  0  0  0  0  0  0  0  0
   20.1408   18.3006   22.1694 C   0  0  0  0  0  0  0  0  0  0  0  0
   19.4155   17.4756   22.1700 H   0  0  0  0  0  0  0  0  0  0  0  0
   21.0349   17.9288   21.6528 H   0  0  0  0  0  0  0  0  0  0  0  0
   19.5606   19.5063   21.3898 C   0  0  0  0  0  0  0  0  0  0  0  0
   18.6647   19.8770   21.9036 H   0  0  0  0  0  0  0  0  0  0  0  0
   20.2853   20.3318   21.3910 H   0  0  0  0  0  0  0  0  0  0  0  0
   19.1688   19.1645   19.9332 C   0  0  0  0  0  0  0  0  0  0  0  0
   18.6443   20.0269   19.4991 H   0  0  0  0  0  0  0  0  0  0  0  0
   18.4527   18.3312   19.9271 H   0  0  0  0  0  0  0  0  0  0  0  0
   20.3777   18.8185   19.0369 C   0  0  0  0  0  0  0  0  0  0  0  0
   21.1236   19.6238   19.0550 H   0  0  0  0  0  0  0  0  0  0  0  0
   20.0562   18.6796   17.9965 H   0  0  0  0  0  0  0  0  0  0  0  0
   20.8646   17.8900   19.3596 H   0  0  0  0  0  0  0  0  0  0  0  0
  1  2  1  0  0  0  0
  1  3  2  0  0  0  0
  1  4  1  0  0  0  0
  4  5  1  0  0  0  0
  4  6  1  0  0  0  0
  4  7  1  0  0  0  0
  7  8  1  0  0  0  0
  7  9  1  0  0  0  0
  7 10  1  0  0  0  0
 10 11  1  0  0  0  0
 10 12  1  0  0  0  0
 10 13  1  0  0  0  0
 13 14  1  0  0  0  0
 13 15  1  0  0  0  0
 13 16  1  0  0  0  0
 16 17  1  0  0  0  0
 16 18  1  0  0  0  0
 16 19  1  0  0  0  0
 19 20  1  0  0  0  0
 19 21  1  0  0  0  0
 19 22  1  0  0  0  0
M  END
> <VM2 Rank>
12

> <Conf_Id>
470

> <Probability>
1.56

> <Sum Probability>
85.92

> <Delta G>
1.809

> <G>
-15.189

> <E>
-34.924

> <-TS>
19.735

> <U+W>
-52.809

> <U>
7.689

> <W>
-60.498

> <W(PB)>
-62.768

> <W(SA)>
2.270

> <Valence>
8.197

> <Coulomb>
-1.561

> <VdW>
1.053

> <VdW6>
-7.737

> <VdW12>
8.790

> <Bond>
0.181

> <Angle>
2.780

> <Pdih>
5.235

> <Idih>
0.001

> <Tether>
0.000

$$$$
VeraChem MOL file


 22 21  0  0  0  0  0  0  0  0999 V2000     
   19.5825   19.1135   25.9229 C   0  0  0  0  0  0  0  0  0  0  0  0
   19.5921   20.1599   26.5406 O   0  5  0  0  0  0  0  0  0  0  0  0
   19.7261   18.0244   26.4423 O   0  0  0  0  0  0  0  0  0  0  0  0
   19.4030   19.1721   24.4101 C   0  0  0  0  0  0  0  0  0  0  0  0
   18.7652   20.0328   24.1761 H   0  0  0  0  0  0  0  0  0  0  0  0
   18.8594   18.2713   24.1036 H   0  0  0  0  0  0  0  0  0  0  0  0
   20.7501   19.2823   23.6498 C   0  0  0  0  0  0  0  0  0  0  0  0
   21.3081   20.1435   24.0428 H   0  0  0  0  0  0  0  0  0  0  0  0
   21.3629   18.3945   23.8585 H   0  0  0  0  0  0  0  0  0  0  0  0
   20.5825   19.4551   22.1214 C   0  0  0  0  0  0  0  0  0  0  0  0
   21.5723   19.6318   21.6791 H   0  0  0  0  0  0  0  0  0  0  0  0
   19.9864   20.3556   21.9235 H   0  0  0  0  0  0  0  0  0  0  0  0
   19.9344   18.2285   21.4340 C   0  0  0  0  0  0  0  0  0  0  0  0
   20.4714   17.3207   21.7410 H   0  0  0  0  0  0  0  0  0  0  0  0
   18.8977   18.1094   21.7749 H   0  0  0  0  0  0  0  0  0  0  0  0
   19.9528   18.3128   19.8901 C   0  0  0  0  0  0  0  0  0  0  0  0
   19.5771   17.3651   19.4804 H   0  0  0  0  0  0  0  0  0  0  0  0
   20.9879   18.4152   19.5360 H   0  0  0  0  0  0  0  0  0  0  0  0
   19.0964   19.4704   19.3327 C   0  0  0  0  0  0  0  0  0  0  0  0
   18.0623   19.4038   19.6951 H   0  0  0  0  0  0  0  0  0  0  0  0
   19.0731   19.4371   18.2358 H   0  0  0  0  0  0  0  0  0  0  0  0
   19.5024   20.4463   19.6270 H   0  0  0  0  0  0  0  0  0  0  0  0
  1  2  1  0  0  0  0
  1  3  2  0  0  0  0
  1  4  1  0  0  0  0
  4  5  1  0  0  0  0
  4  6  1  0  0  0  0
  4  7  1  0  0  0  0
  7  8  1  0  0  0  0
  7  9  1  0  0  0  0
  7 10  1  0  0  0  0
 10 11  1  0  0  0  0
 10 12  1  0  0  0  0
 10 13  1  0  0  0  0
 13 14  1  0  0  0  0
 13 15  1  0  0  0  0
 13 16  1  0  0  0  0
 16 17  1  0  0  0  0
 16 18  1  0  0  0  0
 16 19  1  0  0  0  0
 19 20  1  0  0  0  0
 19 21  1  0  0  0  0
 19 22  1  0  0  0  0
M  END
> <VM2 Rank>
13

> <Conf_Id>
368

> <Probability>
1.56

> <Sum Probability>
87.48

> <Delta G>
1.810

> <G>
-15.188

> <E>
-34.998

> <-TS>
19.810

> <U+W>
-52.883

> <U>
7.600

> <W>
-60.483

> <W(PB)>
-62.769

> <W(SA)>
2.286

> <Valence>
8.094

> <Coulomb>
-1.473

> <VdW>
0.979

> <VdW6>
-7.827

> <VdW12>
8.806

> <Bond>
0.173

> <Angle>
2.687

> <Pdih>
5.233

> <Idih>
0.001

> <Tether>
0.000

$$$$
VeraChem MOL file


 22 21  0  0  0  0  0  0  0  0999 V2000     
   19.7386   19.0320   25.9951 C   0  0  0  0  0  0  0  0  0  0  0  0
   19.6239   20.0408   26.6627 O   0  5  0  0  0  0  0  0  0  0  0  0
   20.1815   17.9862   26.4271 O   0  0  0  0  0  0  0  0  0  0  0  0
   19.3252   19.0882   24.5287 C   0  0  0  0  0  0  0  0  0  0  0  0
   18.4959   19.7996   24.4363 H   0  0  0  0  0  0  0  0  0  0  0  0
   18.9390   18.1004   24.2542 H   0  0  0  0  0  0  0  0  0  0  0  0
   20.4910   19.5010   23.5926 C   0  0  0  0  0  0  0  0  0  0  0  0
   20.9155   20.4467   23.9570 H   0  0  0  0  0  0  0  0  0  0  0  0
   21.2955   18.7554   23.6566 H   0  0  0  0  0  0  0  0  0  0  0  0
   20.0659   19.6867   22.1163 C   0  0  0  0  0  0  0  0  0  0  0  0
   20.9169   20.1119   21.5691 H   0  0  0  0  0  0  0  0  0  0  0  0
   19.2561   20.4264   22.0568 H   0  0  0  0  0  0  0  0  0  0  0  0
   19.6221   18.3696   21.4334 C   0  0  0  0  0  0  0  0  0  0  0  0
   20.4313   17.6293   21.4947 H   0  0  0  0  0  0  0  0  0  0  0  0
   18.7691   17.9449   21.9777 H   0  0  0  0  0  0  0  0  0  0  0  0
   19.2017   18.5549   19.9566 C   0  0  0  0  0  0  0  0  0  0  0  0
   18.4001   19.3034   19.8898 H   0  0  0  0  0  0  0  0  0  0  0  0
   18.7749   17.6105   19.5917 H   0  0  0  0  0  0  0  0  0  0  0  0
   20.3701   18.9595   19.0315 C   0  0  0  0  0  0  0  0  0  0  0  0
   20.7529   19.9569   19.2804 H   0  0  0  0  0  0  0  0  0  0  0  0
   20.0398   18.9832   17.9849 H   0  0  0  0  0  0  0  0  0  0  0  0
   21.1982   18.2430   19.1080 H   0  0  0  0  0  0  0  0  0  0  0  0
  1  2  1  0  0  0  0
  1  3  2  0  0  0  0
  1  4  1  0  0  0  0
  4  5  1  0  0  0  0
  4  6  1  0  0  0  0
  4  7  1  0  0  0  0
  7  8  1  0  0  0  0
  7  9  1  0  0  0  0
  7 10  1  0  0  0  0
 10 11  1  0  0  0  0
 10 12  1  0  0  0  0
 10 13  1  0  0  0  0
 13 14  1  0  0  0  0
 13 15  1  0  0  0  0
 13 16  1  0  0  0  0
 16 17  1  0  0  0  0
 16 18  1  0  0  0  0
 16 19  1  0  0  0  0
 19 20  1  0  0  0  0
 19 21  1  0  0  0  0
 19 22  1  0  0  0  0
M  END
> <VM2 Rank>
14

> <Conf_Id>
187

> <Probability>
1.49

> <Sum Probability>
88.97

> <Delta G>
1.837

> <G>
-15.161

> <E>
-34.896

> <-TS>
19.735

> <U+W>
-52.781

> <U>
7.689

> <W>
-60.470

> <W(PB)>
-62.779

> <W(SA)>
2.309

> <Valence>
8.197

> <Coulomb>
-1.561

> <VdW>
1.053

> <VdW6>
-7.737

> <VdW12>
8.791

> <Bond>
0.181

> <Angle>
2.780

> <Pdih>
5.235

> <Idih>
0.001

> <Tether>
0.000

$$$$
VeraChem MOL file


 22 21  0  0  0  0  0  0  0  0999 V2000     
   19.9998   18.9457   25.8523 C   0  0  0  0  0  0  0  0  0  0  0  0
   20.0428   19.9723   26.5008 O   0  5  0  0  0  0  0  0  0  0  0  0
   20.6759   17.9662   26.0973 O   0  0  0  0  0  0  0  0  0  0  0  0
   19.0587   18.8899   24.6542 C   0  0  0  0  0  0  0  0  0  0  0  0
   18.1791   19.5034   24.8832 H   0  0  0  0  0  0  0  0  0  0  0  0
   18.7122   17.8556   24.5406 H   0  0  0  0  0  0  0  0  0  0  0  0
   19.7241   19.3765   23.3432 C   0  0  0  0  0  0  0  0  0  0  0  0
   20.0737   20.4097   23.4748 H   0  0  0  0  0  0  0  0  0  0  0  0
   20.6111   18.7601   23.1456 H   0  0  0  0  0  0  0  0  0  0  0  0
   18.7505   19.3036   22.1443 C   0  0  0  0  0  0  0  0  0  0  0  0
   17.8373   19.8618   22.3918 H   0  0  0  0  0  0  0  0  0  0  0  0
   18.4370   18.2638   21.9832 H   0  0  0  0  0  0  0  0  0  0  0  0
   19.3382   19.8876   20.8350 C   0  0  0  0  0  0  0  0  0  0  0  0
   18.5674   19.8447   20.0535 H   0  0  0  0  0  0  0  0  0  0  0  0
   19.5557   20.9535   20.9875 H   0  0  0  0  0  0  0  0  0  0  0  0
   20.6176   19.1879   20.3134 C   0  0  0  0  0  0  0  0  0  0  0  0
   21.4366   19.3082   21.0349 H   0  0  0  0  0  0  0  0  0  0  0  0
   20.9448   19.6966   19.3963 H   0  0  0  0  0  0  0  0  0  0  0  0
   20.4126   17.6894   20.0035 C   0  0  0  0  0  0  0  0  0  0  0  0
   20.1973   17.1195   20.9162 H   0  0  0  0  0  0  0  0  0  0  0  0
   21.3173   17.2633   19.5510 H   0  0  0  0  0  0  0  0  0  0  0  0
   19.5816   17.5435   19.3012 H   0  0  0  0  0  0  0  0  0  0  0  0
  1  2  1  0  0  0  0
  1  3  2  0  0  0  0
  1  4  1  0  0  0  0
  4  5  1  0  0  0  0
  4  6  1  0  0  0  0
  4  7  1  0  0  0  0
  7  8  1  0  0  0  0
  7  9  1  0  0  0  0
  7 10  1  0  0  0  0
 10 11  1  0  0  0  0
 10 12  1  0  0  0  0
 10 13  1  0  0  0  0
 13 14  1  0  0  0  0
 13 15  1  0  0  0  0
 13 16  1  0  0  0  0
 16 17  1  0  0  0  0
 16 18  1  0  0  0  0
 16 19  1  0  0  0  0
 19 20  1  0  0  0  0
 19 21  1  0  0  0  0
 19 22  1  0  0  0  0
M  END
> <VM2 Rank>
15

> <Conf_Id>
592

> <Probability>
1.18

> <Sum Probability>
90.15

> <Delta G>
1.976

> <G>
-15.022

> <E>
-34.996

> <-TS>
19.974

> <U+W>
-52.881

> <U>
8.103

> <W>
-60.984

> <W(PB)>
-63.232

> <W(SA)>
2.248

> <Valence>
8.053

> <Coulomb>
-0.790

> <VdW>
0.841

> <VdW6>
-8.065

> <VdW12>
8.905

> <Bond>
0.172

> <Angle>
2.892

> <Pdih>
4.988

> <Idih>
0.000

> <Tether>
0.000

$$$$
VeraChem MOL file


 22 21  0  0  0  0  0  0  0  0999 V2000     
   19.8831   19.4766   25.6607 C   0  0  0  0  0  0  0  0  0  0  0  0
   20.7171   20.3603   25.6648 O   0  5  0  0  0  0  0  0  0  0  0  0
   19.5280   18.8822   26.6594 O   0  0  0  0  0  0  0  0  0  0  0  0
   19.2641   19.0760   24.3265 C   0  0  0  0  0  0  0  0  0  0  0  0
   19.2030   19.9759   23.7040 H   0  0  0  0  0  0  0  0  0  0  0  0
   18.2378   18.7385   24.5140 H   0  0  0  0  0  0  0  0  0  0  0  0
   20.0682   17.9663   23.6010 C   0  0  0  0  0  0  0  0  0  0  0  0
   21.0823   18.3286   23.3861 H   0  0  0  0  0  0  0  0  0  0  0  0
   20.1895   17.1146   24.2844 H   0  0  0  0  0  0  0  0  0  0  0  0
   19.3938   17.4622   22.3002 C   0  0  0  0  0  0  0  0  0  0  0  0
   18.4314   16.9985   22.5559 H   0  0  0  0  0  0  0  0  0  0  0  0
   20.0110   16.6613   21.8705 H   0  0  0  0  0  0  0  0  0  0  0  0
   19.1517   18.5438   21.2174 C   0  0  0  0  0  0  0  0  0  0  0  0
   18.6607   18.0676   20.3578 H   0  0  0  0  0  0  0  0  0  0  0  0
   18.4458   19.2974   21.5903 H   0  0  0  0  0  0  0  0  0  0  0  0
   20.4467   19.2352   20.7351 C   0  0  0  0  0  0  0  0  0  0  0  0
   21.1705   18.4775   20.4047 H   0  0  0  0  0  0  0  0  0  0  0  0
   20.9121   19.7840   21.5647 H   0  0  0  0  0  0  0  0  0  0  0  0
   20.1672   20.2165   19.5790 C   0  0  0  0  0  0  0  0  0  0  0  0
   21.0956   20.7017   19.2507 H   0  0  0  0  0  0  0  0  0  0  0  0
   19.4666   21.0018   19.8919 H   0  0  0  0  0  0  0  0  0  0  0  0
   19.7343   19.6943   18.7158 H   0  0  0  0  0  0  0  0  0  0  0  0
  1  2  1  0  0  0  0
  1  3  2  0  0  0  0
  1  4  1  0  0  0  0
  4  5  1  0  0  0  0
  4  6  1  0  0  0  0
  4  7  1  0  0  0  0
  7  8  1  0  0  0  0
  7  9  1  0  0  0  0
  7 10  1  0  0  0  0
 10 11  1  0  0  0  0
 10 12  1  0  0  0  0
 10 13  1  0  0  0  0
 13 14  1  0  0  0  0
 13 15  1  0  0  0  0
 13 16  1  0  0  0  0
 16 17  1  0  0  0  0
 16 18  1  0  0  0  0
 16 19  1  0  0  0  0
 19 20  1  0  0  0  0
 19 21  1  0  0  0  0
 19 22  1  0  0  0  0
M  END
> <VM2 Rank>
16

> <Conf_Id>
684

> <Probability>
1.16

> <Sum Probability>
91.31

> <Delta G>
1.985

> <G>
-15.013

> <E>
-35.017

> <-TS>
20.005

> <U+W>
-52.902

> <U>
8.061

> <W>
-60.964

> <W(PB)>
-63.249

> <W(SA)>
2.285

> <Valence>
8.062

> <Coulomb>
-0.784

> <VdW>
0.783

> <VdW6>
-8.229

> <VdW12>
9.011

> <Bond>
0.183

> <Angle>
2.910

> <Pdih>
4.969

> <Idih>
0.001

> <Tether>
0.000

$$$$
VeraChem MOL file


 22 21  0  0  0  0  0  0  0  0999 V2000     
   19.8946   18.8879   25.8540 C   0  0  0  0  0  0  0  0  0  0  0  0
   19.0218   19.4120   26.5173 O   0  5  0  0  0  0  0  0  0  0  0  0
   20.3643   17.7952   26.1027 O   0  0  0  0  0  0  0  0  0  0  0  0
   20.4168   19.6352   24.6320 C   0  0  0  0  0  0  0  0  0  0  0  0
   21.4722   19.3703   24.4957 H   0  0  0  0  0  0  0  0  0  0  0  0
   20.3772   20.7097   24.8474 H   0  0  0  0  0  0  0  0  0  0  0  0
   19.6165   19.3174   23.3449 C   0  0  0  0  0  0  0  0  0  0  0  0
   19.6552   18.2355   23.1611 H   0  0  0  0  0  0  0  0  0  0  0  0
   18.5607   19.5794   23.4994 H   0  0  0  0  0  0  0  0  0  0  0  0
   20.1706   20.0828   22.1211 C   0  0  0  0  0  0  0  0  0  0  0  0
   21.2117   19.7863   21.9379 H   0  0  0  0  0  0  0  0  0  0  0  0
   20.1962   21.1562   22.3533 H   0  0  0  0  0  0  0  0  0  0  0  0
   19.3297   19.8830   20.8351 C   0  0  0  0  0  0  0  0  0  0  0  0
   18.3179   20.2744   21.0076 H   0  0  0  0  0  0  0  0  0  0  0  0
   19.7602   20.4992   20.0340 H   0  0  0  0  0  0  0  0  0  0  0  0
   19.2198   18.4209   20.3362 C   0  0  0  0  0  0  0  0  0  0  0  0
   18.5923   18.4058   19.4346 H   0  0  0  0  0  0  0  0  0  0  0  0
   18.6968   17.8049   21.0795 H   0  0  0  0  0  0  0  0  0  0  0  0
   20.5859   17.7845   20.0007 C   0  0  0  0  0  0  0  0  0  0  0  0
   21.1375   18.3972   19.2759 H   0  0  0  0  0  0  0  0  0  0  0  0
   20.4482   16.7864   19.5652 H   0  0  0  0  0  0  0  0  0  0  0  0
   21.2049   17.6724   20.8998 H   0  0  0  0  0  0  0  0  0  0  0  0
  1  2  1  0  0  0  0
  1  3  2  0  0  0  0
  1  4  1  0  0  0  0
  4  5  1  0  0  0  0
  4  6  1  0  0  0  0
  4  7  1  0  0  0  0
  7  8  1  0  0  0  0
  7  9  1  0  0  0  0
  7 10  1  0  0  0  0
 10 11  1  0  0  0  0
 10 12  1  0  0  0  0
 10 13  1  0  0  0  0
 13 14  1  0  0  0  0
 13 15  1  0  0  0  0
 13 16  1  0  0  0  0
 16 17  1  0  0  0  0
 16 18  1  0  0  0  0
 16 19  1  0  0  0  0
 19 20  1  0  0  0  0
 19 21  1  0  0  0  0
 19 22  1  0  0  0  0
M  END
> <VM2 Rank>
17

> <Conf_Id>
51

> <Probability>
1.13

> <Sum Probability>
92.44

> <Delta G>
2.001

> <G>
-14.998

> <E>
-34.971

> <-TS>
19.974

> <U+W>
-52.856

> <U>
8.103

> <W>
-60.959

> <W(PB)>
-63.238

> <W(SA)>
2.279

> <Valence>
8.053

> <Coulomb>
-0.791

> <VdW>
0.841

> <VdW6>
-8.065

> <VdW12>
8.906

> <Bond>
0.172

> <Angle>
2.891

> <Pdih>
4.989

> <Idih>
0.000

> <Tether>
0.000

$$$$
VeraChem MOL file


 22 21  0  0  0  0  0  0  0  0999 V2000     
   19.5977   19.2734   25.6791 C   0  0  0  0  0  0  0  0  0  0  0  0
   19.4198   20.4670   25.8233 O   0  5  0  0  0  0  0  0  0  0  0  0
   18.8099   18.4264   26.0516 O   0  0  0  0  0  0  0  0  0  0  0  0
   20.8918   18.8147   25.0130 C   0  0  0  0  0  0  0  0  0  0  0  0
   21.0669   17.7641   25.2745 H   0  0  0  0  0  0  0  0  0  0  0  0
   21.7118   19.3925   25.4555 H   0  0  0  0  0  0  0  0  0  0  0  0
   20.9047   18.9935   23.4726 C   0  0  0  0  0  0  0  0  0  0  0  0
   20.7086   20.0475   23.2354 H   0  0  0  0  0  0  0  0  0  0  0  0
   21.9104   18.7644   23.0952 H   0  0  0  0  0  0  0  0  0  0  0  0
   19.8733   18.0843   22.7626 C   0  0  0  0  0  0  0  0  0  0  0  0
   18.8568   18.3529   23.0818 H   0  0  0  0  0  0  0  0  0  0  0  0
   20.0333   17.0456   23.0826 H   0  0  0  0  0  0  0  0  0  0  0  0
   19.9608   18.1419   21.2190 C   0  0  0  0  0  0  0  0  0  0  0  0
   20.9742   17.8661   20.8969 H   0  0  0  0  0  0  0  0  0  0  0  0
   19.2853   17.3815   20.8037 H   0  0  0  0  0  0  0  0  0  0  0  0
   19.5845   19.5211   20.6323 C   0  0  0  0  0  0  0  0  0  0  0  0
   20.2956   20.2845   20.9741 H   0  0  0  0  0  0  0  0  0  0  0  0
   18.5924   19.8207   20.9972 H   0  0  0  0  0  0  0  0  0  0  0  0
   19.5775   19.4969   19.0905 C   0  0  0  0  0  0  0  0  0  0  0  0
   20.5664   19.2264   18.6978 H   0  0  0  0  0  0  0  0  0  0  0  0
   19.3117   20.4836   18.6895 H   0  0  0  0  0  0  0  0  0  0  0  0
   18.8474   18.7695   18.7119 H   0  0  0  0  0  0  0  0  0  0  0  0
  1  2  1  0  0  0  0
  1  3  2  0  0  0  0
  1  4  1  0  0  0  0
  4  5  1  0  0  0  0
  4  6  1  0  0  0  0
  4  7  1  0  0  0  0
  7  8  1  0  0  0  0
  7  9  1  0  0  0  0
  7 10  1  0  0  0  0
 10 11  1  0  0  0  0
 10 12  1  0  0  0  0
 10 13  1  0  0  0  0
 13 14  1  0  0  0  0
 13 15  1  0  0  0  0
 13 16  1  0  0  0  0
 16 17  1  0  0  0  0
 16 18  1  0  0  0  0
 16 19  1  0  0  0  0
 19 20  1  0  0  0  0
 19 21  1  0  0  0  0
 19 22  1  0  0  0  0
M  END
> <VM2 Rank>
18

> <Conf_Id>
68

> <Probability>
0.72

> <Sum Probability>
93.17

> <Delta G>
2.267

> <G>
-14.731

> <E>
-34.711

> <-TS>
19.981

> <U+W>
-52.596

> <U>
8.925

> <W>
-61.521

> <W(PB)>
-63.790

> <W(SA)>
2.269

> <Valence>
7.881

> <Coulomb>
0.349

> <VdW>
0.695

> <VdW6>
-8.049

> <VdW12>
8.743

> <Bond>
0.156

> <Angle>
2.660

> <Pdih>
5.065

> <Idih>
0.001

> <Tether>
0.000

$$$$
VeraChem MOL file


 22 21  0  0  0  0  0  0  0  0999 V2000     
   19.6917   19.3575   25.6658 C   0  0  0  0  0  0  0  0  0  0  0  0
   19.5125   20.5561   25.5764 O   0  5  0  0  0  0  0  0  0  0  0  0
   18.9617   18.6133   26.2904 O   0  0  0  0  0  0  0  0  0  0  0  0
   20.9117   18.7548   24.9747 C   0  0  0  0  0  0  0  0  0  0  0  0
   21.3973   18.0838   25.6930 H   0  0  0  0  0  0  0  0  0  0  0  0
   21.6252   19.5593   24.7592 H   0  0  0  0  0  0  0  0  0  0  0  0
   20.5795   17.9721   23.6777 C   0  0  0  0  0  0  0  0  0  0  0  0
   21.4870   17.4625   23.3264 H   0  0  0  0  0  0  0  0  0  0  0  0
   19.8439   17.1878   23.9045 H   0  0  0  0  0  0  0  0  0  0  0  0
   20.0416   18.8857   22.5534 C   0  0  0  0  0  0  0  0  0  0  0  0
   20.7760   19.6758   22.3498 H   0  0  0  0  0  0  0  0  0  0  0  0
   19.1215   19.3833   22.8894 H   0  0  0  0  0  0  0  0  0  0  0  0
   19.7523   18.0888   21.2605 C   0  0  0  0  0  0  0  0  0  0  0  0
   20.6807   17.6325   20.8908 H   0  0  0  0  0  0  0  0  0  0  0  0
   19.0708   17.2602   21.4969 H   0  0  0  0  0  0  0  0  0  0  0  0
   19.1151   18.9441   20.1408 C   0  0  0  0  0  0  0  0  0  0  0  0
   18.1830   19.3976   20.5052 H   0  0  0  0  0  0  0  0  0  0  0  0
   18.8342   18.2834   19.3090 H   0  0  0  0  0  0  0  0  0  0  0  0
   20.0539   20.0465   19.6045 C   0  0  0  0  0  0  0  0  0  0  0  0
   21.0055   19.6198   19.2618 H   0  0  0  0  0  0  0  0  0  0  0  0
   20.2704   20.7977   20.3744 H   0  0  0  0  0  0  0  0  0  0  0  0
   19.5908   20.5654   18.7553 H   0  0  0  0  0  0  0  0  0  0  0  0
  1  2  1  0  0  0  0
  1  3  2  0  0  0  0
  1  4  1  0  0  0  0
  4  5  1  0  0  0  0
  4  6  1  0  0  0  0
  4  7  1  0  0  0  0
  7  8  1  0  0  0  0
  7  9  1  0  0  0  0
  7 10  1  0  0  0  0
 10 11  1  0  0  0  0
 10 12  1  0  0  0  0
 10 13  1  0  0  0  0
 13 14  1  0  0  0  0
 13 15  1  0  0  0  0
 13 16  1  0  0  0  0
 16 17  1  0  0  0  0
 16 18  1  0  0  0  0
 16 19  1  0  0  0  0
 19 20  1  0  0  0  0
 19 21  1  0  0  0  0
 19 22  1  0  0  0  0
M  END
> <VM2 Rank>
19

> <Conf_Id>
172

> <Probability>
0.64

> <Sum Probability>
93.81

> <Delta G>
2.338

> <G>
-14.660

> <E>
-34.645

> <-TS>
19.985

> <U+W>
-52.530

> <U>
9.110

> <W>
-61.640

> <W(PB)>
-63.919

> <W(SA)>
2.279

> <Valence>
7.861

> <Coulomb>
0.529

> <VdW>
0.720

> <VdW6>
-7.989

> <VdW12>
8.709

> <Bond>
0.152

> <Angle>
2.653

> <Pdih>
5.056

> <Idih>
0.001

> <Tether>
0.000

$$$$
VeraChem MOL file


 22 21  0  0  0  0  0  0  0  0999 V2000     
   19.7188   18.8577   25.6850 C   0  0  0  0  0  0  0  0  0  0  0  0
   18.9104   19.5645   26.2540 O   0  5  0  0  0  0  0  0  0  0  0  0
   19.6701   17.6435   25.6882 O   0  0  0  0  0  0  0  0  0  0  0  0
   20.8695   19.5338   24.9447 C   0  0  0  0  0  0  0  0  0  0  0  0
   21.6665   18.7967   24.7884 H   0  0  0  0  0  0  0  0  0  0  0  0
   21.2771   20.3061   25.6077 H   0  0  0  0  0  0  0  0  0  0  0  0
   20.4603   20.1747   23.5931 C   0  0  0  0  0  0  0  0  0  0  0  0
   19.6435   20.8902   23.7625 H   0  0  0  0  0  0  0  0  0  0  0  0
   21.3090   20.7508   23.2003 H   0  0  0  0  0  0  0  0  0  0  0  0
   20.0286   19.1253   22.5442 C   0  0  0  0  0  0  0  0  0  0  0  0
   19.1661   18.5585   22.9211 H   0  0  0  0  0  0  0  0  0  0  0  0
   20.8447   18.4057   22.3985 H   0  0  0  0  0  0  0  0  0  0  0  0
   19.6603   19.7853   21.1954 C   0  0  0  0  0  0  0  0  0  0  0  0
   18.8925   20.5512   21.3707 H   0  0  0  0  0  0  0  0  0  0  0  0
   20.5356   20.3095   20.7881 H   0  0  0  0  0  0  0  0  0  0  0  0
   19.1238   18.7833   20.1469 C   0  0  0  0  0  0  0  0  0  0  0  0
   18.7767   19.3444   19.2683 H   0  0  0  0  0  0  0  0  0  0  0  0
   18.2445   18.2610   20.5488 H   0  0  0  0  0  0  0  0  0  0  0  0
   20.1783   17.7509   19.6924 C   0  0  0  0  0  0  0  0  0  0  0  0
   19.7773   17.1219   18.8872 H   0  0  0  0  0  0  0  0  0  0  0  0
   20.4713   17.0884   20.5164 H   0  0  0  0  0  0  0  0  0  0  0  0
   21.0797   18.2504   19.3142 H   0  0  0  0  0  0  0  0  0  0  0  0
  1  2  1  0  0  0  0
  1  3  2  0  0  0  0
  1  4  1  0  0  0  0
  4  5  1  0  0  0  0
  4  6  1  0  0  0  0
  4  7  1  0  0  0  0
  7  8  1  0  0  0  0
  7  9  1  0  0  0  0
  7 10  1  0  0  0  0
 10 11  1  0  0  0  0
 10 12  1  0  0  0  0
 10 13  1  0  0  0  0
 13 14  1  0  0  0  0
 13 15  1  0  0  0  0
 13 16  1  0  0  0  0
 16 17  1  0  0  0  0
 16 18  1  0  0  0  0
 16 19  1  0  0  0  0
 19 20  1  0  0  0  0
 19 21  1  0  0  0  0
 19 22  1  0  0  0  0
M  END
> <VM2 Rank>
20

> <Conf_Id>
179

> <Probability>
0.62

> <Sum Probability>
94.43

> <Delta G>
2.356

> <G>
-14.642

> <E>
-34.627

> <-TS>
19.985

> <U+W>
-52.512

> <U>
9.110

> <W>
-61.622

> <W(PB)>
-63.906

> <W(SA)>
2.285

> <Valence>
7.861

> <Coulomb>
0.529

> <VdW>
0.720

> <VdW6>
-7.989

> <VdW12>
8.708

> <Bond>
0.152

> <Angle>
2.653

> <Pdih>
5.056

> <Idih>
0.001

> <Tether>
0.000

$$$$
VeraChem MOL file


 22 21  0  0  0  0  0  0  0  0999 V2000     
   20.1406   18.9861   25.6063 C   0  0  0  0  0  0  0  0  0  0  0  0
   20.6498   19.9999   26.0420 O   0  5  0  0  0  0  0  0  0  0  0  0
   20.6868   17.9007   25.6181 O   0  0  0  0  0  0  0  0  0  0  0  0
   18.7289   19.0795   25.0337 C   0  0  0  0  0  0  0  0  0  0  0  0
   18.1272   19.6646   25.7392 H   0  0  0  0  0  0  0  0  0  0  0  0
   18.2951   18.0726   25.0054 H   0  0  0  0  0  0  0  0  0  0  0  0
   18.6595   19.7321   23.6285 C   0  0  0  0  0  0  0  0  0  0  0  0
   17.6058   19.8849   23.3587 H   0  0  0  0  0  0  0  0  0  0  0  0
   19.1241   20.7273   23.6659 H   0  0  0  0  0  0  0  0  0  0  0  0
   19.3456   18.8753   22.5407 C   0  0  0  0  0  0  0  0  0  0  0  0
   18.8846   17.8786   22.5138 H   0  0  0  0  0  0  0  0  0  0  0  0
   20.4016   18.7318   22.8046 H   0  0  0  0  0  0  0  0  0  0  0  0
   19.2389   19.5326   21.1453 C   0  0  0  0  0  0  0  0  0  0  0  0
   18.1815   19.7322   20.9239 H   0  0  0  0  0  0  0  0  0  0  0  0
   19.7441   20.5080   21.1563 H   0  0  0  0  0  0  0  0  0  0  0  0
   19.8220   18.6609   20.0089 C   0  0  0  0  0  0  0  0  0  0  0  0
   19.6006   19.1424   19.0464 H   0  0  0  0  0  0  0  0  0  0  0  0
   19.3156   17.6860   19.9919 H   0  0  0  0  0  0  0  0  0  0  0  0
   21.3478   18.4518   20.1205 C   0  0  0  0  0  0  0  0  0  0  0  0
   21.8738   19.4141   20.1689 H   0  0  0  0  0  0  0  0  0  0  0  0
   21.7250   17.9039   19.2473 H   0  0  0  0  0  0  0  0  0  0  0  0
   21.6083   17.8714   21.0144 H   0  0  0  0  0  0  0  0  0  0  0  0
  1  2  1  0  0  0  0
  1  3  2  0  0  0  0
  1  4  1  0  0  0  0
  4  5  1  0  0  0  0
  4  6  1  0  0  0  0
  4  7  1  0  0  0  0
  7  8  1  0  0  0  0
  7  9  1  0  0  0  0
  7 10  1  0  0  0  0
 10 11  1  0  0  0  0
 10 12  1  0  0  0  0
 10 13  1  0  0  0  0
 13 14  1  0  0  0  0
 13 15  1  0  0  0  0
 13 16  1  0  0  0  0
 16 17  1  0  0  0  0
 16 18  1  0  0  0  0
 16 19  1  0  0  0  0
 19 20  1  0  0  0  0
 19 21  1  0  0  0  0
 19 22  1  0  0  0  0
M  END
> <VM2 Rank>
21

> <Conf_Id>
687

> <Probability>
0.62

> <Sum Probability>
95.05

> <Delta G>
2.364

> <G>
-14.634

> <E>
-34.631

> <-TS>
19.997

> <U+W>
-52.516

> <U>
9.377

> <W>
-61.893

> <W(PB)>
-64.194

> <W(SA)>
2.301

> <Valence>
7.860

> <Coulomb>
0.810

> <VdW>
0.706

> <VdW6>
-8.020

> <VdW12>
8.726

> <Bond>
0.153

> <Angle>
2.651

> <Pdih>
5.056

> <Idih>
0.001

> <Tether>
0.000

$$$$
VeraChem MOL file


 22 21  0  0  0  0  0  0  0  0999 V2000     
   19.7516   19.1504   25.8374 C   0  0  0  0  0  0  0  0  0  0  0  0
   19.7996   20.3028   26.2204 O   0  5  0  0  0  0  0  0  0  0  0  0
   18.9003   18.3591   26.1921 O   0  0  0  0  0  0  0  0  0  0  0  0
   20.8320   18.6673   24.8737 C   0  0  0  0  0  0  0  0  0  0  0  0
   20.8575   17.5710   24.8965 H   0  0  0  0  0  0  0  0  0  0  0  0
   21.7963   19.0152   25.2625 H   0  0  0  0  0  0  0  0  0  0  0  0
   20.6504   19.1682   23.4171 C   0  0  0  0  0  0  0  0  0  0  0  0
   20.5861   20.2651   23.4150 H   0  0  0  0  0  0  0  0  0  0  0  0
   21.5474   18.9019   22.8438 H   0  0  0  0  0  0  0  0  0  0  0  0
   19.3980   18.5677   22.7344 C   0  0  0  0  0  0  0  0  0  0  0  0
   18.5129   18.7888   23.3466 H   0  0  0  0  0  0  0  0  0  0  0  0
   19.4838   17.4731   22.6994 H   0  0  0  0  0  0  0  0  0  0  0  0
   19.1511   19.1145   21.3083 C   0  0  0  0  0  0  0  0  0  0  0  0
   18.1810   18.7386   20.9553 H   0  0  0  0  0  0  0  0  0  0  0  0
   19.0653   20.2092   21.3438 H   0  0  0  0  0  0  0  0  0  0  0  0
   20.2441   18.7097   20.2934 C   0  0  0  0  0  0  0  0  0  0  0  0
   20.3679   17.6180   20.2978 H   0  0  0  0  0  0  0  0  0  0  0  0
   21.2099   19.1434   20.5838 H   0  0  0  0  0  0  0  0  0  0  0  0
   19.8930   19.1794   18.8673 C   0  0  0  0  0  0  0  0  0  0  0  0
   18.9491   18.7332   18.5275 H   0  0  0  0  0  0  0  0  0  0  0  0
   20.6796   18.8876   18.1594 H   0  0  0  0  0  0  0  0  0  0  0  0
   19.7897   20.2717   18.8282 H   0  0  0  0  0  0  0  0  0  0  0  0
  1  2  1  0  0  0  0
  1  3  2  0  0  0  0
  1  4  1  0  0  0  0
  4  5  1  0  0  0  0
  4  6  1  0  0  0  0
  4  7  1  0  0  0  0
  7  8  1  0  0  0  0
  7  9  1  0  0  0  0
  7 10  1  0  0  0  0
 10 11  1  0  0  0  0
 10 12  1  0  0  0  0
 10 13  1  0  0  0  0
 13 14  1  0  0  0  0
 13 15  1  0  0  0  0
 13 16  1  0  0  0  0
 16 17  1  0  0  0  0
 16 18  1  0  0  0  0
 16 19  1  0  0  0  0
 19 20  1  0  0  0  0
 19 21  1  0  0  0  0
 19 22  1  0  0  0  0
M  END
> <VM2 Rank>
22

> <Conf_Id>
688

> <Probability>
0.60

> <Sum Probability>
95.65

> <Delta G>
2.379

> <G>
-14.619

> <E>
-34.607

> <-TS>
19.988

> <U+W>
-52.492

> <U>
8.586

> <W>
-61.078

> <W(PB)>
-63.354

> <W(SA)>
2.276

> <Valence>
7.933

> <Coulomb>
-0.125

> <VdW>
0.778

> <VdW6>
-7.981

> <VdW12>
8.759

> <Bond>
0.160

> <Angle>
2.698

> <Pdih>
5.074

> <Idih>
0.000

> <Tether>
0.000

$$$$
VeraChem MOL file


 22 21  0  0  0  0  0  0  0  0999 V2000     
   19.6162   18.9320   25.6923 C   0  0  0  0  0  0  0  0  0  0  0  0
   18.7402   19.7153   26.0022 O   0  5  0  0  0  0  0  0  0  0  0  0
   19.5672   17.7408   25.9281 O   0  0  0  0  0  0  0  0  0  0  0  0
   20.8562   19.4751   24.9876 C   0  0  0  0  0  0  0  0  0  0  0  0
   21.7317   19.0244   25.4696 H   0  0  0  0  0  0  0  0  0  0  0  0
   20.9160   20.5553   25.1673 H   0  0  0  0  0  0  0  0  0  0  0  0
   20.8945   19.1815   23.4653 C   0  0  0  0  0  0  0  0  0  0  0  0
   21.8712   19.4880   23.0674 H   0  0  0  0  0  0  0  0  0  0  0  0
   20.8139   18.0975   23.3102 H   0  0  0  0  0  0  0  0  0  0  0  0
   19.7741   19.9175   22.6923 C   0  0  0  0  0  0  0  0  0  0  0  0
   19.8201   20.9888   22.9314 H   0  0  0  0  0  0  0  0  0  0  0  0
   18.7912   19.5662   23.0353 H   0  0  0  0  0  0  0  0  0  0  0  0
   19.8737   19.7521   21.1573 C   0  0  0  0  0  0  0  0  0  0  0  0
   19.1219   20.4013   20.6879 H   0  0  0  0  0  0  0  0  0  0  0  0
   20.8528   20.1100   20.8108 H   0  0  0  0  0  0  0  0  0  0  0  0
   19.6506   18.2996   20.6791 C   0  0  0  0  0  0  0  0  0  0  0  0
   18.6951   17.9235   21.0699 H   0  0  0  0  0  0  0  0  0  0  0  0
   20.4385   17.6456   21.0752 H   0  0  0  0  0  0  0  0  0  0  0  0
   19.6473   18.2052   19.1400 C   0  0  0  0  0  0  0  0  0  0  0  0
   19.4911   17.1679   18.8165 H   0  0  0  0  0  0  0  0  0  0  0  0
   20.6029   18.5499   18.7236 H   0  0  0  0  0  0  0  0  0  0  0  0
   18.8446   18.8185   18.7100 H   0  0  0  0  0  0  0  0  0  0  0  0
  1  2  1  0  0  0  0
  1  3  2  0  0  0  0
  1  4  1  0  0  0  0
  4  5  1  0  0  0  0
  4  6  1  0  0  0  0
  4  7  1  0  0  0  0
  7  8  1  0  0  0  0
  7  9  1  0  0  0  0
  7 10  1  0  0  0  0
 10 11  1  0  0  0  0
 10 12  1  0  0  0  0
 10 13  1  0  0  0  0
 13 14  1  0  0  0  0
 13 15  1  0  0  0  0
 13 16  1  0  0  0  0
 16 17  1  0  0  0  0
 16 18  1  0  0  0  0
 16 19  1  0  0  0  0
 19 20  1  0  0  0  0
 19 21  1  0  0  0  0
 19 22  1  0  0  0  0
M  END
> <VM2 Rank>
23

> <Conf_Id>
116

> <Probability>
0.59

> <Sum Probability>
96.24

> <Delta G>
2.388

> <G>
-14.610

> <E>
-34.590

> <-TS>
19.980

> <U+W>
-52.475

> <U>
8.925

> <W>
-61.400

> <W(PB)>
-63.682

> <W(SA)>
2.282

> <Valence>
7.881

> <Coulomb>
0.348

> <VdW>
0.695

> <VdW6>
-8.049

> <VdW12>
8.743

> <Bond>
0.156

> <Angle>
2.660

> <Pdih>
5.065

> <Idih>
0.001

> <Tether>
0.000

$$$$
VeraChem MOL file


 22 21  0  0  0  0  0  0  0  0999 V2000     
   20.1252   19.2696   25.5955 C   0  0  0  0  0  0  0  0  0  0  0  0
   20.5513   20.4053   25.5220 O   0  5  0  0  0  0  0  0  0  0  0  0
   20.7388   18.3529   26.1054 O   0  0  0  0  0  0  0  0  0  0  0  0
   18.7343   18.9812   25.0375 C   0  0  0  0  0  0  0  0  0  0  0  0
   18.1946   19.9304   24.9340 H   0  0  0  0  0  0  0  0  0  0  0  0
   18.1961   18.3904   25.7880 H   0  0  0  0  0  0  0  0  0  0  0  0
   18.7415   18.2196   23.6865 C   0  0  0  0  0  0  0  0  0  0  0  0
   19.3105   17.2861   23.7979 H   0  0  0  0  0  0  0  0  0  0  0  0
   17.7115   17.9338   23.4335 H   0  0  0  0  0  0  0  0  0  0  0  0
   19.3357   19.0597   22.5336 C   0  0  0  0  0  0  0  0  0  0  0  0
   20.3690   19.3359   22.7814 H   0  0  0  0  0  0  0  0  0  0  0  0
   18.7699   19.9958   22.4325 H   0  0  0  0  0  0  0  0  0  0  0  0
   19.3062   18.2900   21.1930 C   0  0  0  0  0  0  0  0  0  0  0  0
   19.9137   17.3785   21.2764 H   0  0  0  0  0  0  0  0  0  0  0  0
   18.2775   17.9612   20.9918 H   0  0  0  0  0  0  0  0  0  0  0  0
   19.7966   19.1300   19.9908 C   0  0  0  0  0  0  0  0  0  0  0  0
   19.1879   20.0404   19.9013 H   0  0  0  0  0  0  0  0  0  0  0  0
   19.6325   18.5553   19.0689 H   0  0  0  0  0  0  0  0  0  0  0  0
   21.2904   19.5106   20.0798 C   0  0  0  0  0  0  0  0  0  0  0  0
   21.6099   20.0275   19.1657 H   0  0  0  0  0  0  0  0  0  0  0  0
   21.9170   18.6173   20.1997 H   0  0  0  0  0  0  0  0  0  0  0  0
   21.4829   20.1825   20.9256 H   0  0  0  0  0  0  0  0  0  0  0  0
  1  2  1  0  0  0  0
  1  3  2  0  0  0  0
  1  4  1  0  0  0  0
  4  5  1  0  0  0  0
  4  6  1  0  0  0  0
  4  7  1  0  0  0  0
  7  8  1  0  0  0  0
  7  9  1  0  0  0  0
  7 10  1  0  0  0  0
 10 11  1  0  0  0  0
 10 12  1  0  0  0  0
 10 13  1  0  0  0  0
 13 14  1  0  0  0  0
 13 15  1  0  0  0  0
 13 16  1  0  0  0  0
 16 17  1  0  0  0  0
 16 18  1  0  0  0  0
 16 19  1  0  0  0  0
 19 20  1  0  0  0  0
 19 21  1  0  0  0  0
 19 22  1  0  0  0  0
M  END
> <VM2 Rank>
24

> <Conf_Id>
565

> <Probability>
0.59

> <Sum Probability>
96.83

> <Delta G>
2.389

> <G>
-14.609

> <E>
-34.606

> <-TS>
19.997

> <U+W>
-52.491

> <U>
9.376

> <W>
-61.867

> <W(PB)>
-64.155

> <W(SA)>
2.288

> <Valence>
7.861

> <Coulomb>
0.810

> <VdW>
0.706

> <VdW6>
-8.019

> <VdW12>
8.725

> <Bond>
0.153

> <Angle>
2.651

> <Pdih>
5.056

> <Idih>
0.001

> <Tether>
0.000

$$$$
VeraChem MOL file


 22 21  0  0  0  0  0  0  0  0999 V2000     
   19.7553   19.0827   25.8400 C   0  0  0  0  0  0  0  0  0  0  0  0
   18.8221   19.8024   26.1365 O   0  5  0  0  0  0  0  0  0  0  0  0
   19.9257   17.9750   26.3100 O   0  0  0  0  0  0  0  0  0  0  0  0
   20.7813   19.6043   24.8377 C   0  0  0  0  0  0  0  0  0  0  0  0
   21.7758   19.3931   25.2480 H   0  0  0  0  0  0  0  0  0  0  0  0
   20.6884   20.6954   24.7764 H   0  0  0  0  0  0  0  0  0  0  0  0
   20.6608   18.9767   23.4244 C   0  0  0  0  0  0  0  0  0  0  0  0
   21.5262   19.2937   22.8288 H   0  0  0  0  0  0  0  0  0  0  0  0
   20.7153   17.8823   23.5065 H   0  0  0  0  0  0  0  0  0  0  0  0
   19.3536   19.3844   22.7031 C   0  0  0  0  0  0  0  0  0  0  0  0
   19.3207   20.4760   22.5844 H   0  0  0  0  0  0  0  0  0  0  0  0
   18.4952   19.1162   23.3341 H   0  0  0  0  0  0  0  0  0  0  0  0
   19.1733   18.7070   21.3239 C   0  0  0  0  0  0  0  0  0  0  0  0
   19.2066   17.6154   21.4430 H   0  0  0  0  0  0  0  0  0  0  0  0
   18.1696   18.9475   20.9474 H   0  0  0  0  0  0  0  0  0  0  0  0
   20.2201   19.1494   20.2766 C   0  0  0  0  0  0  0  0  0  0  0  0
   21.2261   18.8464   20.5951 H   0  0  0  0  0  0  0  0  0  0  0  0
   20.2248   20.2453   20.1972 H   0  0  0  0  0  0  0  0  0  0  0  0
   19.9278   18.5372   18.8918 C   0  0  0  0  0  0  0  0  0  0  0  0
   19.9439   17.4403   18.9365 H   0  0  0  0  0  0  0  0  0  0  0  0
   20.6810   18.8578   18.1604 H   0  0  0  0  0  0  0  0  0  0  0  0
   18.9425   18.8511   18.5230 H   0  0  0  0  0  0  0  0  0  0  0  0
  1  2  1  0  0  0  0
  1  3  2  0  0  0  0
  1  4  1  0  0  0  0
  4  5  1  0  0  0  0
  4  6  1  0  0  0  0
  4  7  1  0  0  0  0
  7  8  1  0  0  0  0
  7  9  1  0  0  0  0
  7 10  1  0  0  0  0
 10 11  1  0  0  0  0
 10 12  1  0  0  0  0
 10 13  1  0  0  0  0
 13 14  1  0  0  0  0
 13 15  1  0  0  0  0
 13 16  1  0  0  0  0
 16 17  1  0  0  0  0
 16 18  1  0  0  0  0
 16 19  1  0  0  0  0
 19 20  1  0  0  0  0
 19 21  1  0  0  0  0
 19 22  1  0  0  0  0
M  END
> <VM2 Rank>
25

> <Conf_Id>
635

> <Probability>
0.58

> <Sum Probability>
97.41

> <Delta G>
2.400

> <G>
-14.598

> <E>
-34.586

> <-TS>
19.988

> <U+W>
-52.471

> <U>
8.586

> <W>
-61.057

> <W(PB)>
-63.353

> <W(SA)>
2.296

> <Valence>
7.933

> <Coulomb>
-0.125

> <VdW>
0.778

> <VdW6>
-7.981

> <VdW12>
8.759

> <Bond>
0.160

> <Angle>
2.698

> <Pdih>
5.074

> <Idih>
0.000

> <Tether>
0.000

$$$$
VeraChem MOL file


 22 21  0  0  0  0  0  0  0  0999 V2000     
   19.9753   19.4203   25.4488 C   0  0  0  0  0  0  0  0  0  0  0  0
   20.4065   20.4986   25.0910 O   0  5  0  0  0  0  0  0  0  0  0  0
   19.1599   19.2846   26.3398 O   0  0  0  0  0  0  0  0  0  0  0  0
   20.5067   18.1646   24.7632 C   0  0  0  0  0  0  0  0  0  0  0  0
   20.8262   17.4736   25.5520 H   0  0  0  0  0  0  0  0  0  0  0  0
   21.4082   18.4274   24.1982 H   0  0  0  0  0  0  0  0  0  0  0  0
   19.4723   17.4549   23.8473 C   0  0  0  0  0  0  0  0  0  0  0  0
   19.9168   16.5329   23.4490 H   0  0  0  0  0  0  0  0  0  0  0  0
   18.6149   17.1433   24.4598 H   0  0  0  0  0  0  0  0  0  0  0  0
   18.9564   18.3210   22.6719 C   0  0  0  0  0  0  0  0  0  0  0  0
   18.4678   19.2241   23.0631 H   0  0  0  0  0  0  0  0  0  0  0  0
   18.1799   17.7559   22.1386 H   0  0  0  0  0  0  0  0  0  0  0  0
   20.0640   18.7232   21.6713 C   0  0  0  0  0  0  0  0  0  0  0  0
   20.8014   19.3655   22.1709 H   0  0  0  0  0  0  0  0  0  0  0  0
   20.5963   17.8249   21.3301 H   0  0  0  0  0  0  0  0  0  0  0  0
   19.4864   19.4740   20.4531 C   0  0  0  0  0  0  0  0  0  0  0  0
   18.9539   20.3735   20.7921 H   0  0  0  0  0  0  0  0  0  0  0  0
   18.7491   18.8398   19.9415 H   0  0  0  0  0  0  0  0  0  0  0  0
   20.5926   19.8777   19.4577 C   0  0  0  0  0  0  0  0  0  0  0  0
   21.3275   20.5393   19.9349 H   0  0  0  0  0  0  0  0  0  0  0  0
   20.1645   20.4104   18.5986 H   0  0  0  0  0  0  0  0  0  0  0  0
   21.1220   18.9936   19.0791 H   0  0  0  0  0  0  0  0  0  0  0  0
  1  2  1  0  0  0  0
  1  3  2  0  0  0  0
  1  4  1  0  0  0  0
  4  5  1  0  0  0  0
  4  6  1  0  0  0  0
  4  7  1  0  0  0  0
  7  8  1  0  0  0  0
  7  9  1  0  0  0  0
  7 10  1  0  0  0  0
 10 11  1  0  0  0  0
 10 12  1  0  0  0  0
 10 13  1  0  0  0  0
 13 14  1  0  0  0  0
 13 15  1  0  0  0  0
 13 16  1  0  0  0  0
 16 17  1  0  0  0  0
 16 18  1  0  0  0  0
 16 19  1  0  0  0  0
 19 20  1  0  0  0  0
 19 21  1  0  0  0  0
 19 22  1  0  0  0  0
M  END
> <VM2 Rank>
26

> <Conf_Id>
107

> <Probability>
0.40

> <Sum Probability>
97.81

> <Delta G>
2.614

> <G>
-14.384

> <E>
-34.411

> <-TS>
20.027

> <U+W>
-52.296

> <U>
9.624

> <W>
-61.920

> <W(PB)>
-64.195

> <W(SA)>
2.275

> <Valence>
7.870

> <Coulomb>
1.265

> <VdW>
0.489

> <VdW6>
-8.390

> <VdW12>
8.879

> <Bond>
0.170

> <Angle>
2.768

> <Pdih>
4.931

> <Idih>
0.001

> <Tether>
0.000

$$$$
VeraChem MOL file


 22 21  0  0  0  0  0  0  0  0999 V2000     
   20.0967   19.3343   25.4525 C   0  0  0  0  0  0  0  0  0  0  0  0
   20.9847   20.0888   25.1077 O   0  5  0  0  0  0  0  0  0  0  0  0
   20.2047   18.5439   26.3695 O   0  0  0  0  0  0  0  0  0  0  0  0
   18.7628   19.4006   24.7139 C   0  0  0  0  0  0  0  0  0  0  0  0
   18.7341   20.3229   24.1225 H   0  0  0  0  0  0  0  0  0  0  0  0
   17.9757   19.4938   25.4712 H   0  0  0  0  0  0  0  0  0  0  0  0
   18.4702   18.1653   23.8189 C   0  0  0  0  0  0  0  0  0  0  0  0
   18.4368   17.2698   24.4547 H   0  0  0  0  0  0  0  0  0  0  0  0
   17.4688   18.2680   23.3796 H   0  0  0  0  0  0  0  0  0  0  0  0
   19.5019   17.9348   22.6874 C   0  0  0  0  0  0  0  0  0  0  0  0
   19.2460   17.0007   22.1690 H   0  0  0  0  0  0  0  0  0  0  0  0
   20.5003   17.7843   23.1207 H   0  0  0  0  0  0  0  0  0  0  0  0
   19.5523   19.0858   21.6566 C   0  0  0  0  0  0  0  0  0  0  0  0
   18.5420   19.2803   21.2717 H   0  0  0  0  0  0  0  0  0  0  0  0
   19.8950   20.0077   22.1449 H   0  0  0  0  0  0  0  0  0  0  0  0
   20.4973   18.7576   20.4816 C   0  0  0  0  0  0  0  0  0  0  0  0
   20.1627   17.8382   19.9817 H   0  0  0  0  0  0  0  0  0  0  0  0
   21.5089   18.5635   20.8644 H   0  0  0  0  0  0  0  0  0  0  0  0
   20.5494   19.9079   19.4561 C   0  0  0  0  0  0  0  0  0  0  0  0
   19.5548   20.1033   19.0342 H   0  0  0  0  0  0  0  0  0  0  0  0
   21.2257   19.6580   18.6283 H   0  0  0  0  0  0  0  0  0  0  0  0
   20.9119   20.8334   19.9225 H   0  0  0  0  0  0  0  0  0  0  0  0
  1  2  1  0  0  0  0
  1  3  2  0  0  0  0
  1  4  1  0  0  0  0
  4  5  1  0  0  0  0
  4  6  1  0  0  0  0
  4  7  1  0  0  0  0
  7  8  1  0  0  0  0
  7  9  1  0  0  0  0
  7 10  1  0  0  0  0
 10 11  1  0  0  0  0
 10 12  1  0  0  0  0
 10 13  1  0  0  0  0
 13 14  1  0  0  0  0
 13 15  1  0  0  0  0
 13 16  1  0  0  0  0
 16 17  1  0  0  0  0
 16 18  1  0  0  0  0
 16 19  1  0  0  0  0
 19 20  1  0  0  0  0
 19 21  1  0  0  0  0
 19 22  1  0  0  0  0
M  END
> <VM2 Rank>
27

> <Conf_Id>
480

> <Probability>
0.40

> <Sum Probability>
98.21

> <Delta G>
2.624

> <G>
-14.375

> <E>
-34.402

> <-TS>
20.027

> <U+W>
-52.287

> <U>
9.624

> <W>
-61.910

> <W(PB)>
-64.184

> <W(SA)>
2.274

> <Valence>
7.870

> <Coulomb>
1.265

> <VdW>
0.489

> <VdW6>
-8.389

> <VdW12>
8.878

> <Bond>
0.170

> <Angle>
2.768

> <Pdih>
4.931

> <Idih>
0.001

> <Tether>
0.000

$$$$
VeraChem MOL file


 22 21  0  0  0  0  0  0  0  0999 V2000     
   19.9409   18.8672   25.6812 C   0  0  0  0  0  0  0  0  0  0  0  0
   19.8597   19.7082   26.5546 O   0  5  0  0  0  0  0  0  0  0  0  0
   20.5776   17.8385   25.7952 O   0  0  0  0  0  0  0  0  0  0  0  0
   19.2202   19.1264   24.3631 C   0  0  0  0  0  0  0  0  0  0  0  0
   18.3113   19.7006   24.5785 H   0  0  0  0  0  0  0  0  0  0  0  0
   18.9055   18.1576   23.9587 H   0  0  0  0  0  0  0  0  0  0  0  0
   20.1010   19.8843   23.3364 C   0  0  0  0  0  0  0  0  0  0  0  0
   20.4670   20.8102   23.8008 H   0  0  0  0  0  0  0  0  0  0  0  0
   20.9931   19.2870   23.1058 H   0  0  0  0  0  0  0  0  0  0  0  0
   19.3522   20.2495   22.0301 C   0  0  0  0  0  0  0  0  0  0  0  0
   20.0266   20.8264   21.3837 H   0  0  0  0  0  0  0  0  0  0  0  0
   18.5232   20.9273   22.2745 H   0  0  0  0  0  0  0  0  0  0  0  0
   18.7871   19.0438   21.2337 C   0  0  0  0  0  0  0  0  0  0  0  0
   17.9925   18.5622   21.8184 H   0  0  0  0  0  0  0  0  0  0  0  0
   18.2986   19.4225   20.3257 H   0  0  0  0  0  0  0  0  0  0  0  0
   19.8308   17.9740   20.8288 C   0  0  0  0  0  0  0  0  0  0  0  0
   19.3135   17.1632   20.2979 H   0  0  0  0  0  0  0  0  0  0  0  0
   20.2717   17.5175   21.7250 H   0  0  0  0  0  0  0  0  0  0  0  0
   20.9505   18.5272   19.9209 C   0  0  0  0  0  0  0  0  0  0  0  0
   21.5630   19.2680   20.4501 H   0  0  0  0  0  0  0  0  0  0  0  0
   20.5307   19.0033   19.0254 H   0  0  0  0  0  0  0  0  0  0  0  0
   21.6155   17.7175   19.5941 H   0  0  0  0  0  0  0  0  0  0  0  0
  1  2  1  0  0  0  0
  1  3  2  0  0  0  0
  1  4  1  0  0  0  0
  4  5  1  0  0  0  0
  4  6  1  0  0  0  0
  4  7  1  0  0  0  0
  7  8  1  0  0  0  0
  7  9  1  0  0  0  0
  7 10  1  0  0  0  0
 10 11  1  0  0  0  0
 10 12  1  0  0  0  0
 10 13  1  0  0  0  0
 13 14  1  0  0  0  0
 13 15  1  0  0  0  0
 13 16  1  0  0  0  0
 16 17  1  0  0  0  0
 16 18  1  0  0  0  0
 16 19  1  0  0  0  0
 19 20  1  0  0  0  0
 19 21  1  0  0  0  0
 19 22  1  0  0  0  0
M  END
> <VM2 Rank>
28

> <Conf_Id>
281

> <Probability>
0.25

> <Sum Probability>
98.47

> <Delta G>
2.891

> <G>
-14.107

> <E>
-34.423

> <-TS>
20.316

> <U+W>
-52.307

> <U>
8.874

> <W>
-61.182

> <W(PB)>
-63.414

> <W(SA)>
2.232

> <Valence>
8.479

> <Coulomb>
-0.357

> <VdW>
0.753

> <VdW6>
-9.080

> <VdW12>
9.833

> <Bond>
0.221

> <Angle>
3.208

> <Pdih>
5.050

> <Idih>
0.000

> <Tether>
0.000

$$$$
VeraChem MOL file


 22 21  0  0  0  0  0  0  0  0999 V2000     
   19.9137   19.3718   25.6618 C   0  0  0  0  0  0  0  0  0  0  0  0
   20.4353   20.4688   25.6943 O   0  5  0  0  0  0  0  0  0  0  0  0
   19.9200   18.5960   26.5972 O   0  0  0  0  0  0  0  0  0  0  0  0
   19.2304   18.9365   24.3705 C   0  0  0  0  0  0  0  0  0  0  0  0
   18.8149   19.8320   23.8945 H   0  0  0  0  0  0  0  0  0  0  0  0
   18.3877   18.2860   24.6329 H   0  0  0  0  0  0  0  0  0  0  0  0
   20.1918   18.2016   23.4009 C   0  0  0  0  0  0  0  0  0  0  0  0
   21.0155   18.8720   23.1217 H   0  0  0  0  0  0  0  0  0  0  0  0
   20.6534   17.3586   23.9332 H   0  0  0  0  0  0  0  0  0  0  0  0
   19.4921   17.6594   22.1294 C   0  0  0  0  0  0  0  0  0  0  0  0
   18.7397   16.9169   22.4283 H   0  0  0  0  0  0  0  0  0  0  0  0
   20.2273   17.1106   21.5262 H   0  0  0  0  0  0  0  0  0  0  0  0
   18.8039   18.7329   21.2456 C   0  0  0  0  0  0  0  0  0  0  0  0
   18.3627   18.2356   20.3712 H   0  0  0  0  0  0  0  0  0  0  0  0
   17.9597   19.1695   21.7951 H   0  0  0  0  0  0  0  0  0  0  0  0
   19.7282   19.8747   20.7559 C   0  0  0  0  0  0  0  0  0  0  0  0
   20.1137   20.4431   21.6128 H   0  0  0  0  0  0  0  0  0  0  0  0
   19.1288   20.5822   20.1668 H   0  0  0  0  0  0  0  0  0  0  0  0
   20.9046   19.3774   19.8884 C   0  0  0  0  0  0  0  0  0  0  0  0
   21.4799   20.2266   19.4978 H   0  0  0  0  0  0  0  0  0  0  0  0
   20.5422   18.7918   19.0336 H   0  0  0  0  0  0  0  0  0  0  0  0
   21.5911   18.7495   20.4702 H   0  0  0  0  0  0  0  0  0  0  0  0
  1  2  1  0  0  0  0
  1  3  2  0  0  0  0
  1  4  1  0  0  0  0
  4  5  1  0  0  0  0
  4  6  1  0  0  0  0
  4  7  1  0  0  0  0
  7  8  1  0  0  0  0
  7  9  1  0  0  0  0
  7 10  1  0  0  0  0
 10 11  1  0  0  0  0
 10 12  1  0  0  0  0
 10 13  1  0  0  0  0
 13 14  1  0  0  0  0
 13 15  1  0  0  0  0
 13 16  1  0  0  0  0
 16 17  1  0  0  0  0
 16 18  1  0  0  0  0
 16 19  1  0  0  0  0
 19 20  1  0  0  0  0
 19 21  1  0  0  0  0
 19 22  1  0  0  0  0
M  END
> <VM2 Rank>
29

> <Conf_Id>
575

> <Probability>
0.24

> <Sum Probability>
98.70

> <Delta G>
2.932

> <G>
-14.067

> <E>
-34.382

> <-TS>
20.316

> <U+W>
-52.267

> <U>
8.874

> <W>
-61.142

> <W(PB)>
-63.378

> <W(SA)>
2.237

> <Valence>
8.479

> <Coulomb>
-0.357

> <VdW>
0.753

> <VdW6>
-9.080

> <VdW12>
9.833

> <Bond>
0.221

> <Angle>
3.208

> <Pdih>
5.050

> <Idih>
0.000

> <Tether>
0.000

$$$$
VeraChem MOL file


 22 21  0  0  0  0  0  0  0  0999 V2000     
   19.7589   19.2003   25.7233 C   0  0  0  0  0  0  0  0  0  0  0  0
   20.1900   20.3093   25.9708 O   0  5  0  0  0  0  0  0  0  0  0  0
   20.0847   18.2010   26.3334 O   0  0  0  0  0  0  0  0  0  0  0  0
   18.7363   19.0556   24.5996 C   0  0  0  0  0  0  0  0  0  0  0  0
   18.3029   20.0412   24.3908 H   0  0  0  0  0  0  0  0  0  0  0  0
   17.9229   18.4248   24.9769 H   0  0  0  0  0  0  0  0  0  0  0  0
   19.3095   18.4368   23.2981 C   0  0  0  0  0  0  0  0  0  0  0  0
   19.7754   17.4688   23.5289 H   0  0  0  0  0  0  0  0  0  0  0  0
   18.4761   18.2334   22.6136 H   0  0  0  0  0  0  0  0  0  0  0  0
   20.3372   19.3616   22.6029 C   0  0  0  0  0  0  0  0  0  0  0  0
   21.1374   19.6094   23.3136 H   0  0  0  0  0  0  0  0  0  0  0  0
   19.8605   20.3149   22.3403 H   0  0  0  0  0  0  0  0  0  0  0  0
   20.9863   18.7296   21.3458 C   0  0  0  0  0  0  0  0  0  0  0  0
   21.7384   19.4262   20.9510 H   0  0  0  0  0  0  0  0  0  0  0  0
   21.5372   17.8278   21.6459 H   0  0  0  0  0  0  0  0  0  0  0  0
   20.0043   18.3581   20.2072 C   0  0  0  0  0  0  0  0  0  0  0  0
   19.3070   17.5807   20.5462 H   0  0  0  0  0  0  0  0  0  0  0  0
   20.5779   17.9117   19.3833 H   0  0  0  0  0  0  0  0  0  0  0  0
   19.2128   19.5667   19.6628 C   0  0  0  0  0  0  0  0  0  0  0  0
   19.8910   20.3669   19.3390 H   0  0  0  0  0  0  0  0  0  0  0  0
   18.6030   19.2696   18.7999 H   0  0  0  0  0  0  0  0  0  0  0  0
   18.5357   19.9751   20.4236 H   0  0  0  0  0  0  0  0  0  0  0  0
  1  2  1  0  0  0  0
  1  3  2  0  0  0  0
  1  4  1  0  0  0  0
  4  5  1  0  0  0  0
  4  6  1  0  0  0  0
  4  7  1  0  0  0  0
  7  8  1  0  0  0  0
  7  9  1  0  0  0  0
  7 10  1  0  0  0  0
 10 11  1  0  0  0  0
 10 12  1  0  0  0  0
 10 13  1  0  0  0  0
 13 14  1  0  0  0  0
 13 15  1  0  0  0  0
 13 16  1  0  0  0  0
 16 17  1  0  0  0  0
 16 18  1  0  0  0  0
 16 19  1  0  0  0  0
 19 20  1  0  0  0  0
 19 21  1  0  0  0  0
 19 22  1  0  0  0  0
M  END
> <VM2 Rank>
30

> <Conf_Id>
304

> <Probability>
0.11

> <Sum Probability>
98.81

> <Delta G>
3.401

> <G>
-13.597

> <E>
-33.890

> <-TS>
20.293

> <U+W>
-51.775

> <U>
9.546

> <W>
-61.321

> <W(PB)>
-63.554

> <W(SA)>
2.233

> <Valence>
8.349

> <Coulomb>
0.448

> <VdW>
0.749

> <VdW6>
-8.871

> <VdW12>
9.620

> <Bond>
0.198

> <Angle>
3.089

> <Pdih>
5.062

> <Idih>
0.001

> <Tether>
0.000

$$$$
VeraChem MOL file


 22 21  0  0  0  0  0  0  0  0999 V2000     
   20.1472   19.2037   25.4604 C   0  0  0  0  0  0  0  0  0  0  0  0
   20.7300   20.2667   25.5463 O   0  5  0  0  0  0  0  0  0  0  0  0
   20.6163   18.1474   25.8359 O   0  0  0  0  0  0  0  0  0  0  0  0
   18.7382   19.2015   24.8737 C   0  0  0  0  0  0  0  0  0  0  0  0
   18.1926   20.0378   25.3264 H   0  0  0  0  0  0  0  0  0  0  0  0
   18.2290   18.2827   25.1887 H   0  0  0  0  0  0  0  0  0  0  0  0
   18.6997   19.3337   23.3291 C   0  0  0  0  0  0  0  0  0  0  0  0
   17.6574   19.4575   23.0062 H   0  0  0  0  0  0  0  0  0  0  0  0
   19.2344   20.2474   23.0372 H   0  0  0  0  0  0  0  0  0  0  0  0
   19.3137   18.1065   22.6144 C   0  0  0  0  0  0  0  0  0  0  0  0
   18.8207   17.1962   22.9816 H   0  0  0  0  0  0  0  0  0  0  0  0
   20.3730   18.0070   22.8862 H   0  0  0  0  0  0  0  0  0  0  0  0
   19.1684   18.1531   21.0725 C   0  0  0  0  0  0  0  0  0  0  0  0
   19.5853   17.2279   20.6520 H   0  0  0  0  0  0  0  0  0  0  0  0
   18.1005   18.1485   20.8153 H   0  0  0  0  0  0  0  0  0  0  0  0
   19.8423   19.3641   20.3811 C   0  0  0  0  0  0  0  0  0  0  0  0
   19.3660   20.2988   20.7054 H   0  0  0  0  0  0  0  0  0  0  0  0
   19.6645   19.2926   19.2993 H   0  0  0  0  0  0  0  0  0  0  0  0
   21.3641   19.4422   20.6304 C   0  0  0  0  0  0  0  0  0  0  0  0
   21.5850   19.6315   21.6887 H   0  0  0  0  0  0  0  0  0  0  0  0
   21.8078   20.2591   20.0468 H   0  0  0  0  0  0  0  0  0  0  0  0
   21.8590   18.5076   20.3363 H   0  0  0  0  0  0  0  0  0  0  0  0
  1  2  1  0  0  0  0
  1  3  2  0  0  0  0
  1  4  1  0  0  0  0
  4  5  1  0  0  0  0
  4  6  1  0  0  0  0
  4  7  1  0  0  0  0
  7  8  1  0  0  0  0
  7  9  1  0  0  0  0
  7 10  1  0  0  0  0
 10 11  1  0  0  0  0
 10 12  1  0  0  0  0
 10 13  1  0  0  0  0
 13 14  1  0  0  0  0
 13 15  1  0  0  0  0
 13 16  1  0  0  0  0
 16 17  1  0  0  0  0
 16 18  1  0  0  0  0
 16 19  1  0  0  0  0
 19 20  1  0  0  0  0
 19 21  1  0  0  0  0
 19 22  1  0  0  0  0
M  END
> <VM2 Rank>
31

> <Conf_Id>
376

> <Probability>
0.08

> <Sum Probability>
98.89

> <Delta G>
3.577

> <G>
-13.421

> <E>
-33.724

> <-TS>
20.302

> <U+W>
-51.609

> <U>
10.395

> <W>
-62.003

> <W(PB)>
-64.206

> <W(SA)>
2.203

> <Valence>
8.284

> <Coulomb>
1.521

> <VdW>
0.589

> <VdW6>
-9.071

> <VdW12>
9.660

> <Bond>
0.194

> <Angle>
3.030

> <Pdih>
5.059

> <Idih>
0.001

> <Tether>
0.000

$$$$
VeraChem MOL file


 22 21  0  0  0  0  0  0  0  0999 V2000     
   19.6887   19.4243   25.4459 C   0  0  0  0  0  0  0  0  0  0  0  0
   20.1512   20.5451   25.5284 O   0  5  0  0  0  0  0  0  0  0  0  0
   18.5525   19.1402   25.7705 O   0  0  0  0  0  0  0  0  0  0  0  0
   20.5947   18.3085   24.9325 C   0  0  0  0  0  0  0  0  0  0  0  0
   20.1784   17.3450   25.2504 H   0  0  0  0  0  0  0  0  0  0  0  0
   21.5641   18.4161   25.4332 H   0  0  0  0  0  0  0  0  0  0  0  0
   20.8013   18.3229   23.3957 C   0  0  0  0  0  0  0  0  0  0  0  0
   21.1965   19.3036   23.0993 H   0  0  0  0  0  0  0  0  0  0  0  0
   21.5638   17.5785   23.1299 H   0  0  0  0  0  0  0  0  0  0  0  0
   19.4975   18.0181   22.6202 C   0  0  0  0  0  0  0  0  0  0  0  0
   18.7461   18.7896   22.8345 H   0  0  0  0  0  0  0  0  0  0  0  0
   19.0751   17.0738   22.9897 H   0  0  0  0  0  0  0  0  0  0  0  0
   19.7037   17.8955   21.0895 C   0  0  0  0  0  0  0  0  0  0  0  0
   20.3784   17.0526   20.8875 H   0  0  0  0  0  0  0  0  0  0  0  0
   18.7434   17.6329   20.6253 H   0  0  0  0  0  0  0  0  0  0  0  0
   20.2650   19.1607   20.3944 C   0  0  0  0  0  0  0  0  0  0  0  0
   20.3755   18.9504   19.3218 H   0  0  0  0  0  0  0  0  0  0  0  0
   21.2747   19.3805   20.7657 H   0  0  0  0  0  0  0  0  0  0  0  0
   19.3654   20.4037   20.5669 C   0  0  0  0  0  0  0  0  0  0  0  0
   18.3426   20.1992   20.2247 H   0  0  0  0  0  0  0  0  0  0  0  0
   19.7568   21.2457   19.9816 H   0  0  0  0  0  0  0  0  0  0  0  0
   19.3212   20.7206   21.6168 H   0  0  0  0  0  0  0  0  0  0  0  0
  1  2  1  0  0  0  0
  1  3  2  0  0  0  0
  1  4  1  0  0  0  0
  4  5  1  0  0  0  0
  4  6  1  0  0  0  0
  4  7  1  0  0  0  0
  7  8  1  0  0  0  0
  7  9  1  0  0  0  0
  7 10  1  0  0  0  0
 10 11  1  0  0  0  0
 10 12  1  0  0  0  0
 10 13  1  0  0  0  0
 13 14  1  0  0  0  0
 13 15  1  0  0  0  0
 13 16  1  0  0  0  0
 16 17  1  0  0  0  0
 16 18  1  0  0  0  0
 16 19  1  0  0  0  0
 19 20  1  0  0  0  0
 19 21  1  0  0  0  0
 19 22  1  0  0  0  0
M  END
> <VM2 Rank>
32

> <Conf_Id>
79

> <Probability>
0.08

> <Sum Probability>
98.97

> <Delta G>
3.583

> <G>
-13.415

> <E>
-33.718

> <-TS>
20.303

> <U+W>
-51.603

> <U>
10.394

> <W>
-61.996

> <W(PB)>
-64.210

> <W(SA)>
2.214

> <Valence>
8.285

> <Coulomb>
1.520

> <VdW>
0.589

> <VdW6>
-9.071

> <VdW12>
9.660

> <Bond>
0.194

> <Angle>
3.031

> <Pdih>
5.059

> <Idih>
0.001

> <Tether>
0.000

$$$$
VeraChem MOL file


 22 21  0  0  0  0  0  0  0  0999 V2000     
   19.9081   18.8057   25.4498 C   0  0  0  0  0  0  0  0  0  0  0  0
   19.7496   19.5643   26.3861 O   0  5  0  0  0  0  0  0  0  0  0  0
   20.8541   18.0492   25.3511 O   0  0  0  0  0  0  0  0  0  0  0  0
   18.8448   18.7831   24.3552 C   0  0  0  0  0  0  0  0  0  0  0  0
   17.8711   18.6809   24.8482 H   0  0  0  0  0  0  0  0  0  0  0  0
   18.9826   17.8798   23.7498 H   0  0  0  0  0  0  0  0  0  0  0  0
   18.8346   20.0483   23.4544 C   0  0  0  0  0  0  0  0  0  0  0  0
   17.9980   19.9819   22.7470 H   0  0  0  0  0  0  0  0  0  0  0  0
   18.6282   20.9256   24.0827 H   0  0  0  0  0  0  0  0  0  0  0  0
   20.1552   20.2937   22.6797 C   0  0  0  0  0  0  0  0  0  0  0  0
   20.9606   20.4922   23.4001 H   0  0  0  0  0  0  0  0  0  0  0  0
   20.0499   21.2113   22.0851 H   0  0  0  0  0  0  0  0  0  0  0  0
   20.5995   19.1396   21.7464 C   0  0  0  0  0  0  0  0  0  0  0  0
   21.5484   19.4250   21.2724 H   0  0  0  0  0  0  0  0  0  0  0  0
   20.8161   18.2413   22.3399 H   0  0  0  0  0  0  0  0  0  0  0  0
   19.5691   18.8046   20.6446 C   0  0  0  0  0  0  0  0  0  0  0  0
   19.3210   19.7141   20.0805 H   0  0  0  0  0  0  0  0  0  0  0  0
   18.6367   18.4434   21.0982 H   0  0  0  0  0  0  0  0  0  0  0  0
   20.1049   17.7305   19.6768 C   0  0  0  0  0  0  0  0  0  0  0  0
   19.3606   17.5008   18.9033 H   0  0  0  0  0  0  0  0  0  0  0  0
   20.3357   16.8003   20.2124 H   0  0  0  0  0  0  0  0  0  0  0  0
   21.0195   18.0737   19.1757 H   0  0  0  0  0  0  0  0  0  0  0  0
  1  2  1  0  0  0  0
  1  3  2  0  0  0  0
  1  4  1  0  0  0  0
  4  5  1  0  0  0  0
  4  6  1  0  0  0  0
  4  7  1  0  0  0  0
  7  8  1  0  0  0  0
  7  9  1  0  0  0  0
  7 10  1  0  0  0  0
 10 11  1  0  0  0  0
 10 12  1  0  0  0  0
 10 13  1  0  0  0  0
 13 14  1  0  0  0  0
 13 15  1  0  0  0  0
 13 16  1  0  0  0  0
 16 17  1  0  0  0  0
 16 18  1  0  0  0  0
 16 19  1  0  0  0  0
 19 20  1  0  0  0  0
 19 21  1  0  0  0  0
 19 22  1  0  0  0  0
M  END
> <VM2 Rank>
33

> <Conf_Id>
484

> <Probability>
0.08

> <Sum Probability>
99.05

> <Delta G>
3.589

> <G>
-13.410

> <E>
-33.815

> <-TS>
20.405

> <U+W>
-51.700

> <U>
10.054

> <W>
-61.754

> <W(PB)>
-63.978

> <W(SA)>
2.224

> <Valence>
8.321

> <Coulomb>
1.289

> <VdW>
0.445

> <VdW6>
-9.398

> <VdW12>
9.842

> <Bond>
0.210

> <Angle>
3.153

> <Pdih>
4.957

> <Idih>
0.001

> <Tether>
0.000

$$$$
VeraChem MOL file


 22 21  0  0  0  0  0  0  0  0999 V2000     
   20.0209   18.9478   25.5173 C   0  0  0  0  0  0  0  0  0  0  0  0
   20.3772   19.8726   26.2210 O   0  5  0  0  0  0  0  0  0  0  0  0
   20.6453   17.9117   25.4022 O   0  0  0  0  0  0  0  0  0  0  0  0
   18.7022   19.0860   24.7616 C   0  0  0  0  0  0  0  0  0  0  0  0
   17.9454   19.4113   25.4849 H   0  0  0  0  0  0  0  0  0  0  0  0
   18.3908   18.0946   24.4140 H   0  0  0  0  0  0  0  0  0  0  0  0
   18.7489   20.0939   23.5805 C   0  0  0  0  0  0  0  0  0  0  0  0
   17.7487   20.1719   23.1334 H   0  0  0  0  0  0  0  0  0  0  0  0
   18.9858   21.0901   23.9789 H   0  0  0  0  0  0  0  0  0  0  0  0
   19.7756   19.7445   22.4748 C   0  0  0  0  0  0  0  0  0  0  0  0
   20.7848   19.6990   22.9065 H   0  0  0  0  0  0  0  0  0  0  0  0
   19.7860   20.5684   21.7502 H   0  0  0  0  0  0  0  0  0  0  0  0
   19.4641   18.4166   21.7418 C   0  0  0  0  0  0  0  0  0  0  0  0
   19.4792   17.5913   22.4654 H   0  0  0  0  0  0  0  0  0  0  0  0
   18.4484   18.4506   21.3252 H   0  0  0  0  0  0  0  0  0  0  0  0
   20.4739   18.0835   20.6187 C   0  0  0  0  0  0  0  0  0  0  0  0
   20.2685   17.0685   20.2517 H   0  0  0  0  0  0  0  0  0  0  0  0
   21.4926   18.0639   21.0300 H   0  0  0  0  0  0  0  0  0  0  0  0
   20.4119   19.0625   19.4260 C   0  0  0  0  0  0  0  0  0  0  0  0
   20.7288   20.0715   19.7173 H   0  0  0  0  0  0  0  0  0  0  0  0
   19.3935   19.1241   19.0208 H   0  0  0  0  0  0  0  0  0  0  0  0
   21.0765   18.7266   18.6195 H   0  0  0  0  0  0  0  0  0  0  0  0
  1  2  1  0  0  0  0
  1  3  2  0  0  0  0
  1  4  1  0  0  0  0
  4  5  1  0  0  0  0
  4  6  1  0  0  0  0
  4  7  1  0  0  0  0
  7  8  1  0  0  0  0
  7  9  1  0  0  0  0
  7 10  1  0  0  0  0
 10 11  1  0  0  0  0
 10 12  1  0  0  0  0
 10 13  1  0  0  0  0
 13 14  1  0  0  0  0
 13 15  1  0  0  0  0
 13 16  1  0  0  0  0
 16 17  1  0  0  0  0
 16 18  1  0  0  0  0
 16 19  1  0  0  0  0
 19 20  1  0  0  0  0
 19 21  1  0  0  0  0
 19 22  1  0  0  0  0
M  END
> <VM2 Rank>
34

> <Conf_Id>
390

> <Probability>
0.08

> <Sum Probability>
99.13

> <Delta G>
3.609

> <G>
-13.389

> <E>
-33.472

> <-TS>
20.083

> <U+W>
-51.356

> <U>
10.427

> <W>
-61.784

> <W(PB)>
-64.014

> <W(SA)>
2.230

> <Valence>
8.446

> <Coulomb>
1.306

> <VdW>
0.676

> <VdW6>
-8.928

> <VdW12>
9.604

> <Bond>
0.209

> <Angle>
3.066

> <Pdih>
5.169

> <Idih>
0.001

> <Tether>
0.000

$$$$
VeraChem MOL file


 22 21  0  0  0  0  0  0  0  0999 V2000     
   19.6730   18.8804   25.5139 C   0  0  0  0  0  0  0  0  0  0  0  0
   18.9841   19.6023   26.2078 O   0  5  0  0  0  0  0  0  0  0  0  0
   19.4835   17.6863   25.3912 O   0  0  0  0  0  0  0  0  0  0  0  0
   20.8581   19.5042   24.7822 C   0  0  0  0  0  0  0  0  0  0  0  0
   21.5239   18.7023   24.4438 H   0  0  0  0  0  0  0  0  0  0  0  0
   21.4250   20.0862   25.5181 H   0  0  0  0  0  0  0  0  0  0  0  0
   20.4598   20.4257   23.5967 C   0  0  0  0  0  0  0  0  0  0  0  0
   19.8604   21.2597   23.9872 H   0  0  0  0  0  0  0  0  0  0  0  0
   21.3663   20.8735   23.1678 H   0  0  0  0  0  0  0  0  0  0  0  0
   19.6586   19.7218   22.4736 C   0  0  0  0  0  0  0  0  0  0  0  0
   19.3544   20.4847   21.7460 H   0  0  0  0  0  0  0  0  0  0  0  0
   18.7318   19.3009   22.8869 H   0  0  0  0  0  0  0  0  0  0  0  0
   20.4572   18.6091   21.7514 C   0  0  0  0  0  0  0  0  0  0  0  0
   21.3941   19.0218   21.3534 H   0  0  0  0  0  0  0  0  0  0  0  0
   20.7383   17.8354   22.4775 H   0  0  0  0  0  0  0  0  0  0  0  0
   19.6660   17.9268   20.6110 C   0  0  0  0  0  0  0  0  0  0  0  0
   18.7210   17.5265   21.0035 H   0  0  0  0  0  0  0  0  0  0  0  0
   20.2426   17.0634   20.2516 H   0  0  0  0  0  0  0  0  0  0  0  0
   19.3797   18.8623   19.4161 C   0  0  0  0  0  0  0  0  0  0  0  0
   20.3085   19.3015   19.0295 H   0  0  0  0  0  0  0  0  0  0  0  0
   18.7034   19.6787   19.6979 H   0  0  0  0  0  0  0  0  0  0  0  0
   18.9038   18.3052   18.5987 H   0  0  0  0  0  0  0  0  0  0  0  0
  1  2  1  0  0  0  0
  1  3  2  0  0  0  0
  1  4  1  0  0  0  0
  4  5  1  0  0  0  0
  4  6  1  0  0  0  0
  4  7  1  0  0  0  0
  7  8  1  0  0  0  0
  7  9  1  0  0  0  0
  7 10  1  0  0  0  0
 10 11  1  0  0  0  0
 10 12  1  0  0  0  0
 10 13  1  0  0  0  0
 13 14  1  0  0  0  0
 13 15  1  0  0  0  0
 13 16  1  0  0  0  0
 16 17  1  0  0  0  0
 16 18  1  0  0  0  0
 16 19  1  0  0  0  0
 19 20  1  0  0  0  0
 19 21  1  0  0  0  0
 19 22  1  0  0  0  0
M  END
> <VM2 Rank>
35

> <Conf_Id>
249

> <Probability>
0.08

> <Sum Probability>
99.20

> <Delta G>
3.611

> <G>
-13.387

> <E>
-33.469

> <-TS>
20.083

> <U+W>
-51.354

> <U>
10.427

> <W>
-61.781

> <W(PB)>
-64.012

> <W(SA)>
2.231

> <Valence>
8.446

> <Coulomb>
1.305

> <VdW>
0.676

> <VdW6>
-8.928

> <VdW12>
9.604

> <Bond>
0.209

> <Angle>
3.066

> <Pdih>
5.170

> <Idih>
0.001

> <Tether>
0.000

$$$$
VeraChem MOL file


 22 21  0  0  0  0  0  0  0  0999 V2000     
   20.1429   19.0123   25.4413 C   0  0  0  0  0  0  0  0  0  0  0  0
   19.4497   19.3005   26.3972 O   0  5  0  0  0  0  0  0  0  0  0  0
   20.7684   17.9740   25.3542 O   0  0  0  0  0  0  0  0  0  0  0  0
   20.2556   20.0238   24.3042 C   0  0  0  0  0  0  0  0  0  0  0  0
   21.1087   19.7497   23.6729 H   0  0  0  0  0  0  0  0  0  0  0  0
   20.5005   20.9934   24.7531 H   0  0  0  0  0  0  0  0  0  0  0  0
   18.9663   20.1640   23.4496 C   0  0  0  0  0  0  0  0  0  0  0  0
   18.1485   20.5037   24.1000 H   0  0  0  0  0  0  0  0  0  0  0  0
   19.1094   20.9593   22.7068 H   0  0  0  0  0  0  0  0  0  0  0  0
   18.5240   18.8589   22.7386 C   0  0  0  0  0  0  0  0  0  0  0  0
   17.6037   19.0597   22.1735 H   0  0  0  0  0  0  0  0  0  0  0  0
   18.2545   18.1119   23.4978 H   0  0  0  0  0  0  0  0  0  0  0  0
   19.5734   18.2371   21.7834 C   0  0  0  0  0  0  0  0  0  0  0  0
   20.4604   17.9284   22.3527 H   0  0  0  0  0  0  0  0  0  0  0  0
   19.1509   17.3163   21.3589 H   0  0  0  0  0  0  0  0  0  0  0  0
   19.9914   19.1759   20.6294 C   0  0  0  0  0  0  0  0  0  0  0  0
   20.4863   20.0698   21.0315 H   0  0  0  0  0  0  0  0  0  0  0  0
   19.0985   19.5186   20.0887 H   0  0  0  0  0  0  0  0  0  0  0  0
   20.9484   18.4724   19.6461 C   0  0  0  0  0  0  0  0  0  0  0  0
   20.4716   17.5923   19.1952 H   0  0  0  0  0  0  0  0  0  0  0  0
   21.8628   18.1433   20.1569 H   0  0  0  0  0  0  0  0  0  0  0  0
   21.2390   19.1531   18.8354 H   0  0  0  0  0  0  0  0  0  0  0  0
  1  2  1  0  0  0  0
  1  3  2  0  0  0  0
  1  4  1  0  0  0  0
  4  5  1  0  0  0  0
  4  6  1  0  0  0  0
  4  7  1  0  0  0  0
  7  8  1  0  0  0  0
  7  9  1  0  0  0  0
  7 10  1  0  0  0  0
 10 11  1  0  0  0  0
 10 12  1  0  0  0  0
 10 13  1  0  0  0  0
 13 14  1  0  0  0  0
 13 15  1  0  0  0  0
 13 16  1  0  0  0  0
 16 17  1  0  0  0  0
 16 18  1  0  0  0  0
 16 19  1  0  0  0  0
 19 20  1  0  0  0  0
 19 21  1  0  0  0  0
 19 22  1  0  0  0  0
M  END
> <VM2 Rank>
36

> <Conf_Id>
729

> <Probability>
0.08

> <Sum Probability>
99.28

> <Delta G>
3.619

> <G>
-13.380

> <E>
-33.785

> <-TS>
20.406

> <U+W>
-51.670

> <U>
10.053

> <W>
-61.724

> <W(PB)>
-63.943

> <W(SA)>
2.219

> <Valence>
8.321

> <Coulomb>
1.288

> <VdW>
0.445

> <VdW6>
-9.397

> <VdW12>
9.842

> <Bond>
0.210

> <Angle>
3.152

> <Pdih>
4.957

> <Idih>
0.001

> <Tether>
0.000

$$$$
VeraChem MOL file


 22 21  0  0  0  0  0  0  0  0999 V2000     
   19.5613   19.4552   25.6327 C   0  0  0  0  0  0  0  0  0  0  0  0
   20.2023   20.4411   25.9386 O   0  5  0  0  0  0  0  0  0  0  0  0
   18.9725   18.7597   26.4366 O   0  0  0  0  0  0  0  0  0  0  0  0
   19.5116   19.0555   24.1624 C   0  0  0  0  0  0  0  0  0  0  0  0
   19.5360   19.9758   23.5681 H   0  0  0  0  0  0  0  0  0  0  0  0
   18.5488   18.5656   23.9745 H   0  0  0  0  0  0  0  0  0  0  0  0
   20.6779   18.1202   23.7549 C   0  0  0  0  0  0  0  0  0  0  0  0
   21.6295   18.6563   23.8745 H   0  0  0  0  0  0  0  0  0  0  0  0
   20.7117   17.2742   24.4553 H   0  0  0  0  0  0  0  0  0  0  0  0
   20.5745   17.5609   22.3136 C   0  0  0  0  0  0  0  0  0  0  0  0
   19.6736   16.9403   22.2133 H   0  0  0  0  0  0  0  0  0  0  0  0
   21.4237   16.8807   22.1615 H   0  0  0  0  0  0  0  0  0  0  0  0
   20.6129   18.6371   21.1991 C   0  0  0  0  0  0  0  0  0  0  0  0
   21.1769   19.5155   21.5418 H   0  0  0  0  0  0  0  0  0  0  0  0
   21.1695   18.2318   20.3430 H   0  0  0  0  0  0  0  0  0  0  0  0
   19.2096   19.0573   20.7041 C   0  0  0  0  0  0  0  0  0  0  0  0
   18.6060   19.4420   21.5348 H   0  0  0  0  0  0  0  0  0  0  0  0
   18.6800   18.1782   20.3117 H   0  0  0  0  0  0  0  0  0  0  0  0
   19.2974   20.1319   19.6020 C   0  0  0  0  0  0  0  0  0  0  0  0
   18.2945   20.4143   19.2563 H   0  0  0  0  0  0  0  0  0  0  0  0
   19.8627   19.7623   18.7365 H   0  0  0  0  0  0  0  0  0  0  0  0
   19.7945   21.0369   19.9753 H   0  0  0  0  0  0  0  0  0  0  0  0
  1  2  1  0  0  0  0
  1  3  2  0  0  0  0
  1  4  1  0  0  0  0
  4  5  1  0  0  0  0
  4  6  1  0  0  0  0
  4  7  1  0  0  0  0
  7  8  1  0  0  0  0
  7  9  1  0  0  0  0
  7 10  1  0  0  0  0
 10 11  1  0  0  0  0
 10 12  1  0  0  0  0
 10 13  1  0  0  0  0
 13 14  1  0  0  0  0
 13 15  1  0  0  0  0
 13 16  1  0  0  0  0
 16 17  1  0  0  0  0
 16 18  1  0  0  0  0
 16 19  1  0  0  0  0
 19 20  1  0  0  0  0
 19 21  1  0  0  0  0
 19 22  1  0  0  0  0
M  END
> <VM2 Rank>
37

> <Conf_Id>
161

> <Probability>
0.06

> <Sum Probability>
99.34

> <Delta G>
3.779

> <G>
-13.219

> <E>
-33.159

> <-TS>
19.939

> <U+W>
-51.043

> <U>
10.045

> <W>
-61.088

> <W(PB)>
-63.358

> <W(SA)>
2.270

> <Valence>
10.100

> <Coulomb>
-0.883

> <VdW>
0.828

> <VdW6>
-8.177

> <VdW12>
9.005

> <Bond>
0.182

> <Angle>
2.988

> <Pdih>
6.930

> <Idih>
0.001

> <Tether>
0.000

$$$$
VeraChem MOL file


 22 21  0  0  0  0  0  0  0  0999 V2000     
   20.0534   18.7869   25.3436 C   0  0  0  0  0  0  0  0  0  0  0  0
   19.1666   18.4786   26.1157 O   0  5  0  0  0  0  0  0  0  0  0  0
   20.9815   18.0556   25.0598 O   0  0  0  0  0  0  0  0  0  0  0  0
   20.0160   20.1821   24.7258 C   0  0  0  0  0  0  0  0  0  0  0  0
   20.9911   20.3910   24.2710 H   0  0  0  0  0  0  0  0  0  0  0  0
   19.8968   20.8984   25.5469 H   0  0  0  0  0  0  0  0  0  0  0  0
   18.8744   20.3898   23.6932 C   0  0  0  0  0  0  0  0  0  0  0  0
   17.9101   20.2394   24.1980 H   0  0  0  0  0  0  0  0  0  0  0  0
   18.8832   21.4337   23.3519 H   0  0  0  0  0  0  0  0  0  0  0  0
   18.9458   19.4507   22.4642 C   0  0  0  0  0  0  0  0  0  0  0  0
   18.0639   19.6320   21.8350 H   0  0  0  0  0  0  0  0  0  0  0  0
   18.8792   18.4072   22.7996 H   0  0  0  0  0  0  0  0  0  0  0  0
   20.2237   19.6503   21.6137 C   0  0  0  0  0  0  0  0  0  0  0  0
   20.3495   20.7202   21.3992 H   0  0  0  0  0  0  0  0  0  0  0  0
   21.1067   19.3384   22.1874 H   0  0  0  0  0  0  0  0  0  0  0  0
   20.1929   18.8791   20.2737 C   0  0  0  0  0  0  0  0  0  0  0  0
   21.0826   19.1514   19.6894 H   0  0  0  0  0  0  0  0  0  0  0  0
   19.3235   19.1970   19.6819 H   0  0  0  0  0  0  0  0  0  0  0  0
   20.1656   17.3459   20.4544 C   0  0  0  0  0  0  0  0  0  0  0  0
   21.0094   17.0085   21.0705 H   0  0  0  0  0  0  0  0  0  0  0  0
   20.2338   16.8426   19.4813 H   0  0  0  0  0  0  0  0  0  0  0  0
   19.2361   17.0165   20.9353 H   0  0  0  0  0  0  0  0  0  0  0  0
  1  2  1  0  0  0  0
  1  3  2  0  0  0  0
  1  4  1  0  0  0  0
  4  5  1  0  0  0  0
  4  6  1  0  0  0  0
  4  7  1  0  0  0  0
  7  8  1  0  0  0  0
  7  9  1  0  0  0  0
  7 10  1  0  0  0  0
 10 11  1  0  0  0  0
 10 12  1  0  0  0  0
 10 13  1  0  0  0  0
 13 14  1  0  0  0  0
 13 15  1  0  0  0  0
 13 16  1  0  0  0  0
 16 17  1  0  0  0  0
 16 18  1  0  0  0  0
 16 19  1  0  0  0  0
 19 20  1  0  0  0  0
 19 21  1  0  0  0  0
 19 22  1  0  0  0  0
M  END
> <VM2 Rank>
38

> <Conf_Id>
560

> <Probability>
0.06

> <Sum Probability>
99.39

> <Delta G>
3.789

> <G>
-13.209

> <E>
-33.372

> <-TS>
20.162

> <U+W>
-51.256

> <U>
10.893

> <W>
-62.149

> <W(PB)>
-64.367

> <W(SA)>
2.218

> <Valence>
8.348

> <Coulomb>
2.011

> <VdW>
0.534

> <VdW6>
-9.124

> <VdW12>
9.658

> <Bond>
0.201

> <Angle>
2.939

> <Pdih>
5.207

> <Idih>
0.002

> <Tether>
0.000

$$$$
VeraChem MOL file


 22 21  0  0  0  0  0  0  0  0999 V2000     
   20.2732   18.9624   25.2360 C   0  0  0  0  0  0  0  0  0  0  0  0
   20.7592   20.0453   25.4984 O   0  5  0  0  0  0  0  0  0  0  0  0
   20.9149   17.9309   25.1998 O   0  0  0  0  0  0  0  0  0  0  0  0
   18.7649   18.8803   25.0091 C   0  0  0  0  0  0  0  0  0  0  0  0
   18.2946   19.1805   25.9526 H   0  0  0  0  0  0  0  0  0  0  0  0
   18.4863   17.8333   24.8389 H   0  0  0  0  0  0  0  0  0  0  0  0
   18.2162   19.7765   23.8633 C   0  0  0  0  0  0  0  0  0  0  0  0
   17.1402   19.9199   24.0310 H   0  0  0  0  0  0  0  0  0  0  0  0
   18.6669   20.7770   23.9216 H   0  0  0  0  0  0  0  0  0  0  0  0
   18.3978   19.1943   22.4396 C   0  0  0  0  0  0  0  0  0  0  0  0
   17.8409   19.8293   21.7370 H   0  0  0  0  0  0  0  0  0  0  0  0
   17.9380   18.1980   22.3861 H   0  0  0  0  0  0  0  0  0  0  0  0
   19.8696   19.1127   21.9750 C   0  0  0  0  0  0  0  0  0  0  0  0
   20.3584   20.0851   22.1250 H   0  0  0  0  0  0  0  0  0  0  0  0
   20.4138   18.3817   22.5862 H   0  0  0  0  0  0  0  0  0  0  0  0
   19.9775   18.7031   20.4909 C   0  0  0  0  0  0  0  0  0  0  0  0
   19.4440   19.4317   19.8648 H   0  0  0  0  0  0  0  0  0  0  0  0
   19.4874   17.7314   20.3389 H   0  0  0  0  0  0  0  0  0  0  0  0
   21.4467   18.6135   20.0320 C   0  0  0  0  0  0  0  0  0  0  0  0
   21.5053   18.3204   18.9758 H   0  0  0  0  0  0  0  0  0  0  0  0
   21.9972   17.8688   20.6219 H   0  0  0  0  0  0  0  0  0  0  0  0
   21.9527   19.5813   20.1443 H   0  0  0  0  0  0  0  0  0  0  0  0
  1  2  1  0  0  0  0
  1  3  2  0  0  0  0
  1  4  1  0  0  0  0
  4  5  1  0  0  0  0
  4  6  1  0  0  0  0
  4  7  1  0  0  0  0
  7  8  1  0  0  0  0
  7  9  1  0  0  0  0
  7 10  1  0  0  0  0
 10 11  1  0  0  0  0
 10 12  1  0  0  0  0
 10 13  1  0  0  0  0
 13 14  1  0  0  0  0
 13 15  1  0  0  0  0
 13 16  1  0  0  0  0
 16 17  1  0  0  0  0
 16 18  1  0  0  0  0
 16 19  1  0  0  0  0
 19 20  1  0  0  0  0
 19 21  1  0  0  0  0
 19 22  1  0  0  0  0
M  END
> <VM2 Rank>
39

> <Conf_Id>
265

> <Probability>
0.06

> <Sum Probability>
99.45

> <Delta G>
3.798

> <G>
-13.200

> <E>
-33.389

> <-TS>
20.188

> <U+W>
-51.274

> <U>
11.237

> <W>
-62.510

> <W(PB)>
-64.777

> <W(SA)>
2.267

> <Valence>
9.030

> <Coulomb>
1.667

> <VdW>
0.540

> <VdW6>
-8.824

> <VdW12>
9.364

> <Bond>
0.186

> <Angle>
3.195

> <Pdih>
5.641

> <Idih>
0.007

> <Tether>
0.000

$$$$
VeraChem MOL file


 22 21  0  0  0  0  0  0  0  0999 V2000     
   20.0181   19.4377   25.3187 C   0  0  0  0  0  0  0  0  0  0  0  0
   20.8630   20.2411   24.9761 O   0  5  0  0  0  0  0  0  0  0  0  0
   19.1000   19.7065   26.0686 O   0  0  0  0  0  0  0  0  0  0  0  0
   20.1341   18.0036   24.8093 C   0  0  0  0  0  0  0  0  0  0  0  0
   20.0895   17.3433   25.6832 H   0  0  0  0  0  0  0  0  0  0  0  0
   21.1279   17.8670   24.3678 H   0  0  0  0  0  0  0  0  0  0  0  0
   19.0259   17.5956   23.8003 C   0  0  0  0  0  0  0  0  0  0  0  0
   19.1487   16.5357   23.5397 H   0  0  0  0  0  0  0  0  0  0  0  0
   18.0489   17.6792   24.2962 H   0  0  0  0  0  0  0  0  0  0  0  0
   19.0007   18.4403   22.5029 C   0  0  0  0  0  0  0  0  0  0  0  0
   18.8205   19.4930   22.7579 H   0  0  0  0  0  0  0  0  0  0  0  0
   18.1461   18.1173   21.8930 H   0  0  0  0  0  0  0  0  0  0  0  0
   20.2962   18.3154   21.6649 C   0  0  0  0  0  0  0  0  0  0  0  0
   21.1379   18.7638   22.2095 H   0  0  0  0  0  0  0  0  0  0  0  0
   20.5377   17.2522   21.5323 H   0  0  0  0  0  0  0  0  0  0  0  0
   20.1879   18.9742   20.2700 C   0  0  0  0  0  0  0  0  0  0  0  0
   19.3606   18.5198   19.7077 H   0  0  0  0  0  0  0  0  0  0  0  0
   21.1044   18.7559   19.7046 H   0  0  0  0  0  0  0  0  0  0  0  0
   19.9942   20.5047   20.3331 C   0  0  0  0  0  0  0  0  0  0  0  0
   20.0118   20.9366   19.3242 H   0  0  0  0  0  0  0  0  0  0  0  0
   20.7939   20.9775   20.9183 H   0  0  0  0  0  0  0  0  0  0  0  0
   19.0324   20.7673   20.7911 H   0  0  0  0  0  0  0  0  0  0  0  0
  1  2  1  0  0  0  0
  1  3  2  0  0  0  0
  1  4  1  0  0  0  0
  4  5  1  0  0  0  0
  4  6  1  0  0  0  0
  4  7  1  0  0  0  0
  7  8  1  0  0  0  0
  7  9  1  0  0  0  0
  7 10  1  0  0  0  0
 10 11  1  0  0  0  0
 10 12  1  0  0  0  0
 10 13  1  0  0  0  0
 13 14  1  0  0  0  0
 13 15  1  0  0  0  0
 13 16  1  0  0  0  0
 16 17  1  0  0  0  0
 16 18  1  0  0  0  0
 16 19  1  0  0  0  0
 19 20  1  0  0  0  0
 19 21  1  0  0  0  0
 19 22  1  0  0  0  0
M  END
> <VM2 Rank>
40

> <Conf_Id>
177

> <Probability>
0.05

> <Sum Probability>
99.50

> <Delta G>
3.826

> <G>
-13.172

> <E>
-33.335

> <-TS>
20.163

> <U+W>
-51.220

> <U>
10.892

> <W>
-62.112

> <W(PB)>
-64.329

> <W(SA)>
2.217

> <Valence>
8.348

> <Coulomb>
2.010

> <VdW>
0.534

> <VdW6>
-9.124

> <VdW12>
9.657

> <Bond>
0.201

> <Angle>
2.939

> <Pdih>
5.207

> <Idih>
0.002

> <Tether>
0.000

$$$$
VeraChem MOL file


 22 21  0  0  0  0  0  0  0  0999 V2000     
   20.2828   19.0826   25.6485 C   0  0  0  0  0  0  0  0  0  0  0  0
   20.7054   20.1814   25.9496 O   0  5  0  0  0  0  0  0  0  0  0  0
   20.0290   18.2141   26.4595 O   0  0  0  0  0  0  0  0  0  0  0  0
   20.0364   18.7846   24.1738 C   0  0  0  0  0  0  0  0  0  0  0  0
   20.2005   17.7128   24.0104 H   0  0  0  0  0  0  0  0  0  0  0  0
   20.7928   19.3270   23.5955 H   0  0  0  0  0  0  0  0  0  0  0  0
   18.6135   19.1863   23.7099 C   0  0  0  0  0  0  0  0  0  0  0  0
   17.8804   18.7363   24.3936 H   0  0  0  0  0  0  0  0  0  0  0  0
   18.4959   20.2745   23.8063 H   0  0  0  0  0  0  0  0  0  0  0  0
   18.2670   18.7525   22.2634 C   0  0  0  0  0  0  0  0  0  0  0  0
   17.2267   19.0479   22.0701 H   0  0  0  0  0  0  0  0  0  0  0  0
   18.2857   17.6570   22.1831 H   0  0  0  0  0  0  0  0  0  0  0  0
   19.1602   19.3872   21.1675 C   0  0  0  0  0  0  0  0  0  0  0  0
   18.5374   19.5908   20.2857 H   0  0  0  0  0  0  0  0  0  0  0  0
   19.5381   20.3617   21.5060 H   0  0  0  0  0  0  0  0  0  0  0  0
   20.3314   18.4781   20.7286 C   0  0  0  0  0  0  0  0  0  0  0  0
   19.9348   17.5303   20.3392 H   0  0  0  0  0  0  0  0  0  0  0  0
   20.9656   18.2239   21.5862 H   0  0  0  0  0  0  0  0  0  0  0  0
   21.1943   19.1523   19.6432 C   0  0  0  0  0  0  0  0  0  0  0  0
   20.5958   19.3834   18.7523 H   0  0  0  0  0  0  0  0  0  0  0  0
   22.0165   18.4924   19.3374 H   0  0  0  0  0  0  0  0  0  0  0  0
   21.6314   20.0883   20.0151 H   0  0  0  0  0  0  0  0  0  0  0  0
  1  2  1  0  0  0  0
  1  3  2  0  0  0  0
  1  4  1  0  0  0  0
  4  5  1  0  0  0  0
  4  6  1  0  0  0  0
  4  7  1  0  0  0  0
  7  8  1  0  0  0  0
  7  9  1  0  0  0  0
  7 10  1  0  0  0  0
 10 11  1  0  0  0  0
 10 12  1  0  0  0  0
 10 13  1  0  0  0  0
 13 14  1  0  0  0  0
 13 15  1  0  0  0  0
 13 16  1  0  0  0  0
 16 17  1  0  0  0  0
 16 18  1  0  0  0  0
 16 19  1  0  0  0  0
 19 20  1  0  0  0  0
 19 21  1  0  0  0  0
 19 22  1  0  0  0  0
M  END
> <VM2 Rank>
41

> <Conf_Id>
5

> <Probability>
0.05

> <Sum Probability>
99.55

> <Delta G>
3.830

> <G>
-13.168

> <E>
-33.108

> <-TS>
19.939

> <U+W>
-50.993

> <U>
10.045

> <W>
-61.037

> <W(PB)>
-63.303

> <W(SA)>
2.266

> <Valence>
10.100

> <Coulomb>
-0.883

> <VdW>
0.828

> <VdW6>
-8.177

> <VdW12>
9.005

> <Bond>
0.182

> <Angle>
2.988

> <Pdih>
6.930

> <Idih>
0.001

> <Tether>
0.000

$$$$
VeraChem MOL file


 22 21  0  0  0  0  0  0  0  0999 V2000     
   20.2561   19.2791   25.2238 C   0  0  0  0  0  0  0  0  0  0  0  0
   20.7830   20.3680   25.1064 O   0  5  0  0  0  0  0  0  0  0  0  0
   20.8549   18.2781   25.5659 O   0  0  0  0  0  0  0  0  0  0  0  0
   18.7486   19.1807   24.9976 C   0  0  0  0  0  0  0  0  0  0  0  0
   18.3596   20.1756   24.7492 H   0  0  0  0  0  0  0  0  0  0  0  0
   18.3096   18.9046   25.9633 H   0  0  0  0  0  0  0  0  0  0  0  0
   18.3043   18.1459   23.9258 C   0  0  0  0  0  0  0  0  0  0  0  0
   18.8599   17.2071   24.0585 H   0  0  0  0  0  0  0  0  0  0  0  0
   17.2493   17.9007   24.1084 H   0  0  0  0  0  0  0  0  0  0  0  0
   18.4281   18.6339   22.4611 C   0  0  0  0  0  0  0  0  0  0  0  0
   17.8640   19.5679   22.3337 H   0  0  0  0  0  0  0  0  0  0  0  0
   17.9456   17.8909   21.8114 H   0  0  0  0  0  0  0  0  0  0  0  0
   19.8844   18.8376   21.9856 C   0  0  0  0  0  0  0  0  0  0  0  0
   20.3443   19.6674   22.5370 H   0  0  0  0  0  0  0  0  0  0  0  0
   20.4744   17.9377   22.2073 H   0  0  0  0  0  0  0  0  0  0  0  0
   19.9537   19.1420   20.4741 C   0  0  0  0  0  0  0  0  0  0  0  0
   19.3627   20.0409   20.2505 H   0  0  0  0  0  0  0  0  0  0  0  0
   19.5042   18.3147   19.9076 H   0  0  0  0  0  0  0  0  0  0  0  0
   21.4067   19.3538   20.0037 C   0  0  0  0  0  0  0  0  0  0  0  0
   21.8715   20.1962   20.5327 H   0  0  0  0  0  0  0  0  0  0  0  0
   21.4378   19.5701   18.9279 H   0  0  0  0  0  0  0  0  0  0  0  0
   22.0134   18.4574   20.1873 H   0  0  0  0  0  0  0  0  0  0  0  0
  1  2  1  0  0  0  0
  1  3  2  0  0  0  0
  1  4  1  0  0  0  0
  4  5  1  0  0  0  0
  4  6  1  0  0  0  0
  4  7  1  0  0  0  0
  7  8  1  0  0  0  0
  7  9  1  0  0  0  0
  7 10  1  0  0  0  0
 10 11  1  0  0  0  0
 10 12  1  0  0  0  0
 10 13  1  0  0  0  0
 13 14  1  0  0  0  0
 13 15  1  0  0  0  0
 13 16  1  0  0  0  0
 16 17  1  0  0  0  0
 16 18  1  0  0  0  0
 16 19  1  0  0  0  0
 19 20  1  0  0  0  0
 19 21  1  0  0  0  0
 19 22  1  0  0  0  0
M  END
> <VM2 Rank>
42

> <Conf_Id>
269

> <Probability>
0.05

> <Sum Probability>
99.61

> <Delta G>
3.842

> <G>
-13.156

> <E>
-33.344

> <-TS>
20.188

> <U+W>
-51.229

> <U>
11.237

> <W>
-62.466

> <W(PB)>
-64.731

> <W(SA)>
2.265

> <Valence>
9.029

> <Coulomb>
1.667

> <VdW>
0.540

> <VdW6>
-8.824

> <VdW12>
9.364

> <Bond>
0.186

> <Angle>
3.195

> <Pdih>
5.641

> <Idih>
0.007

> <Tether>
0.000

$$$$
VeraChem MOL file


 22 21  0  0  0  0  0  0  0  0999 V2000     
   19.6481   19.3699   25.7715 C   0  0  0  0  0  0  0  0  0  0  0  0
   20.4787   20.1185   26.2470 O   0  5  0  0  0  0  0  0  0  0  0  0
   18.4655   19.4147   26.0469 O   0  0  0  0  0  0  0  0  0  0  0  0
   20.1130   18.3274   24.7608 C   0  0  0  0  0  0  0  0  0  0  0  0
   19.4687   17.4455   24.8596 H   0  0  0  0  0  0  0  0  0  0  0  0
   21.1295   18.0189   25.0332 H   0  0  0  0  0  0  0  0  0  0  0  0
   20.0844   18.8489   23.3029 C   0  0  0  0  0  0  0  0  0  0  0  0
   19.0615   19.1669   23.0624 H   0  0  0  0  0  0  0  0  0  0  0  0
   20.7286   19.7351   23.2208 H   0  0  0  0  0  0  0  0  0  0  0  0
   20.5473   17.7707   22.2979 C   0  0  0  0  0  0  0  0  0  0  0  0
   19.8442   16.9267   22.3183 H   0  0  0  0  0  0  0  0  0  0  0  0
   21.5173   17.3717   22.6246 H   0  0  0  0  0  0  0  0  0  0  0  0
   20.6980   18.2798   20.8424 C   0  0  0  0  0  0  0  0  0  0  0  0
   21.4676   19.0623   20.7945 H   0  0  0  0  0  0  0  0  0  0  0  0
   21.0829   17.4460   20.2395 H   0  0  0  0  0  0  0  0  0  0  0  0
   19.3843   18.7790   20.1905 C   0  0  0  0  0  0  0  0  0  0  0  0
   18.5200   18.2638   20.6318 H   0  0  0  0  0  0  0  0  0  0  0  0
   19.3937   18.5032   19.1269 H   0  0  0  0  0  0  0  0  0  0  0  0
   19.2007   20.3102   20.2842 C   0  0  0  0  0  0  0  0  0  0  0  0
   18.2657   20.6150   19.7968 H   0  0  0  0  0  0  0  0  0  0  0  0
   20.0259   20.8334   19.7838 H   0  0  0  0  0  0  0  0  0  0  0  0
   19.1634   20.6544   21.3239 H   0  0  0  0  0  0  0  0  0  0  0  0
  1  2  1  0  0  0  0
  1  3  2  0  0  0  0
  1  4  1  0  0  0  0
  4  5  1  0  0  0  0
  4  6  1  0  0  0  0
  4  7  1  0  0  0  0
  7  8  1  0  0  0  0
  7  9  1  0  0  0  0
  7 10  1  0  0  0  0
 10 11  1  0  0  0  0
 10 12  1  0  0  0  0
 10 13  1  0  0  0  0
 13 14  1  0  0  0  0
 13 15  1  0  0  0  0
 13 16  1  0  0  0  0
 16 17  1  0  0  0  0
 16 18  1  0  0  0  0
 16 19  1  0  0  0  0
 19 20  1  0  0  0  0
 19 21  1  0  0  0  0
 19 22  1  0  0  0  0
M  END
> <VM2 Rank>
43

> <Conf_Id>
346

> <Probability>
0.04

> <Sum Probability>
99.65

> <Delta G>
3.935

> <G>
-13.064

> <E>
-32.972

> <-TS>
19.909

> <U+W>
-50.857

> <U>
10.452

> <W>
-61.309

> <W(PB)>
-63.579

> <W(SA)>
2.270

> <Valence>
10.097

> <Coulomb>
-0.504

> <VdW>
0.859

> <VdW6>
-8.064

> <VdW12>
8.924

> <Bond>
0.175

> <Angle>
2.998

> <Pdih>
6.924

> <Idih>
0.000

> <Tether>
0.000

$$$$
VeraChem MOL file


 22 21  0  0  0  0  0  0  0  0999 V2000     
   19.8541   18.7236   25.6668 C   0  0  0  0  0  0  0  0  0  0  0  0
   19.5259   19.3703   26.6418 O   0  5  0  0  0  0  0  0  0  0  0  0
   20.6813   17.8341   25.6966 O   0  0  0  0  0  0  0  0  0  0  0  0
   19.2073   19.0611   24.3284 C   0  0  0  0  0  0  0  0  0  0  0  0
   18.1809   19.3940   24.5233 H   0  0  0  0  0  0  0  0  0  0  0  0
   19.1369   18.1363   23.7473 H   0  0  0  0  0  0  0  0  0  0  0  0
   19.9813   20.1555   23.5468 C   0  0  0  0  0  0  0  0  0  0  0  0
   20.0045   21.0616   24.1679 H   0  0  0  0  0  0  0  0  0  0  0  0
   21.0286   19.8532   23.4087 H   0  0  0  0  0  0  0  0  0  0  0  0
   19.3394   20.5067   22.1806 C   0  0  0  0  0  0  0  0  0  0  0  0
   19.4687   21.5841   22.0092 H   0  0  0  0  0  0  0  0  0  0  0  0
   18.2543   20.3385   22.2149 H   0  0  0  0  0  0  0  0  0  0  0  0
   19.9543   19.7654   20.9670 C   0  0  0  0  0  0  0  0  0  0  0  0
   19.4768   20.1457   20.0536 H   0  0  0  0  0  0  0  0  0  0  0  0
   21.0199   20.0199   20.8858 H   0  0  0  0  0  0  0  0  0  0  0  0
   19.7969   18.2300   21.0123 C   0  0  0  0  0  0  0  0  0  0  0  0
   18.7439   17.9688   21.1859 H   0  0  0  0  0  0  0  0  0  0  0  0
   20.3771   17.8206   21.8497 H   0  0  0  0  0  0  0  0  0  0  0  0
   20.2795   17.5724   19.7037 C   0  0  0  0  0  0  0  0  0  0  0  0
   19.6970   17.9310   18.8450 H   0  0  0  0  0  0  0  0  0  0  0  0
   20.1692   16.4814   19.7558 H   0  0  0  0  0  0  0  0  0  0  0  0
   21.3380   17.7977   19.5186 H   0  0  0  0  0  0  0  0  0  0  0  0
  1  2  1  0  0  0  0
  1  3  2  0  0  0  0
  1  4  1  0  0  0  0
  4  5  1  0  0  0  0
  4  6  1  0  0  0  0
  4  7  1  0  0  0  0
  7  8  1  0  0  0  0
  7  9  1  0  0  0  0
  7 10  1  0  0  0  0
 10 11  1  0  0  0  0
 10 12  1  0  0  0  0
 10 13  1  0  0  0  0
 13 14  1  0  0  0  0
 13 15  1  0  0  0  0
 13 16  1  0  0  0  0
 16 17  1  0  0  0  0
 16 18  1  0  0  0  0
 16 19  1  0  0  0  0
 19 20  1  0  0  0  0
 19 21  1  0  0  0  0
 19 22  1  0  0  0  0
M  END
> <VM2 Rank>
44

> <Conf_Id>
730

> <Probability>
0.04

> <Sum Probability>
99.69

> <Delta G>
3.972

> <G>
-13.026

> <E>
-32.972

> <-TS>
19.946

> <U+W>
-50.856

> <U>
10.205

> <W>
-61.061

> <W(PB)>
-63.328

> <W(SA)>
2.267

> <Valence>
10.107

> <Coulomb>
-0.699

> <VdW>
0.797

> <VdW6>
-8.212

> <VdW12>
9.009

> <Bond>
0.191

> <Angle>
3.004

> <Pdih>
6.911

> <Idih>
0.001

> <Tether>
0.000

$$$$
VeraChem MOL file


 22 21  0  0  0  0  0  0  0  0999 V2000     
   20.0182   19.3276   25.8196 C   0  0  0  0  0  0  0  0  0  0  0  0
   20.5359   20.4188   25.9530 O   0  5  0  0  0  0  0  0  0  0  0  0
   20.2276   18.3882   26.5613 O   0  0  0  0  0  0  0  0  0  0  0  0
   19.0675   19.1202   24.6460 C   0  0  0  0  0  0  0  0  0  0  0  0
   18.5654   20.0735   24.4415 H   0  0  0  0  0  0  0  0  0  0  0  0
   18.2947   18.4063   24.9555 H   0  0  0  0  0  0  0  0  0  0  0  0
   19.7861   18.6119   23.3719 C   0  0  0  0  0  0  0  0  0  0  0  0
   20.5693   19.3273   23.0933 H   0  0  0  0  0  0  0  0  0  0  0  0
   20.2930   17.6637   23.5979 H   0  0  0  0  0  0  0  0  0  0  0  0
   18.7979   18.4044   22.1999 C   0  0  0  0  0  0  0  0  0  0  0  0
   18.2439   19.3313   21.9977 H   0  0  0  0  0  0  0  0  0  0  0  0
   18.0500   17.6621   22.5107 H   0  0  0  0  0  0  0  0  0  0  0  0
   19.4807   17.9001   20.9033 C   0  0  0  0  0  0  0  0  0  0  0  0
   20.3754   17.3114   21.1477 H   0  0  0  0  0  0  0  0  0  0  0  0
   18.7930   17.2040   20.4039 H   0  0  0  0  0  0  0  0  0  0  0  0
   19.8372   19.0120   19.8858 C   0  0  0  0  0  0  0  0  0  0  0  0
   18.9225   19.5388   19.5806 H   0  0  0  0  0  0  0  0  0  0  0  0
   20.2362   18.5387   18.9781 H   0  0  0  0  0  0  0  0  0  0  0  0
   20.8688   20.0357   20.4032 C   0  0  0  0  0  0  0  0  0  0  0  0
   20.4483   20.6471   21.2113 H   0  0  0  0  0  0  0  0  0  0  0  0
   21.1713   20.7166   19.5972 H   0  0  0  0  0  0  0  0  0  0  0  0
   21.7696   19.5326   20.7779 H   0  0  0  0  0  0  0  0  0  0  0  0
  1  2  1  0  0  0  0
  1  3  2  0  0  0  0
  1  4  1  0  0  0  0
  4  5  1  0  0  0  0
  4  6  1  0  0  0  0
  4  7  1  0  0  0  0
  7  8  1  0  0  0  0
  7  9  1  0  0  0  0
  7 10  1  0  0  0  0
 10 11  1  0  0  0  0
 10 12  1  0  0  0  0
 10 13  1  0  0  0  0
 13 14  1  0  0  0  0
 13 15  1  0  0  0  0
 13 16  1  0  0  0  0
 16 17  1  0  0  0  0
 16 18  1  0  0  0  0
 16 19  1  0  0  0  0
 19 20  1  0  0  0  0
 19 21  1  0  0  0  0
 19 22  1  0  0  0  0
M  END
> <VM2 Rank>
45

> <Conf_Id>
530

> <Probability>
0.04

> <Sum Probability>
99.73

> <Delta G>
3.974

> <G>
-13.025

> <E>
-32.933

> <-TS>
19.908

> <U+W>
-50.817

> <U>
10.295

> <W>
-61.113

> <W(PB)>
-63.368

> <W(SA)>
2.256

> <Valence>
10.075

> <Coulomb>
-0.615

> <VdW>
0.835

> <VdW6>
-8.072

> <VdW12>
8.907

> <Bond>
0.176

> <Angle>
2.976

> <Pdih>
6.922

> <Idih>
0.000

> <Tether>
0.000

$$$$
VeraChem MOL file


 22 21  0  0  0  0  0  0  0  0999 V2000     
   19.8121   19.5036   25.6369 C   0  0  0  0  0  0  0  0  0  0  0  0
   20.5386   20.4767   25.5952 O   0  5  0  0  0  0  0  0  0  0  0  0
   19.5514   18.9017   26.6598 O   0  0  0  0  0  0  0  0  0  0  0  0
   19.2107   18.9974   24.3308 C   0  0  0  0  0  0  0  0  0  0  0  0
   19.0438   19.8621   23.6811 H   0  0  0  0  0  0  0  0  0  0  0  0
   18.2252   18.5719   24.5549 H   0  0  0  0  0  0  0  0  0  0  0  0
   20.1009   17.9359   23.6319 C   0  0  0  0  0  0  0  0  0  0  0  0
   21.1103   18.3375   23.4668 H   0  0  0  0  0  0  0  0  0  0  0  0
   20.2188   17.0877   24.3203 H   0  0  0  0  0  0  0  0  0  0  0  0
   19.5061   17.4145   22.2992 C   0  0  0  0  0  0  0  0  0  0  0  0
   18.4091   17.4673   22.3251 H   0  0  0  0  0  0  0  0  0  0  0  0
   19.7512   16.3473   22.2100 H   0  0  0  0  0  0  0  0  0  0  0  0
   20.0429   18.1227   21.0300 C   0  0  0  0  0  0  0  0  0  0  0  0
   21.1300   17.9787   20.9640 H   0  0  0  0  0  0  0  0  0  0  0  0
   19.6127   17.6248   20.1503 H   0  0  0  0  0  0  0  0  0  0  0  0
   19.7213   19.6313   20.9586 C   0  0  0  0  0  0  0  0  0  0  0  0
   20.2507   20.1634   21.7600 H   0  0  0  0  0  0  0  0  0  0  0  0
   18.6457   19.7904   21.1160 H   0  0  0  0  0  0  0  0  0  0  0  0
   20.1360   20.2351   19.6016 C   0  0  0  0  0  0  0  0  0  0  0  0
   19.9089   21.3087   19.5707 H   0  0  0  0  0  0  0  0  0  0  0  0
   19.5989   19.7515   18.7752 H   0  0  0  0  0  0  0  0  0  0  0  0
   21.2133   20.1113   19.4300 H   0  0  0  0  0  0  0  0  0  0  0  0
  1  2  1  0  0  0  0
  1  3  2  0  0  0  0
  1  4  1  0  0  0  0
  4  5  1  0  0  0  0
  4  6  1  0  0  0  0
  4  7  1  0  0  0  0
  7  8  1  0  0  0  0
  7  9  1  0  0  0  0
  7 10  1  0  0  0  0
 10 11  1  0  0  0  0
 10 12  1  0  0  0  0
 10 13  1  0  0  0  0
 13 14  1  0  0  0  0
 13 15  1  0  0  0  0
 13 16  1  0  0  0  0
 16 17  1  0  0  0  0
 16 18  1  0  0  0  0
 16 19  1  0  0  0  0
 19 20  1  0  0  0  0
 19 21  1  0  0  0  0
 19 22  1  0  0  0  0
M  END
> <VM2 Rank>
46

> <Conf_Id>
756

> <Probability>
0.04

> <Sum Probability>
99.77

> <Delta G>
3.975

> <G>
-13.023

> <E>
-32.970

> <-TS>
19.946

> <U+W>
-50.855

> <U>
10.205

> <W>
-61.060

> <W(PB)>
-63.313

> <W(SA)>
2.253

> <Valence>
10.107

> <Coulomb>
-0.699

> <VdW>
0.797

> <VdW6>
-8.212

> <VdW12>
9.009

> <Bond>
0.191

> <Angle>
3.004

> <Pdih>
6.911

> <Idih>
0.001

> <Tether>
0.000

$$$$
VeraChem MOL file


 22 21  0  0  0  0  0  0  0  0999 V2000     
   19.6756   18.8492   25.7914 C   0  0  0  0  0  0  0  0  0  0  0  0
   18.5031   18.7013   26.0740 O   0  5  0  0  0  0  0  0  0  0  0  0
   20.5784   18.2308   26.3196 O   0  0  0  0  0  0  0  0  0  0  0  0
   20.0325   19.8545   24.7022 C   0  0  0  0  0  0  0  0  0  0  0  0
   21.0098   20.2880   24.9462 H   0  0  0  0  0  0  0  0  0  0  0  0
   19.2987   20.6688   24.7360 H   0  0  0  0  0  0  0  0  0  0  0  0
   20.0647   19.2231   23.2885 C   0  0  0  0  0  0  0  0  0  0  0  0
   20.7988   18.4058   23.2718 H   0  0  0  0  0  0  0  0  0  0  0  0
   19.0819   18.7819   23.0771 H   0  0  0  0  0  0  0  0  0  0  0  0
   20.4158   20.2641   22.2023 C   0  0  0  0  0  0  0  0  0  0  0  0
   21.3372   20.7865   22.4936 H   0  0  0  0  0  0  0  0  0  0  0  0
   19.6279   21.0286   22.1611 H   0  0  0  0  0  0  0  0  0  0  0  0
   20.6249   19.6639   20.7893 C   0  0  0  0  0  0  0  0  0  0  0  0
   20.9224   20.4851   20.1230 H   0  0  0  0  0  0  0  0  0  0  0  0
   21.4727   18.9653   20.7982 H   0  0  0  0  0  0  0  0  0  0  0  0
   19.3735   18.9812   20.1828 C   0  0  0  0  0  0  0  0  0  0  0  0
   19.3580   19.1745   19.1013 H   0  0  0  0  0  0  0  0  0  0  0  0
   18.4582   19.4349   20.5872 H   0  0  0  0  0  0  0  0  0  0  0  0
   19.3515   17.4509   20.3937 C   0  0  0  0  0  0  0  0  0  0  0  0
   20.2291   16.9806   19.9312 H   0  0  0  0  0  0  0  0  0  0  0  0
   18.4556   17.0131   19.9349 H   0  0  0  0  0  0  0  0  0  0  0  0
   19.3466   17.1849   21.4568 H   0  0  0  0  0  0  0  0  0  0  0  0
  1  2  1  0  0  0  0
  1  3  2  0  0  0  0
  1  4  1  0  0  0  0
  4  5  1  0  0  0  0
  4  6  1  0  0  0  0
  4  7  1  0  0  0  0
  7  8  1  0  0  0  0
  7  9  1  0  0  0  0
  7 10  1  0  0  0  0
 10 11  1  0  0  0  0
 10 12  1  0  0  0  0
 10 13  1  0  0  0  0
 13 14  1  0  0  0  0
 13 15  1  0  0  0  0
 13 16  1  0  0  0  0
 16 17  1  0  0  0  0
 16 18  1  0  0  0  0
 16 19  1  0  0  0  0
 19 20  1  0  0  0  0
 19 21  1  0  0  0  0
 19 22  1  0  0  0  0
M  END
> <VM2 Rank>
47

> <Conf_Id>
160

> <Probability>
0.04

> <Sum Probability>
99.81

> <Delta G>
3.997

> <G>
-13.002

> <E>
-32.911

> <-TS>
19.909

> <U+W>
-50.795

> <U>
10.452

> <W>
-61.248

> <W(PB)>
-63.526

> <W(SA)>
2.278

> <Valence>
10.097

> <Coulomb>
-0.504

> <VdW>
0.859

> <VdW6>
-8.064

> <VdW12>
8.923

> <Bond>
0.175

> <Angle>
2.998

> <Pdih>
6.924

> <Idih>
0.000

> <Tether>
0.000

$$$$
VeraChem MOL file


 22 21  0  0  0  0  0  0  0  0999 V2000     
   19.9960   19.3430   25.8190 C   0  0  0  0  0  0  0  0  0  0  0  0
   20.8251   20.2201   25.9590 O   0  5  0  0  0  0  0  0  0  0  0  0
   19.0233   19.2158   26.5361 O   0  0  0  0  0  0  0  0  0  0  0  0
   20.1765   18.3580   24.6694 C   0  0  0  0  0  0  0  0  0  0  0  0
   19.7779   17.3870   24.9869 H   0  0  0  0  0  0  0  0  0  0  0  0
   21.2518   18.2272   24.4984 H   0  0  0  0  0  0  0  0  0  0  0  0
   19.4815   18.8213   23.3654 C   0  0  0  0  0  0  0  0  0  0  0  0
   18.4085   18.9588   23.5579 H   0  0  0  0  0  0  0  0  0  0  0  0
   19.8767   19.8032   23.0786 H   0  0  0  0  0  0  0  0  0  0  0  0
   19.6753   17.8014   22.2185 C   0  0  0  0  0  0  0  0  0  0  0  0
   19.2412   16.8433   22.5359 H   0  0  0  0  0  0  0  0  0  0  0  0
   20.7444   17.6127   22.0507 H   0  0  0  0  0  0  0  0  0  0  0  0
   18.9975   18.2322   20.8930 C   0  0  0  0  0  0  0  0  0  0  0  0
   18.6085   17.3308   20.3999 H   0  0  0  0  0  0  0  0  0  0  0  0
   18.1207   18.8609   21.0999 H   0  0  0  0  0  0  0  0  0  0  0  0
   19.9369   18.9435   19.8879 C   0  0  0  0  0  0  0  0  0  0  0  0
   19.3784   19.1283   18.9599 H   0  0  0  0  0  0  0  0  0  0  0  0
   20.7648   18.2728   19.6197 H   0  0  0  0  0  0  0  0  0  0  0  0
   20.5080   20.2837   20.3956 C   0  0  0  0  0  0  0  0  0  0  0  0
   21.0583   20.7943   19.5949 H   0  0  0  0  0  0  0  0  0  0  0  0
   21.2059   20.1265   21.2274 H   0  0  0  0  0  0  0  0  0  0  0  0
   19.7052   20.9514   20.7343 H   0  0  0  0  0  0  0  0  0  0  0  0
  1  2  1  0  0  0  0
  1  3  2  0  0  0  0
  1  4  1  0  0  0  0
  4  5  1  0  0  0  0
  4  6  1  0  0  0  0
  4  7  1  0  0  0  0
  7  8  1  0  0  0  0
  7  9  1  0  0  0  0
  7 10  1  0  0  0  0
 10 11  1  0  0  0  0
 10 12  1  0  0  0  0
 10 13  1  0  0  0  0
 13 14  1  0  0  0  0
 13 15  1  0  0  0  0
 13 16  1  0  0  0  0
 16 17  1  0  0  0  0
 16 18  1  0  0  0  0
 16 19  1  0  0  0  0
 19 20  1  0  0  0  0
 19 21  1  0  0  0  0
 19 22  1  0  0  0  0
M  END
> <VM2 Rank>
48

> <Conf_Id>
381

> <Probability>
0.03

> <Sum Probability>
99.85

> <Delta G>
4.092

> <G>
-12.906

> <E>
-32.814

> <-TS>
19.908

> <U+W>
-50.699

> <U>
10.295

> <W>
-60.994

> <W(PB)>
-63.271

> <W(SA)>
2.277

> <Valence>
10.075

> <Coulomb>
-0.615

> <VdW>
0.835

> <VdW6>
-8.072

> <VdW12>
8.907

> <Bond>
0.176

> <Angle>
2.976

> <Pdih>
6.922

> <Idih>
0.000

> <Tether>
0.000

$$$$
VeraChem MOL file


 22 21  0  0  0  0  0  0  0  0999 V2000     
   19.9452   18.9963   25.4997 C   0  0  0  0  0  0  0  0  0  0  0  0
   19.4133   19.7566   26.2848 O   0  5  0  0  0  0  0  0  0  0  0  0
   19.9195   17.7867   25.6142 O   0  0  0  0  0  0  0  0  0  0  0  0
   20.7129   19.5968   24.3253 C   0  0  0  0  0  0  0  0  0  0  0  0
   21.3537   18.8209   23.8911 H   0  0  0  0  0  0  0  0  0  0  0  0
   21.3837   20.3628   24.7313 H   0  0  0  0  0  0  0  0  0  0  0  0
   19.8081   20.2317   23.2342 C   0  0  0  0  0  0  0  0  0  0  0  0
   19.2245   21.0438   23.6893 H   0  0  0  0  0  0  0  0  0  0  0  0
   20.4392   20.7051   22.4711 H   0  0  0  0  0  0  0  0  0  0  0  0
   18.8303   19.2374   22.5565 C   0  0  0  0  0  0  0  0  0  0  0  0
   18.2175   19.7834   21.8274 H   0  0  0  0  0  0  0  0  0  0  0  0
   18.1262   18.8597   23.3104 H   0  0  0  0  0  0  0  0  0  0  0  0
   19.5006   18.0257   21.8574 C   0  0  0  0  0  0  0  0  0  0  0  0
   19.9793   17.3907   22.6148 H   0  0  0  0  0  0  0  0  0  0  0  0
   18.7156   17.4051   21.4045 H   0  0  0  0  0  0  0  0  0  0  0  0
   20.5423   18.3851   20.7694 C   0  0  0  0  0  0  0  0  0  0  0  0
   20.9660   17.4539   20.3691 H   0  0  0  0  0  0  0  0  0  0  0  0
   21.3820   18.9335   21.2164 H   0  0  0  0  0  0  0  0  0  0  0  0
   19.9479   19.2027   19.6024 C   0  0  0  0  0  0  0  0  0  0  0  0
   19.6068   20.1894   19.9402 H   0  0  0  0  0  0  0  0  0  0  0  0
   19.0953   18.6793   19.1506 H   0  0  0  0  0  0  0  0  0  0  0  0
   20.7018   19.3604   18.8204 H   0  0  0  0  0  0  0  0  0  0  0  0
  1  2  1  0  0  0  0
  1  3  2  0  0  0  0
  1  4  1  0  0  0  0
  4  5  1  0  0  0  0
  4  6  1  0  0  0  0
  4  7  1  0  0  0  0
  7  8  1  0  0  0  0
  7  9  1  0  0  0  0
  7 10  1  0  0  0  0
 10 11  1  0  0  0  0
 10 12  1  0  0  0  0
 10 13  1  0  0  0  0
 13 14  1  0  0  0  0
 13 15  1  0  0  0  0
 13 16  1  0  0  0  0
 16 17  1  0  0  0  0
 16 18  1  0  0  0  0
 16 19  1  0  0  0  0
 19 20  1  0  0  0  0
 19 21  1  0  0  0  0
 19 22  1  0  0  0  0
M  END
> <VM2 Rank>
49

> <Conf_Id>
553

> <Probability>
0.02

> <Sum Probability>
99.86

> <Delta G>
4.563

> <G>
-12.435

> <E>
-33.138

> <-TS>
20.703

> <U+W>
-51.023

> <U>
10.565

> <W>
-61.588

> <W(PB)>
-63.773

> <W(SA)>
2.185

> <Valence>
8.743

> <Coulomb>
1.383

> <VdW>
0.439

> <VdW6>
-10.217

> <VdW12>
10.656

> <Bond>
0.248

> <Angle>
3.454

> <Pdih>
5.041

> <Idih>
0.001

> <Tether>
0.000

$$$$
VeraChem MOL file


 22 21  0  0  0  0  0  0  0  0999 V2000     
   19.7564   18.9566   25.4993 C   0  0  0  0  0  0  0  0  0  0  0  0
   19.9335   19.8659   26.2863 O   0  5  0  0  0  0  0  0  0  0  0  0
   20.2664   17.8596   25.6149 O   0  0  0  0  0  0  0  0  0  0  0  0
   18.8181   19.1989   24.3203 C   0  0  0  0  0  0  0  0  0  0  0  0
   17.8937   19.6299   24.7219 H   0  0  0  0  0  0  0  0  0  0  0  0
   18.5457   18.2312   23.8837 H   0  0  0  0  0  0  0  0  0  0  0  0
   19.3967   20.1453   23.2332 C   0  0  0  0  0  0  0  0  0  0  0  0
   18.6323   20.3256   22.4663 H   0  0  0  0  0  0  0  0  0  0  0  0
   19.6019   21.1230   23.6903 H   0  0  0  0  0  0  0  0  0  0  0  0
   20.6952   19.6290   22.5615 C   0  0  0  0  0  0  0  0  0  0  0  0
   21.4879   19.5656   23.3194 H   0  0  0  0  0  0  0  0  0  0  0  0
   21.0404   20.3761   21.8350 H   0  0  0  0  0  0  0  0  0  0  0  0
   20.5726   18.2507   21.8603 C   0  0  0  0  0  0  0  0  0  0  0  0
   21.5432   17.9987   21.4122 H   0  0  0  0  0  0  0  0  0  0  0  0
   20.3858   17.4760   22.6159 H   0  0  0  0  0  0  0  0  0  0  0  0
   19.4800   18.1620   20.7665 C   0  0  0  0  0  0  0  0  0  0  0  0
   18.4883   18.3258   21.2085 H   0  0  0  0  0  0  0  0  0  0  0  0
   19.4688   17.1395   20.3650 H   0  0  0  0  0  0  0  0  0  0  0  0
   19.7013   19.1510   19.6018 C   0  0  0  0  0  0  0  0  0  0  0  0
   20.6947   19.0154   19.1549 H   0  0  0  0  0  0  0  0  0  0  0  0
   19.6148   20.1911   19.9403 H   0  0  0  0  0  0  0  0  0  0  0  0
   18.9517   18.9930   18.8157 H   0  0  0  0  0  0  0  0  0  0  0  0
  1  2  1  0  0  0  0
  1  3  2  0  0  0  0
  1  4  1  0  0  0  0
  4  5  1  0  0  0  0
  4  6  1  0  0  0  0
  4  7  1  0  0  0  0
  7  8  1  0  0  0  0
  7  9  1  0  0  0  0
  7 10  1  0  0  0  0
 10 11  1  0  0  0  0
 10 12  1  0  0  0  0
 10 13  1  0  0  0  0
 13 14  1  0  0  0  0
 13 15  1  0  0  0  0
 13 16  1  0  0  0  0
 16 17  1  0  0  0  0
 16 18  1  0  0  0  0
 16 19  1  0  0  0  0
 19 20  1  0  0  0  0
 19 21  1  0  0  0  0
 19 22  1  0  0  0  0
M  END
> <VM2 Rank>
50

> <Conf_Id>
533

> <Probability>
0.02

> <Sum Probability>
99.88

> <Delta G>
4.574

> <G>
-12.425

> <E>
-33.128

> <-TS>
20.703

> <U+W>
-51.013

> <U>
10.566

> <W>
-61.579

> <W(PB)>
-63.765

> <W(SA)>
2.187

> <Valence>
8.743

> <Coulomb>
1.384

> <VdW>
0.439

> <VdW6>
-10.218

> <VdW12>
10.657

> <Bond>
0.248

> <Angle>
3.453

> <Pdih>
5.040

> <Idih>
0.001

> <Tether>
0.000

$$$$
VeraChem MOL file


 22 21  0  0  0  0  0  0  0  0999 V2000     
   20.1223   18.9748   25.3947 C   0  0  0  0  0  0  0  0  0  0  0  0
   20.7178   19.9992   25.6653 O   0  5  0  0  0  0  0  0  0  0  0  0
   20.5950   17.8653   25.5454 O   0  0  0  0  0  0  0  0  0  0  0  0
   18.6801   19.0824   24.9027 C   0  0  0  0  0  0  0  0  0  0  0  0
   18.1093   19.5361   25.7212 H   0  0  0  0  0  0  0  0  0  0  0  0
   18.2753   18.0732   24.7600 H   0  0  0  0  0  0  0  0  0  0  0  0
   18.4788   19.9310   23.6155 C   0  0  0  0  0  0  0  0  0  0  0  0
   17.4288   20.2519   23.5836 H   0  0  0  0  0  0  0  0  0  0  0  0
   19.0740   20.8527   23.6765 H   0  0  0  0  0  0  0  0  0  0  0  0
   18.7834   19.1885   22.2904 C   0  0  0  0  0  0  0  0  0  0  0  0
   18.4420   19.8263   21.4655 H   0  0  0  0  0  0  0  0  0  0  0  0
   18.1864   18.2680   22.2370 H   0  0  0  0  0  0  0  0  0  0  0  0
   20.2802   18.8504   22.0874 C   0  0  0  0  0  0  0  0  0  0  0  0
   20.8867   19.7594   22.1998 H   0  0  0  0  0  0  0  0  0  0  0  0
   20.6052   18.1587   22.8741 H   0  0  0  0  0  0  0  0  0  0  0  0
   20.5823   18.1893   20.7221 C   0  0  0  0  0  0  0  0  0  0  0  0
   19.9584   17.2935   20.5969 H   0  0  0  0  0  0  0  0  0  0  0  0
   21.6249   17.8426   20.7240 H   0  0  0  0  0  0  0  0  0  0  0  0
   20.3802   19.1381   19.5205 C   0  0  0  0  0  0  0  0  0  0  0  0
   20.9682   20.0570   19.6423 H   0  0  0  0  0  0  0  0  0  0  0  0
   19.3261   19.4167   19.4002 H   0  0  0  0  0  0  0  0  0  0  0  0
   20.7022   18.6522   18.5903 H   0  0  0  0  0  0  0  0  0  0  0  0
  1  2  1  0  0  0  0
  1  3  2  0  0  0  0
  1  4  1  0  0  0  0
  4  5  1  0  0  0  0
  4  6  1  0  0  0  0
  4  7  1  0  0  0  0
  7  8  1  0  0  0  0
  7  9  1  0  0  0  0
  7 10  1  0  0  0  0
 10 11  1  0  0  0  0
 10 12  1  0  0  0  0
 10 13  1  0  0  0  0
 13 14  1  0  0  0  0
 13 15  1  0  0  0  0
 13 16  1  0  0  0  0
 16 17  1  0  0  0  0
 16 18  1  0  0  0  0
 16 19  1  0  0  0  0
 19 20  1  0  0  0  0
 19 21  1  0  0  0  0
 19 22  1  0  0  0  0
M  END
> <VM2 Rank>
51

> <Conf_Id>
181

> <Probability>
0.01

> <Sum Probability>
99.89

> <Delta G>
4.678

> <G>
-12.320

> <E>
-32.512

> <-TS>
20.192

> <U+W>
-50.397

> <U>
11.649

> <W>
-62.046

> <W(PB)>
-64.292

> <W(SA)>
2.247

> <Valence>
9.667

> <Coulomb>
1.202

> <VdW>
0.779

> <VdW6>
-9.278

> <VdW12>
10.057

> <Bond>
0.225

> <Angle>
3.506

> <Pdih>
5.930

> <Idih>
0.006

> <Tether>
0.000

$$$$
VeraChem MOL file


 22 21  0  0  0  0  0  0  0  0999 V2000     
   20.1773   18.9382   25.3008 C   0  0  0  0  0  0  0  0  0  0  0  0
   20.4597   20.0369   25.7374 O   0  5  0  0  0  0  0  0  0  0  0  0
   20.9595   18.0085   25.2689 O   0  0  0  0  0  0  0  0  0  0  0  0
   18.7448   18.6906   24.8314 C   0  0  0  0  0  0  0  0  0  0  0  0
   18.1052   18.8157   25.7127 H   0  0  0  0  0  0  0  0  0  0  0  0
   18.6481   17.6437   24.5193 H   0  0  0  0  0  0  0  0  0  0  0  0
   18.2434   19.6364   23.7039 C   0  0  0  0  0  0  0  0  0  0  0  0
   17.1453   19.6138   23.7051 H   0  0  0  0  0  0  0  0  0  0  0  0
   18.5245   20.6738   23.9329 H   0  0  0  0  0  0  0  0  0  0  0  0
   18.7220   19.2581   22.2803 C   0  0  0  0  0  0  0  0  0  0  0  0
   18.1944   19.8976   21.5596 H   0  0  0  0  0  0  0  0  0  0  0  0
   18.4203   18.2260   22.0582 H   0  0  0  0  0  0  0  0  0  0  0  0
   20.2461   19.4192   22.0663 C   0  0  0  0  0  0  0  0  0  0  0  0
   20.5630   20.3977   22.4524 H   0  0  0  0  0  0  0  0  0  0  0  0
   20.7882   18.6624   22.6476 H   0  0  0  0  0  0  0  0  0  0  0  0
   20.6693   19.3115   20.5828 C   0  0  0  0  0  0  0  0  0  0  0  0
   21.7433   19.5297   20.5055 H   0  0  0  0  0  0  0  0  0  0  0  0
   20.1530   20.0810   19.9925 H   0  0  0  0  0  0  0  0  0  0  0  0
   20.3979   17.9196   19.9721 C   0  0  0  0  0  0  0  0  0  0  0  0
   19.3229   17.7041   19.9302 H   0  0  0  0  0  0  0  0  0  0  0  0
   20.8845   17.1312   20.5610 H   0  0  0  0  0  0  0  0  0  0  0  0
   20.7884   17.8666   18.9476 H   0  0  0  0  0  0  0  0  0  0  0  0
  1  2  1  0  0  0  0
  1  3  2  0  0  0  0
  1  4  1  0  0  0  0
  4  5  1  0  0  0  0
  4  6  1  0  0  0  0
  4  7  1  0  0  0  0
  7  8  1  0  0  0  0
  7  9  1  0  0  0  0
  7 10  1  0  0  0  0
 10 11  1  0  0  0  0
 10 12  1  0  0  0  0
 10 13  1  0  0  0  0
 13 14  1  0  0  0  0
 13 15  1  0  0  0  0
 13 16  1  0  0  0  0
 16 17  1  0  0  0  0
 16 18  1  0  0  0  0
 16 19  1  0  0  0  0
 19 20  1  0  0  0  0
 19 21  1  0  0  0  0
 19 22  1  0  0  0  0
M  END
> <VM2 Rank>
52

> <Conf_Id>
295

> <Probability>
0.01

> <Sum Probability>
99.90

> <Delta G>
4.683

> <G>
-12.315

> <E>
-32.675

> <-TS>
20.360

> <U+W>
-50.560

> <U>
11.686

> <W>
-62.247

> <W(PB)>
-64.461

> <W(SA)>
2.214

> <Valence>
9.470

> <Coulomb>
1.563

> <VdW>
0.654

> <VdW6>
-9.495

> <VdW12>
10.148

> <Bond>
0.216

> <Angle>
3.352

> <Pdih>
5.895

> <Idih>
0.007

> <Tether>
0.000

$$$$
VeraChem MOL file


 22 21  0  0  0  0  0  0  0  0999 V2000     
   20.1578   19.2978   25.2870 C   0  0  0  0  0  0  0  0  0  0  0  0
   20.8353   20.3012   25.1811 O   0  5  0  0  0  0  0  0  0  0  0  0
   20.5554   18.2724   25.8048 O   0  0  0  0  0  0  0  0  0  0  0  0
   18.7090   19.3530   24.8060 C   0  0  0  0  0  0  0  0  0  0  0  0
   18.5013   20.3565   24.4154 H   0  0  0  0  0  0  0  0  0  0  0  0
   18.0830   19.2273   25.6970 H   0  0  0  0  0  0  0  0  0  0  0  0
   18.3170   18.2755   23.7561 C   0  0  0  0  0  0  0  0  0  0  0  0
   18.7070   17.2949   24.0624 H   0  0  0  0  0  0  0  0  0  0  0  0
   17.2228   18.1798   23.7601 H   0  0  0  0  0  0  0  0  0  0  0  0
   18.7579   18.5933   22.3058 C   0  0  0  0  0  0  0  0  0  0  0  0
   18.3480   19.5670   22.0069 H   0  0  0  0  0  0  0  0  0  0  0  0
   18.3051   17.8477   21.6382 H   0  0  0  0  0  0  0  0  0  0  0  0
   20.2914   18.5812   22.0985 C   0  0  0  0  0  0  0  0  0  0  0  0
   20.7467   19.4339   22.6182 H   0  0  0  0  0  0  0  0  0  0  0  0
   20.7101   17.6747   22.5566 H   0  0  0  0  0  0  0  0  0  0  0  0
   20.7066   18.6204   20.6093 C   0  0  0  0  0  0  0  0  0  0  0  0
   20.2785   17.7570   20.0815 H   0  0  0  0  0  0  0  0  0  0  0  0
   21.7982   18.5137   20.5445 H   0  0  0  0  0  0  0  0  0  0  0  0
   20.2896   19.9244   19.8954 C   0  0  0  0  0  0  0  0  0  0  0  0
   20.6861   20.8031   20.4205 H   0  0  0  0  0  0  0  0  0  0  0  0
   19.1978   20.0190   19.8415 H   0  0  0  0  0  0  0  0  0  0  0  0
   20.6764   19.9408   18.8683 H   0  0  0  0  0  0  0  0  0  0  0  0
  1  2  1  0  0  0  0
  1  3  2  0  0  0  0
  1  4  1  0  0  0  0
  4  5  1  0  0  0  0
  4  6  1  0  0  0  0
  4  7  1  0  0  0  0
  7  8  1  0  0  0  0
  7  9  1  0  0  0  0
  7 10  1  0  0  0  0
 10 11  1  0  0  0  0
 10 12  1  0  0  0  0
 10 13  1  0  0  0  0
 13 14  1  0  0  0  0
 13 15  1  0  0  0  0
 13 16  1  0  0  0  0
 16 17  1  0  0  0  0
 16 18  1  0  0  0  0
 16 19  1  0  0  0  0
 19 20  1  0  0  0  0
 19 21  1  0  0  0  0
 19 22  1  0  0  0  0
M  END
> <VM2 Rank>
53

> <Conf_Id>
549

> <Probability>
0.01

> <Sum Probability>
99.91

> <Delta G>
4.730

> <G>
-12.268

> <E>
-32.628

> <-TS>
20.360

> <U+W>
-50.513

> <U>
11.687

> <W>
-62.200

> <W(PB)>
-64.428

> <W(SA)>
2.228

> <Valence>
9.469

> <Coulomb>
1.563

> <VdW>
0.654

> <VdW6>
-9.495

> <VdW12>
10.149

> <Bond>
0.216

> <Angle>
3.352

> <Pdih>
5.895

> <Idih>
0.007

> <Tether>
0.000

$$$$
VeraChem MOL file


 22 21  0  0  0  0  0  0  0  0999 V2000     
   20.1068   19.2627   25.3835 C   0  0  0  0  0  0  0  0  0  0  0  0
   20.4565   20.4249   25.4471 O   0  5  0  0  0  0  0  0  0  0  0  0
   20.8082   18.3321   25.7292 O   0  0  0  0  0  0  0  0  0  0  0  0
   18.6867   18.9631   24.9073 C   0  0  0  0  0  0  0  0  0  0  0  0
   18.1761   19.9089   24.6895 H   0  0  0  0  0  0  0  0  0  0  0  0
   18.1647   18.5144   25.7604 H   0  0  0  0  0  0  0  0  0  0  0  0
   18.5832   18.0018   23.6895 C   0  0  0  0  0  0  0  0  0  0  0  0
   19.2743   17.1571   23.8182 H   0  0  0  0  0  0  0  0  0  0  0  0
   17.5742   17.5679   23.6868 H   0  0  0  0  0  0  0  0  0  0  0  0
   18.8112   18.6693   22.3103 C   0  0  0  0  0  0  0  0  0  0  0  0
   18.1181   19.5127   22.1889 H   0  0  0  0  0  0  0  0  0  0  0  0
   18.5446   17.9370   21.5380 H   0  0  0  0  0  0  0  0  0  0  0  0
   20.2633   19.1514   22.0760 C   0  0  0  0  0  0  0  0  0  0  0  0
   20.5076   19.9328   22.8057 H   0  0  0  0  0  0  0  0  0  0  0  0
   20.9645   18.3251   22.2556 H   0  0  0  0  0  0  0  0  0  0  0  0
   20.4979   19.7344   20.6626 C   0  0  0  0  0  0  0  0  0  0  0  0
   21.4965   20.1918   20.6339 H   0  0  0  0  0  0  0  0  0  0  0  0
   19.7807   20.5444   20.4711 H   0  0  0  0  0  0  0  0  0  0  0  0
   20.4061   18.6794   19.5385 C   0  0  0  0  0  0  0  0  0  0  0  0
   21.0904   17.8423   19.7287 H   0  0  0  0  0  0  0  0  0  0  0  0
   20.6775   19.1243   18.5725 H   0  0  0  0  0  0  0  0  0  0  0  0
   19.3893   18.2789   19.4442 H   0  0  0  0  0  0  0  0  0  0  0  0
  1  2  1  0  0  0  0
  1  3  2  0  0  0  0
  1  4  1  0  0  0  0
  4  5  1  0  0  0  0
  4  6  1  0  0  0  0
  4  7  1  0  0  0  0
  7  8  1  0  0  0  0
  7  9  1  0  0  0  0
  7 10  1  0  0  0  0
 10 11  1  0  0  0  0
 10 12  1  0  0  0  0
 10 13  1  0  0  0  0
 13 14  1  0  0  0  0
 13 15  1  0  0  0  0
 13 16  1  0  0  0  0
 16 17  1  0  0  0  0
 16 18  1  0  0  0  0
 16 19  1  0  0  0  0
 19 20  1  0  0  0  0
 19 21  1  0  0  0  0
 19 22  1  0  0  0  0
M  END
> <VM2 Rank>
54

> <Conf_Id>
561

> <Probability>
0.01

> <Sum Probability>
99.93

> <Delta G>
4.748

> <G>
-12.251

> <E>
-32.443

> <-TS>
20.193

> <U+W>
-50.328

> <U>
11.648

> <W>
-61.977

> <W(PB)>
-64.190

> <W(SA)>
2.214

> <Valence>
9.667

> <Coulomb>
1.202

> <VdW>
0.779

> <VdW6>
-9.278

> <VdW12>
10.058

> <Bond>
0.225

> <Angle>
3.506

> <Pdih>
5.931

> <Idih>
0.006

> <Tether>
0.000

$$$$
VeraChem MOL file


 22 21  0  0  0  0  0  0  0  0999 V2000     
   19.4477   19.1244   25.6711 C   0  0  0  0  0  0  0  0  0  0  0  0
   19.3707   20.1883   26.2533 O   0  5  0  0  0  0  0  0  0  0  0  0
   19.4713   18.0488   26.2360 O   0  0  0  0  0  0  0  0  0  0  0  0
   19.5422   19.1414   24.1497 C   0  0  0  0  0  0  0  0  0  0  0  0
   18.9832   20.0105   23.7829 H   0  0  0  0  0  0  0  0  0  0  0  0
   19.0383   18.2430   23.7762 H   0  0  0  0  0  0  0  0  0  0  0  0
   21.0045   19.1905   23.6394 C   0  0  0  0  0  0  0  0  0  0  0  0
   21.5221   20.0238   24.1344 H   0  0  0  0  0  0  0  0  0  0  0  0
   21.5276   18.2757   23.9503 H   0  0  0  0  0  0  0  0  0  0  0  0
   21.1374   19.3709   22.1063 C   0  0  0  0  0  0  0  0  0  0  0  0
   22.2084   19.4461   21.8742 H   0  0  0  0  0  0  0  0  0  0  0  0
   20.7012   20.3317   21.8063 H   0  0  0  0  0  0  0  0  0  0  0  0
   20.5441   18.2077   21.2676 C   0  0  0  0  0  0  0  0  0  0  0  0
   21.1875   18.0363   20.3938 H   0  0  0  0  0  0  0  0  0  0  0  0
   20.5855   17.2783   21.8518 H   0  0  0  0  0  0  0  0  0  0  0  0
   19.0968   18.4394   20.7662 C   0  0  0  0  0  0  0  0  0  0  0  0
   18.4386   18.7186   21.5976 H   0  0  0  0  0  0  0  0  0  0  0  0
   18.7077   17.4911   20.3707 H   0  0  0  0  0  0  0  0  0  0  0  0
   19.0052   19.5077   19.6543 C   0  0  0  0  0  0  0  0  0  0  0  0
   19.6493   19.2464   18.8047 H   0  0  0  0  0  0  0  0  0  0  0  0
   19.3046   20.4977   20.0193 H   0  0  0  0  0  0  0  0  0  0  0  0
   17.9751   19.5876   19.2837 H   0  0  0  0  0  0  0  0  0  0  0  0
  1  2  1  0  0  0  0
  1  3  2  0  0  0  0
  1  4  1  0  0  0  0
  4  5  1  0  0  0  0
  4  6  1  0  0  0  0
  4  7  1  0  0  0  0
  7  8  1  0  0  0  0
  7  9  1  0  0  0  0
  7 10  1  0  0  0  0
 10 11  1  0  0  0  0
 10 12  1  0  0  0  0
 10 13  1  0  0  0  0
 13 14  1  0  0  0  0
 13 15  1  0  0  0  0
 13 16  1  0  0  0  0
 16 17  1  0  0  0  0
 16 18  1  0  0  0  0
 16 19  1  0  0  0  0
 19 20  1  0  0  0  0
 19 21  1  0  0  0  0
 19 22  1  0  0  0  0
M  END
> <VM2 Rank>
55

> <Conf_Id>
159

> <Probability>
0.01

> <Sum Probability>
99.94

> <Delta G>
4.840

> <G>
-12.159

> <E>
-32.161

> <-TS>
20.003

> <U+W>
-50.046

> <U>
11.011

> <W>
-61.057

> <W(PB)>
-63.292

> <W(SA)>
2.234

> <Valence>
10.804

> <Coulomb>
-0.760

> <VdW>
0.967

> <VdW6>
-8.670

> <VdW12>
9.637

> <Bond>
0.224

> <Angle>
3.242

> <Pdih>
7.337

> <Idih>
0.001

> <Tether>
0.000

$$$$
VeraChem MOL file


 22 21  0  0  0  0  0  0  0  0999 V2000     
   20.0226   19.3405   25.7080 C   0  0  0  0  0  0  0  0  0  0  0  0
   20.6843   20.3593   25.7370 O   0  5  0  0  0  0  0  0  0  0  0  0
   20.0002   18.5271   26.6105 O   0  0  0  0  0  0  0  0  0  0  0  0
   19.1895   19.0572   24.4630 C   0  0  0  0  0  0  0  0  0  0  0  0
   18.8650   20.0195   24.0523 H   0  0  0  0  0  0  0  0  0  0  0  0
   18.2872   18.5178   24.7747 H   0  0  0  0  0  0  0  0  0  0  0  0
   19.9628   18.2352   23.3985 C   0  0  0  0  0  0  0  0  0  0  0  0
   20.8606   18.7867   23.0941 H   0  0  0  0  0  0  0  0  0  0  0  0
   20.3162   17.3063   23.8667 H   0  0  0  0  0  0  0  0  0  0  0  0
   19.1019   17.8689   22.1630 C   0  0  0  0  0  0  0  0  0  0  0  0
   18.1653   17.4167   22.5168 H   0  0  0  0  0  0  0  0  0  0  0  0
   19.6083   17.0851   21.5835 H   0  0  0  0  0  0  0  0  0  0  0  0
   18.7627   19.0612   21.2291 C   0  0  0  0  0  0  0  0  0  0  0  0
   17.7517   18.9030   20.8296 H   0  0  0  0  0  0  0  0  0  0  0  0
   18.7148   20.0006   21.7934 H   0  0  0  0  0  0  0  0  0  0  0  0
   19.7192   19.2246   20.0221 C   0  0  0  0  0  0  0  0  0  0  0  0
   19.3400   20.0347   19.3840 H   0  0  0  0  0  0  0  0  0  0  0  0
   19.6974   18.3139   19.4079 H   0  0  0  0  0  0  0  0  0  0  0  0
   21.1769   19.5449   20.4129 C   0  0  0  0  0  0  0  0  0  0  0  0
   21.2234   20.4145   21.0814 H   0  0  0  0  0  0  0  0  0  0  0  0
   21.7731   19.7713   19.5197 H   0  0  0  0  0  0  0  0  0  0  0  0
   21.6476   18.6919   20.9172 H   0  0  0  0  0  0  0  0  0  0  0  0
  1  2  1  0  0  0  0
  1  3  2  0  0  0  0
  1  4  1  0  0  0  0
  4  5  1  0  0  0  0
  4  6  1  0  0  0  0
  4  7  1  0  0  0  0
  7  8  1  0  0  0  0
  7  9  1  0  0  0  0
  7 10  1  0  0  0  0
 10 11  1  0  0  0  0
 10 12  1  0  0  0  0
 10 13  1  0  0  0  0
 13 14  1  0  0  0  0
 13 15  1  0  0  0  0
 13 16  1  0  0  0  0
 16 17  1  0  0  0  0
 16 18  1  0  0  0  0
 16 19  1  0  0  0  0
 19 20  1  0  0  0  0
 19 21  1  0  0  0  0
 19 22  1  0  0  0  0
M  END
> <VM2 Rank>
56

> <Conf_Id>
666

> <Probability>
0.01

> <Sum Probability>
99.94

> <Delta G>
5.042

> <G>
-11.956

> <E>
-31.930

> <-TS>
19.974

> <U+W>
-49.815

> <U>
11.399

> <W>
-61.214

> <W(PB)>
-63.445

> <W(SA)>
2.231

> <Valence>
10.806

> <Coulomb>
-0.350

> <VdW>
0.943

> <VdW6>
-8.654

> <VdW12>
9.597

> <Bond>
0.232

> <Angle>
3.234

> <Pdih>
7.339

> <Idih>
0.000

> <Tether>
0.000

$$$$
VeraChem MOL file


 22 21  0  0  0  0  0  0  0  0999 V2000     
   20.2719   19.0595   25.5491 C   0  0  0  0  0  0  0  0  0  0  0  0
   19.9982   19.8586   26.4227 O   0  5  0  0  0  0  0  0  0  0  0  0
   20.6260   17.9180   25.7686 O   0  0  0  0  0  0  0  0  0  0  0  0
   20.1446   19.5082   24.0978 C   0  0  0  0  0  0  0  0  0  0  0  0
   20.9125   18.9860   23.5196 H   0  0  0  0  0  0  0  0  0  0  0  0
   20.3810   20.5779   24.0523 H   0  0  0  0  0  0  0  0  0  0  0  0
   18.7314   19.2500   23.5120 C   0  0  0  0  0  0  0  0  0  0  0  0
   18.4821   18.1824   23.5843 H   0  0  0  0  0  0  0  0  0  0  0  0
   18.0040   19.7765   24.1453 H   0  0  0  0  0  0  0  0  0  0  0  0
   18.5607   19.7442   22.0525 C   0  0  0  0  0  0  0  0  0  0  0  0
   19.1964   20.6194   21.8650 H   0  0  0  0  0  0  0  0  0  0  0  0
   17.5289   20.1038   21.9393 H   0  0  0  0  0  0  0  0  0  0  0  0
   18.7874   18.6583   20.9677 C   0  0  0  0  0  0  0  0  0  0  0  0
   18.0857   17.8316   21.1430 H   0  0  0  0  0  0  0  0  0  0  0  0
   18.5154   19.0794   19.9903 H   0  0  0  0  0  0  0  0  0  0  0  0
   20.2197   18.0814   20.8727 C   0  0  0  0  0  0  0  0  0  0  0  0
   20.2276   17.2950   20.1057 H   0  0  0  0  0  0  0  0  0  0  0  0
   20.4908   17.5848   21.8129 H   0  0  0  0  0  0  0  0  0  0  0  0
   21.2802   19.1407   20.5008 C   0  0  0  0  0  0  0  0  0  0  0  0
   21.3679   19.9115   21.2761 H   0  0  0  0  0  0  0  0  0  0  0  0
   21.0248   19.6347   19.5544 H   0  0  0  0  0  0  0  0  0  0  0  0
   22.2659   18.6724   20.3827 H   0  0  0  0  0  0  0  0  0  0  0  0
  1  2  1  0  0  0  0
  1  3  2  0  0  0  0
  1  4  1  0  0  0  0
  4  5  1  0  0  0  0
  4  6  1  0  0  0  0
  4  7  1  0  0  0  0
  7  8  1  0  0  0  0
  7  9  1  0  0  0  0
  7 10  1  0  0  0  0
 10 11  1  0  0  0  0
 10 12  1  0  0  0  0
 10 13  1  0  0  0  0
 13 14  1  0  0  0  0
 13 15  1  0  0  0  0
 13 16  1  0  0  0  0
 16 17  1  0  0  0  0
 16 18  1  0  0  0  0
 16 19  1  0  0  0  0
 19 20  1  0  0  0  0
 19 21  1  0  0  0  0
 19 22  1  0  0  0  0
M  END
> <VM2 Rank>
57

> <Conf_Id>
675

> <Probability>
0.01

> <Sum Probability>
99.95

> <Delta G>
5.050

> <G>
-11.949

> <E>
-32.325

> <-TS>
20.376

> <U+W>
-50.209

> <U>
11.249

> <W>
-61.458

> <W(PB)>
-63.656

> <W(SA)>
2.197

> <Valence>
10.690

> <Coulomb>
-0.062

> <VdW>
0.621

> <VdW6>
-9.203

> <VdW12>
9.824

> <Bond>
0.231

> <Angle>
3.570

> <Pdih>
6.889

> <Idih>
0.001

> <Tether>
0.000

$$$$
VeraChem MOL file


 22 21  0  0  0  0  0  0  0  0999 V2000     
   20.0459   18.9135   25.7243 C   0  0  0  0  0  0  0  0  0  0  0  0
   19.9326   19.7867   26.5618 O   0  5  0  0  0  0  0  0  0  0  0  0
   20.8130   17.9769   25.8286 O   0  0  0  0  0  0  0  0  0  0  0  0
   19.1921   19.0092   24.4649 C   0  0  0  0  0  0  0  0  0  0  0  0
   18.2355   19.4701   24.7384 H   0  0  0  0  0  0  0  0  0  0  0  0
   18.9751   17.9889   24.1302 H   0  0  0  0  0  0  0  0  0  0  0  0
   19.8763   19.8262   23.3375 C   0  0  0  0  0  0  0  0  0  0  0  0
   20.1252   20.8210   23.7318 H   0  0  0  0  0  0  0  0  0  0  0  0
   20.8298   19.3534   23.0724 H   0  0  0  0  0  0  0  0  0  0  0  0
   18.9859   20.0018   22.0811 C   0  0  0  0  0  0  0  0  0  0  0  0
   19.4070   20.7892   21.4414 H   0  0  0  0  0  0  0  0  0  0  0  0
   18.0045   20.3756   22.4034 H   0  0  0  0  0  0  0  0  0  0  0  0
   18.7816   18.7119   21.2425 C   0  0  0  0  0  0  0  0  0  0  0  0
   18.8334   17.8187   21.8771 H   0  0  0  0  0  0  0  0  0  0  0  0
   17.7612   18.7288   20.8362 H   0  0  0  0  0  0  0  0  0  0  0  0
   19.7552   18.5612   20.0476 C   0  0  0  0  0  0  0  0  0  0  0  0
   19.6375   19.4146   19.3656 H   0  0  0  0  0  0  0  0  0  0  0  0
   19.4687   17.6685   19.4749 H   0  0  0  0  0  0  0  0  0  0  0  0
   21.2374   18.4316   20.4557 C   0  0  0  0  0  0  0  0  0  0  0  0
   21.6109   19.3666   20.8913 H   0  0  0  0  0  0  0  0  0  0  0  0
   21.8584   18.2035   19.5799 H   0  0  0  0  0  0  0  0  0  0  0  0
   21.3751   17.6259   21.1885 H   0  0  0  0  0  0  0  0  0  0  0  0
  1  2  1  0  0  0  0
  1  3  2  0  0  0  0
  1  4  1  0  0  0  0
  4  5  1  0  0  0  0
  4  6  1  0  0  0  0
  4  7  1  0  0  0  0
  7  8  1  0  0  0  0
  7  9  1  0  0  0  0
  7 10  1  0  0  0  0
 10 11  1  0  0  0  0
 10 12  1  0  0  0  0
 10 13  1  0  0  0  0
 13 14  1  0  0  0  0
 13 15  1  0  0  0  0
 13 16  1  0  0  0  0
 16 17  1  0  0  0  0
 16 18  1  0  0  0  0
 16 19  1  0  0  0  0
 19 20  1  0  0  0  0
 19 21  1  0  0  0  0
 19 22  1  0  0  0  0
M  END
> <VM2 Rank>
58

> <Conf_Id>
664

> <Probability>
0.01

> <Sum Probability>
99.96

> <Delta G>
5.056

> <G>
-11.942

> <E>
-31.916

> <-TS>
19.975

> <U+W>
-49.801

> <U>
11.399

> <W>
-61.200

> <W(PB)>
-63.441

> <W(SA)>
2.241

> <Valence>
10.806

> <Coulomb>
-0.350

> <VdW>
0.943

> <VdW6>
-8.654

> <VdW12>
9.597

> <Bond>
0.232

> <Angle>
3.234

> <Pdih>
7.339

> <Idih>
0.000

> <Tether>
0.000

$$$$
VeraChem MOL file


 22 21  0  0  0  0  0  0  0  0999 V2000     
   19.6131   18.7744   25.5635 C   0  0  0  0  0  0  0  0  0  0  0  0
   19.2501   19.5348   26.4391 O   0  5  0  0  0  0  0  0  0  0  0  0
   20.2114   17.7386   25.7777 O   0  0  0  0  0  0  0  0  0  0  0  0
   19.3196   19.1511   24.1158 C   0  0  0  0  0  0  0  0  0  0  0  0
   18.3766   19.7102   24.0962 H   0  0  0  0  0  0  0  0  0  0  0  0
   19.1539   18.2247   23.5582 H   0  0  0  0  0  0  0  0  0  0  0  0
   20.4524   19.9949   23.4743 C   0  0  0  0  0  0  0  0  0  0  0  0
   20.5894   20.8955   24.0887 H   0  0  0  0  0  0  0  0  0  0  0  0
   21.4036   19.4469   23.5202 H   0  0  0  0  0  0  0  0  0  0  0  0
   20.1551   20.4343   22.0175 C   0  0  0  0  0  0  0  0  0  0  0  0
   20.5945   21.4306   21.8722 H   0  0  0  0  0  0  0  0  0  0  0  0
   19.0757   20.5672   21.8676 H   0  0  0  0  0  0  0  0  0  0  0  0
   20.7514   19.5084   20.9247 C   0  0  0  0  0  0  0  0  0  0  0  0
   20.5944   19.9793   19.9447 H   0  0  0  0  0  0  0  0  0  0  0  0
   21.8402   19.4566   21.0607 H   0  0  0  0  0  0  0  0  0  0  0  0
   20.1889   18.0681   20.8734 C   0  0  0  0  0  0  0  0  0  0  0  0
   20.4002   17.5456   21.8149 H   0  0  0  0  0  0  0  0  0  0  0  0
   20.7283   17.5117   20.0947 H   0  0  0  0  0  0  0  0  0  0  0  0
   18.6781   18.0144   20.5579 C   0  0  0  0  0  0  0  0  0  0  0  0
   18.4577   18.5235   19.6107 H   0  0  0  0  0  0  0  0  0  0  0  0
   18.0851   18.4907   21.3481 H   0  0  0  0  0  0  0  0  0  0  0  0
   18.3410   16.9737   20.4690 H   0  0  0  0  0  0  0  0  0  0  0  0
  1  2  1  0  0  0  0
  1  3  2  0  0  0  0
  1  4  1  0  0  0  0
  4  5  1  0  0  0  0
  4  6  1  0  0  0  0
  4  7  1  0  0  0  0
  7  8  1  0  0  0  0
  7  9  1  0  0  0  0
  7 10  1  0  0  0  0
 10 11  1  0  0  0  0
 10 12  1  0  0  0  0
 10 13  1  0  0  0  0
 13 14  1  0  0  0  0
 13 15  1  0  0  0  0
 13 16  1  0  0  0  0
 16 17  1  0  0  0  0
 16 18  1  0  0  0  0
 16 19  1  0  0  0  0
 19 20  1  0  0  0  0
 19 21  1  0  0  0  0
 19 22  1  0  0  0  0
M  END
> <VM2 Rank>
59

> <Conf_Id>
498

> <Probability>
0.01

> <Sum Probability>
99.96

> <Delta G>
5.108

> <G>
-11.890

> <E>
-32.266

> <-TS>
20.376

> <U+W>
-50.151

> <U>
11.249

> <W>
-61.400

> <W(PB)>
-63.599

> <W(SA)>
2.199

> <Valence>
10.690

> <Coulomb>
-0.062

> <VdW>
0.621

> <VdW6>
-9.204

> <VdW12>
9.825

> <Bond>
0.231

> <Angle>
3.571

> <Pdih>
6.888

> <Idih>
0.001

> <Tether>
0.000

$$$$
VeraChem MOL file


 22 21  0  0  0  0  0  0  0  0999 V2000     
   20.2310   19.2919   25.4805 C   0  0  0  0  0  0  0  0  0  0  0  0
   20.9001   20.3014   25.3817 O   0  5  0  0  0  0  0  0  0  0  0  0
   19.7067   18.9308   26.5156 O   0  0  0  0  0  0  0  0  0  0  0  0
   20.0216   18.4411   24.2332 C   0  0  0  0  0  0  0  0  0  0  0  0
   19.9299   17.3941   24.5455 H   0  0  0  0  0  0  0  0  0  0  0  0
   20.9269   18.5179   23.6212 H   0  0  0  0  0  0  0  0  0  0  0  0
   18.7714   18.8668   23.4199 C   0  0  0  0  0  0  0  0  0  0  0  0
   17.8940   18.8217   24.0796 H   0  0  0  0  0  0  0  0  0  0  0  0
   18.8618   19.9163   23.1127 H   0  0  0  0  0  0  0  0  0  0  0  0
   18.5049   17.9720   22.1856 C   0  0  0  0  0  0  0  0  0  0  0  0
   17.5620   18.2881   21.7191 H   0  0  0  0  0  0  0  0  0  0  0  0
   18.3383   16.9420   22.5292 H   0  0  0  0  0  0  0  0  0  0  0  0
   19.6167   17.9577   21.1033 C   0  0  0  0  0  0  0  0  0  0  0  0
   20.5557   17.5651   21.5147 H   0  0  0  0  0  0  0  0  0  0  0  0
   19.3107   17.2342   20.3354 H   0  0  0  0  0  0  0  0  0  0  0  0
   19.8585   19.3177   20.4009 C   0  0  0  0  0  0  0  0  0  0  0  0
   18.9330   19.9095   20.3871 H   0  0  0  0  0  0  0  0  0  0  0  0
   20.1129   19.1254   19.3494 H   0  0  0  0  0  0  0  0  0  0  0  0
   21.0091   20.1395   21.0233 C   0  0  0  0  0  0  0  0  0  0  0  0
   20.7963   20.4222   22.0604 H   0  0  0  0  0  0  0  0  0  0  0  0
   21.1707   21.0639   20.4540 H   0  0  0  0  0  0  0  0  0  0  0  0
   21.9475   19.5702   21.0120 H   0  0  0  0  0  0  0  0  0  0  0  0
  1  2  1  0  0  0  0
  1  3  2  0  0  0  0
  1  4  1  0  0  0  0
  4  5  1  0  0  0  0
  4  6  1  0  0  0  0
  4  7  1  0  0  0  0
  7  8  1  0  0  0  0
  7  9  1  0  0  0  0
  7 10  1  0  0  0  0
 10 11  1  0  0  0  0
 10 12  1  0  0  0  0
 10 13  1  0  0  0  0
 13 14  1  0  0  0  0
 13 15  1  0  0  0  0
 13 16  1  0  0  0  0
 16 17  1  0  0  0  0
 16 18  1  0  0  0  0
 16 19  1  0  0  0  0
 19 20  1  0  0  0  0
 19 21  1  0  0  0  0
 19 22  1  0  0  0  0
M  END
> <VM2 Rank>
60

> <Conf_Id>
365

> <Probability>
0.00

> <Sum Probability>
99.97

> <Delta G>
5.351

> <G>
-11.647

> <E>
-32.062

> <-TS>
20.415

> <U+W>
-49.947

> <U>
11.583

> <W>
-61.530

> <W(PB)>
-63.714

> <W(SA)>
2.184

> <Valence>
10.661

> <Coulomb>
0.424

> <VdW>
0.498

> <VdW6>
-9.424

> <VdW12>
9.922

> <Bond>
0.226

> <Angle>
3.567

> <Pdih>
6.867

> <Idih>
0.001

> <Tether>
0.000

$$$$
VeraChem MOL file


 22 21  0  0  0  0  0  0  0  0999 V2000     
   19.9047   19.0460   25.7127 C   0  0  0  0  0  0  0  0  0  0  0  0
   18.9044   19.5660   26.1664 O   0  5  0  0  0  0  0  0  0  0  0  0
   20.3379   17.9763   26.0936 O   0  0  0  0  0  0  0  0  0  0  0  0
   20.6733   19.7859   24.6213 C   0  0  0  0  0  0  0  0  0  0  0  0
   21.7356   19.7533   24.8905 H   0  0  0  0  0  0  0  0  0  0  0  0
   20.3745   20.8411   24.6354 H   0  0  0  0  0  0  0  0  0  0  0  0
   20.4820   19.1942   23.2004 C   0  0  0  0  0  0  0  0  0  0  0  0
   21.1884   19.6890   22.5222 H   0  0  0  0  0  0  0  0  0  0  0  0
   20.7399   18.1262   23.2118 H   0  0  0  0  0  0  0  0  0  0  0  0
   19.0432   19.3826   22.6661 C   0  0  0  0  0  0  0  0  0  0  0  0
   18.8246   20.4554   22.5771 H   0  0  0  0  0  0  0  0  0  0  0  0
   18.3303   18.9846   23.4011 H   0  0  0  0  0  0  0  0  0  0  0  0
   18.7726   18.6872   21.3082 C   0  0  0  0  0  0  0  0  0  0  0  0
   18.8984   17.6006   21.4101 H   0  0  0  0  0  0  0  0  0  0  0  0
   17.7130   18.8428   21.0635 H   0  0  0  0  0  0  0  0  0  0  0  0
   19.6225   19.2175   20.1265 C   0  0  0  0  0  0  0  0  0  0  0  0
   19.9042   20.2654   20.2995 H   0  0  0  0  0  0  0  0  0  0  0  0
   19.0029   19.2140   19.2191 H   0  0  0  0  0  0  0  0  0  0  0  0
   20.8795   18.3632   19.8488 C   0  0  0  0  0  0  0  0  0  0  0  0
   21.5534   18.3353   20.7125 H   0  0  0  0  0  0  0  0  0  0  0  0
   21.4409   18.7715   18.9986 H   0  0  0  0  0  0  0  0  0  0  0  0
   20.6021   17.3300   19.6026 H   0  0  0  0  0  0  0  0  0  0  0  0
  1  2  1  0  0  0  0
  1  3  2  0  0  0  0
  1  4  1  0  0  0  0
  4  5  1  0  0  0  0
  4  6  1  0  0  0  0
  4  7  1  0  0  0  0
  7  8  1  0  0  0  0
  7  9  1  0  0  0  0
  7 10  1  0  0  0  0
 10 11  1  0  0  0  0
 10 12  1  0  0  0  0
 10 13  1  0  0  0  0
 13 14  1  0  0  0  0
 13 15  1  0  0  0  0
 13 16  1  0  0  0  0
 16 17  1  0  0  0  0
 16 18  1  0  0  0  0
 16 19  1  0  0  0  0
 19 20  1  0  0  0  0
 19 21  1  0  0  0  0
 19 22  1  0  0  0  0
M  END
> <VM2 Rank>
61

> <Conf_Id>
722

> <Probability>
0.00

> <Sum Probability>
99.97

> <Delta G>
5.399

> <G>
-11.600

> <E>
-31.837

> <-TS>
20.237

> <U+W>
-49.722

> <U>
11.773

> <W>
-61.495

> <W(PB)>
-63.749

> <W(SA)>
2.254

> <Valence>
10.419

> <Coulomb>
0.565

> <VdW>
0.789

> <VdW6>
-8.847

> <VdW12>
9.636

> <Bond>
0.199

> <Angle>
3.187

> <Pdih>
7.032

> <Idih>
0.001

> <Tether>
0.000

$$$$
VeraChem MOL file


 22 21  0  0  0  0  0  0  0  0999 V2000     
   19.7160   19.1507   25.7186 C   0  0  0  0  0  0  0  0  0  0  0  0
   19.8240   20.3368   25.9601 O   0  5  0  0  0  0  0  0  0  0  0  0
   20.2895   18.2820   26.3459 O   0  0  0  0  0  0  0  0  0  0  0  0
   18.7948   18.7252   24.5786 C   0  0  0  0  0  0  0  0  0  0  0  0
   18.1109   19.5525   24.3534 H   0  0  0  0  0  0  0  0  0  0  0  0
   18.1792   17.8960   24.9466 H   0  0  0  0  0  0  0  0  0  0  0  0
   19.5419   18.2843   23.2930 C   0  0  0  0  0  0  0  0  0  0  0  0
   20.2425   17.4750   23.5411 H   0  0  0  0  0  0  0  0  0  0  0  0
   18.8143   17.8607   22.5911 H   0  0  0  0  0  0  0  0  0  0  0  0
   20.3098   19.4499   22.6233 C   0  0  0  0  0  0  0  0  0  0  0  0
   21.0678   19.8154   23.3297 H   0  0  0  0  0  0  0  0  0  0  0  0
   19.6342   20.2960   22.4371 H   0  0  0  0  0  0  0  0  0  0  0  0
   21.0230   19.0395   21.3100 C   0  0  0  0  0  0  0  0  0  0  0  0
   21.9751   19.5847   21.2540 H   0  0  0  0  0  0  0  0  0  0  0  0
   21.2906   17.9744   21.3384 H   0  0  0  0  0  0  0  0  0  0  0  0
   20.2294   19.3548   20.0180 C   0  0  0  0  0  0  0  0  0  0  0  0
   20.8573   19.1019   19.1526 H   0  0  0  0  0  0  0  0  0  0  0  0
   20.0419   20.4357   19.9559 H   0  0  0  0  0  0  0  0  0  0  0  0
   18.8917   18.5957   19.8965 C   0  0  0  0  0  0  0  0  0  0  0  0
   18.1733   18.9371   20.6521 H   0  0  0  0  0  0  0  0  0  0  0  0
   19.0396   17.5148   20.0176 H   0  0  0  0  0  0  0  0  0  0  0  0
   18.4411   18.7677   18.9105 H   0  0  0  0  0  0  0  0  0  0  0  0
  1  2  1  0  0  0  0
  1  3  2  0  0  0  0
  1  4  1  0  0  0  0
  4  5  1  0  0  0  0
  4  6  1  0  0  0  0
  4  7  1  0  0  0  0
  7  8  1  0  0  0  0
  7  9  1  0  0  0  0
  7 10  1  0  0  0  0
 10 11  1  0  0  0  0
 10 12  1  0  0  0  0
 10 13  1  0  0  0  0
 13 14  1  0  0  0  0
 13 15  1  0  0  0  0
 13 16  1  0  0  0  0
 16 17  1  0  0  0  0
 16 18  1  0  0  0  0
 16 19  1  0  0  0  0
 19 20  1  0  0  0  0
 19 21  1  0  0  0  0
 19 22  1  0  0  0  0
M  END
> <VM2 Rank>
62

> <Conf_Id>
65

> <Probability>
0.00

> <Sum Probability>
99.97

> <Delta G>
5.403

> <G>
-11.596

> <E>
-31.810

> <-TS>
20.214

> <U+W>
-49.695

> <U>
11.659

> <W>
-61.354

> <W(PB)>
-63.613

> <W(SA)>
2.259

> <Valence>
10.364

> <Coulomb>
0.563

> <VdW>
0.732

> <VdW6>
-8.874

> <VdW12>
9.606

> <Bond>
0.201

> <Angle>
3.127

> <Pdih>
7.036

> <Idih>
0.001

> <Tether>
0.000

$$$$
VeraChem MOL file


 22 21  0  0  0  0  0  0  0  0999 V2000     
   19.8967   19.1930   25.7071 C   0  0  0  0  0  0  0  0  0  0  0  0
   20.2103   20.3291   26.0034 O   0  5  0  0  0  0  0  0  0  0  0  0
   18.9565   18.6042   26.2033 O   0  0  0  0  0  0  0  0  0  0  0  0
   20.7452   18.4592   24.6722 C   0  0  0  0  0  0  0  0  0  0  0  0
   20.5620   17.3821   24.7680 H   0  0  0  0  0  0  0  0  0  0  0  0
   21.7966   18.6267   24.9337 H   0  0  0  0  0  0  0  0  0  0  0  0
   20.4971   18.9166   23.2110 C   0  0  0  0  0  0  0  0  0  0  0  0
   20.6383   20.0039   23.1398 H   0  0  0  0  0  0  0  0  0  0  0  0
   21.2556   18.4505   22.5697 H   0  0  0  0  0  0  0  0  0  0  0  0
   19.0892   18.5339   22.6986 C   0  0  0  0  0  0  0  0  0  0  0  0
   18.3346   18.9077   23.4041 H   0  0  0  0  0  0  0  0  0  0  0  0
   18.9879   17.4401   22.6928 H   0  0  0  0  0  0  0  0  0  0  0  0
   18.7508   19.0903   21.2927 C   0  0  0  0  0  0  0  0  0  0  0  0
   17.7152   18.8032   21.0651 H   0  0  0  0  0  0  0  0  0  0  0  0
   18.7584   20.1887   21.3108 H   0  0  0  0  0  0  0  0  0  0  0  0
   19.6577   18.5658   20.1515 C   0  0  0  0  0  0  0  0  0  0  0  0
   19.0450   18.4332   19.2491 H   0  0  0  0  0  0  0  0  0  0  0  0
   20.0500   17.5708   20.4029 H   0  0  0  0  0  0  0  0  0  0  0  0
   20.8165   19.5269   19.8041 C   0  0  0  0  0  0  0  0  0  0  0  0
   20.4304   20.5024   19.4808 H   0  0  0  0  0  0  0  0  0  0  0  0
   21.4221   19.1177   18.9852 H   0  0  0  0  0  0  0  0  0  0  0  0
   21.4799   19.6932   20.6603 H   0  0  0  0  0  0  0  0  0  0  0  0
  1  2  1  0  0  0  0
  1  3  2  0  0  0  0
  1  4  1  0  0  0  0
  4  5  1  0  0  0  0
  4  6  1  0  0  0  0
  4  7  1  0  0  0  0
  7  8  1  0  0  0  0
  7  9  1  0  0  0  0
  7 10  1  0  0  0  0
 10 11  1  0  0  0  0
 10 12  1  0  0  0  0
 10 13  1  0  0  0  0
 13 14  1  0  0  0  0
 13 15  1  0  0  0  0
 13 16  1  0  0  0  0
 16 17  1  0  0  0  0
 16 18  1  0  0  0  0
 16 19  1  0  0  0  0
 19 20  1  0  0  0  0
 19 21  1  0  0  0  0
 19 22  1  0  0  0  0
M  END
> <VM2 Rank>
63

> <Conf_Id>
639

> <Probability>
0.00

> <Sum Probability>
99.98

> <Delta G>
5.428

> <G>
-11.570

> <E>
-31.808

> <-TS>
20.237

> <U+W>
-49.692

> <U>
11.773

> <W>
-61.466

> <W(PB)>
-63.714

> <W(SA)>
2.248

> <Valence>
10.419

> <Coulomb>
0.566

> <VdW>
0.789

> <VdW6>
-8.847

> <VdW12>
9.636

> <Bond>
0.200

> <Angle>
3.187

> <Pdih>
7.032

> <Idih>
0.001

> <Tether>
0.000

$$$$
VeraChem MOL file


 22 21  0  0  0  0  0  0  0  0999 V2000     
   19.8968   19.1954   25.7188 C   0  0  0  0  0  0  0  0  0  0  0  0
   19.2456   20.1929   25.9595 O   0  5  0  0  0  0  0  0  0  0  0  0
   19.7952   18.1590   26.3454 O   0  0  0  0  0  0  0  0  0  0  0  0
   20.9129   19.2515   24.5815 C   0  0  0  0  0  0  0  0  0  0  0  0
   21.8441   18.8065   24.9516 H   0  0  0  0  0  0  0  0  0  0  0  0
   21.1307   20.3028   24.3577 H   0  0  0  0  0  0  0  0  0  0  0  0
   20.4623   18.5132   23.2942 C   0  0  0  0  0  0  0  0  0  0  0  0
   21.3054   18.4797   22.5945 H   0  0  0  0  0  0  0  0  0  0  0  0
   20.2211   17.4700   23.5409 H   0  0  0  0  0  0  0  0  0  0  0  0
   19.2400   19.1846   22.6217 C   0  0  0  0  0  0  0  0  0  0  0  0
   19.4418   20.2485   22.4367 H   0  0  0  0  0  0  0  0  0  0  0  0
   18.3974   19.1527   23.3260 H   0  0  0  0  0  0  0  0  0  0  0  0
   18.8049   18.4890   21.3070 C   0  0  0  0  0  0  0  0  0  0  0  0
   19.0664   17.4223   21.3355 H   0  0  0  0  0  0  0  0  0  0  0  0
   17.7085   18.5258   21.2482 H   0  0  0  0  0  0  0  0  0  0  0  0
   19.3623   19.1394   20.0167 C   0  0  0  0  0  0  0  0  0  0  0  0
   19.0228   20.1826   19.9543 H   0  0  0  0  0  0  0  0  0  0  0  0
   18.9277   18.6227   19.1500 H   0  0  0  0  0  0  0  0  0  0  0  0
   20.8999   19.0939   19.8991 C   0  0  0  0  0  0  0  0  0  0  0  0
   21.3735   19.7313   20.6561 H   0  0  0  0  0  0  0  0  0  0  0  0
   21.2204   19.4569   18.9141 H   0  0  0  0  0  0  0  0  0  0  0  0
   21.2743   18.0692   20.0208 H   0  0  0  0  0  0  0  0  0  0  0  0
  1  2  1  0  0  0  0
  1  3  2  0  0  0  0
  1  4  1  0  0  0  0
  4  5  1  0  0  0  0
  4  6  1  0  0  0  0
  4  7  1  0  0  0  0
  7  8  1  0  0  0  0
  7  9  1  0  0  0  0
  7 10  1  0  0  0  0
 10 11  1  0  0  0  0
 10 12  1  0  0  0  0
 10 13  1  0  0  0  0
 13 14  1  0  0  0  0
 13 15  1  0  0  0  0
 13 16  1  0  0  0  0
 16 17  1  0  0  0  0
 16 18  1  0  0  0  0
 16 19  1  0  0  0  0
 19 20  1  0  0  0  0
 19 21  1  0  0  0  0
 19 22  1  0  0  0  0
M  END
> <VM2 Rank>
64

> <Conf_Id>
80

> <Probability>
0.00

> <Sum Probability>
99.98

> <Delta G>
5.433

> <G>
-11.565

> <E>
-31.779

> <-TS>
20.214

> <U+W>
-49.664

> <U>
11.658

> <W>
-61.322

> <W(PB)>
-63.559

> <W(SA)>
2.236

> <Valence>
10.364

> <Coulomb>
0.562

> <VdW>
0.733

> <VdW6>
-8.874

> <VdW12>
9.606

> <Bond>
0.201

> <Angle>
3.127

> <Pdih>
7.035

> <Idih>
0.001

> <Tether>
0.000

$$$$
VeraChem MOL file


 22 21  0  0  0  0  0  0  0  0999 V2000     
   19.8072   18.8914   25.6012 C   0  0  0  0  0  0  0  0  0  0  0  0
   18.8604   19.4990   26.0608 O   0  5  0  0  0  0  0  0  0  0  0  0
   20.0135   17.7117   25.8082 O   0  0  0  0  0  0  0  0  0  0  0  0
   20.8060   19.6551   24.7361 C   0  0  0  0  0  0  0  0  0  0  0  0
   21.8119   19.3683   25.0645 H   0  0  0  0  0  0  0  0  0  0  0  0
   20.6988   20.7271   24.9413 H   0  0  0  0  0  0  0  0  0  0  0  0
   20.6602   19.3826   23.2164 C   0  0  0  0  0  0  0  0  0  0  0  0
   21.4898   19.8673   22.6845 H   0  0  0  0  0  0  0  0  0  0  0  0
   20.7508   18.3027   23.0405 H   0  0  0  0  0  0  0  0  0  0  0  0
   19.3174   19.8968   22.6484 C   0  0  0  0  0  0  0  0  0  0  0  0
   19.1797   20.9436   22.9516 H   0  0  0  0  0  0  0  0  0  0  0  0
   18.4882   19.3353   23.1005 H   0  0  0  0  0  0  0  0  0  0  0  0
   19.2075   19.8189   21.1049 C   0  0  0  0  0  0  0  0  0  0  0  0
   18.2436   20.2625   20.8204 H   0  0  0  0  0  0  0  0  0  0  0  0
   19.9758   20.4514   20.6394 H   0  0  0  0  0  0  0  0  0  0  0  0
   19.2678   18.3846   20.5227 C   0  0  0  0  0  0  0  0  0  0  0  0
   18.5890   18.3271   19.6606 H   0  0  0  0  0  0  0  0  0  0  0  0
   18.8909   17.6593   21.2571 H   0  0  0  0  0  0  0  0  0  0  0  0
   20.6801   17.9789   20.0454 C   0  0  0  0  0  0  0  0  0  0  0  0
   21.0378   18.6597   19.2621 H   0  0  0  0  0  0  0  0  0  0  0  0
   20.6670   16.9640   19.6275 H   0  0  0  0  0  0  0  0  0  0  0  0
   21.4079   17.9937   20.8645 H   0  0  0  0  0  0  0  0  0  0  0  0
  1  2  1  0  0  0  0
  1  3  2  0  0  0  0
  1  4  1  0  0  0  0
  4  5  1  0  0  0  0
  4  6  1  0  0  0  0
  4  7  1  0  0  0  0
  7  8  1  0  0  0  0
  7  9  1  0  0  0  0
  7 10  1  0  0  0  0
 10 11  1  0  0  0  0
 10 12  1  0  0  0  0
 10 13  1  0  0  0  0
 13 14  1  0  0  0  0
 13 15  1  0  0  0  0
 13 16  1  0  0  0  0
 16 17  1  0  0  0  0
 16 18  1  0  0  0  0
 16 19  1  0  0  0  0
 19 20  1  0  0  0  0
 19 21  1  0  0  0  0
 19 22  1  0  0  0  0
M  END
> <VM2 Rank>
65

> <Conf_Id>
370

> <Probability>
0.00

> <Sum Probability>
99.98

> <Delta G>
5.491

> <G>
-11.507

> <E>
-31.711

> <-TS>
20.203

> <U+W>
-49.596

> <U>
12.072

> <W>
-61.667

> <W(PB)>
-63.917

> <W(SA)>
2.250

> <Valence>
10.343

> <Coulomb>
1.036

> <VdW>
0.692

> <VdW6>
-8.924

> <VdW12>
9.616

> <Bond>
0.196

> <Angle>
3.145

> <Pdih>
7.001

> <Idih>
0.001

> <Tether>
0.000

$$$$
VeraChem MOL file


 22 21  0  0  0  0  0  0  0  0999 V2000     
   20.1272   18.9419   25.4916 C   0  0  0  0  0  0  0  0  0  0  0  0
   19.5716   19.4139   26.4642 O   0  5  0  0  0  0  0  0  0  0  0  0
   20.4825   17.7821   25.4183 O   0  0  0  0  0  0  0  0  0  0  0  0
   20.4156   19.8642   24.3101 C   0  0  0  0  0  0  0  0  0  0  0  0
   21.1766   19.3910   23.6817 H   0  0  0  0  0  0  0  0  0  0  0  0
   20.8670   20.7774   24.7153 H   0  0  0  0  0  0  0  0  0  0  0  0
   19.1564   20.2385   23.4798 C   0  0  0  0  0  0  0  0  0  0  0  0
   18.4050   20.6480   24.1692 H   0  0  0  0  0  0  0  0  0  0  0  0
   19.3987   21.0508   22.7813 H   0  0  0  0  0  0  0  0  0  0  0  0
   18.5281   19.0506   22.7053 C   0  0  0  0  0  0  0  0  0  0  0  0
   17.4379   19.1860   22.7003 H   0  0  0  0  0  0  0  0  0  0  0  0
   18.7073   18.1061   23.2368 H   0  0  0  0  0  0  0  0  0  0  0  0
   18.9874   18.9230   21.2311 C   0  0  0  0  0  0  0  0  0  0  0  0
   18.4204   18.1059   20.7645 H   0  0  0  0  0  0  0  0  0  0  0  0
   18.7181   19.8363   20.6834 H   0  0  0  0  0  0  0  0  0  0  0  0
   20.4966   18.6469   21.0578 C   0  0  0  0  0  0  0  0  0  0  0  0
   20.7920   17.7917   21.6814 H   0  0  0  0  0  0  0  0  0  0  0  0
   21.0755   19.5147   21.3994 H   0  0  0  0  0  0  0  0  0  0  0  0
   20.8545   18.3579   19.5859 C   0  0  0  0  0  0  0  0  0  0  0  0
   20.5911   19.2086   18.9438 H   0  0  0  0  0  0  0  0  0  0  0  0
   20.3208   17.4719   19.2180 H   0  0  0  0  0  0  0  0  0  0  0  0
   21.9313   18.1731   19.4791 H   0  0  0  0  0  0  0  0  0  0  0  0
  1  2  1  0  0  0  0
  1  3  2  0  0  0  0
  1  4  1  0  0  0  0
  4  5  1  0  0  0  0
  4  6  1  0  0  0  0
  4  7  1  0  0  0  0
  7  8  1  0  0  0  0
  7  9  1  0  0  0  0
  7 10  1  0  0  0  0
 10 11  1  0  0  0  0
 10 12  1  0  0  0  0
 10 13  1  0  0  0  0
 13 14  1  0  0  0  0
 13 15  1  0  0  0  0
 13 16  1  0  0  0  0
 16 17  1  0  0  0  0
 16 18  1  0  0  0  0
 16 19  1  0  0  0  0
 19 20  1  0  0  0  0
 19 21  1  0  0  0  0
 19 22  1  0  0  0  0
M  END
> <VM2 Rank>
66

> <Conf_Id>
746

> <Probability>
0.00

> <Sum Probability>
99.99

> <Delta G>
5.510

> <G>
-11.489

> <E>
-31.788

> <-TS>
20.300

> <U+W>
-49.673

> <U>
11.908

> <W>
-61.582

> <W(PB)>
-63.808

> <W(SA)>
2.226

> <Valence>
10.449

> <Coulomb>
0.769

> <VdW>
0.691

> <VdW6>
-9.053

> <VdW12>
9.744

> <Bond>
0.222

> <Angle>
3.228

> <Pdih>
6.998

> <Idih>
0.001

> <Tether>
0.000

$$$$
VeraChem MOL file


 22 21  0  0  0  0  0  0  0  0999 V2000     
   20.1639   19.1738   25.4235 C   0  0  0  0  0  0  0  0  0  0  0  0
   20.9317   20.1146   25.4710 O   0  5  0  0  0  0  0  0  0  0  0  0
   20.4402   18.0595   25.8222 O   0  0  0  0  0  0  0  0  0  0  0  0
   18.7665   19.4139   24.8584 C   0  0  0  0  0  0  0  0  0  0  0  0
   18.3865   20.3395   25.3064 H   0  0  0  0  0  0  0  0  0  0  0  0
   18.1079   18.6041   25.1950 H   0  0  0  0  0  0  0  0  0  0  0  0
   18.7252   19.5320   23.3128 C   0  0  0  0  0  0  0  0  0  0  0  0
   17.7189   19.8488   23.0076 H   0  0  0  0  0  0  0  0  0  0  0  0
   19.4108   20.3272   22.9960 H   0  0  0  0  0  0  0  0  0  0  0  0
   19.0718   18.1984   22.6069 C   0  0  0  0  0  0  0  0  0  0  0  0
   18.3415   17.4425   22.9262 H   0  0  0  0  0  0  0  0  0  0  0  0
   20.0537   17.8312   22.9360 H   0  0  0  0  0  0  0  0  0  0  0  0
   19.0361   18.2964   21.0606 C   0  0  0  0  0  0  0  0  0  0  0  0
   18.6469   17.3475   20.6669 H   0  0  0  0  0  0  0  0  0  0  0  0
   18.3205   19.0672   20.7435 H   0  0  0  0  0  0  0  0  0  0  0  0
   20.4139   18.5452   20.3984 C   0  0  0  0  0  0  0  0  0  0  0  0
   20.2862   18.5211   19.3074 H   0  0  0  0  0  0  0  0  0  0  0  0
   21.0954   17.7198   20.6465 H   0  0  0  0  0  0  0  0  0  0  0  0
   21.0707   19.8851   20.7903 C   0  0  0  0  0  0  0  0  0  0  0  0
   20.3876   20.7258   20.6129 H   0  0  0  0  0  0  0  0  0  0  0  0
   21.9789   20.0553   20.1979 H   0  0  0  0  0  0  0  0  0  0  0  0
   21.3612   19.8886   21.8487 H   0  0  0  0  0  0  0  0  0  0  0  0
  1  2  1  0  0  0  0
  1  3  2  0  0  0  0
  1  4  1  0  0  0  0
  4  5  1  0  0  0  0
  4  6  1  0  0  0  0
  4  7  1  0  0  0  0
  7  8  1  0  0  0  0
  7  9  1  0  0  0  0
  7 10  1  0  0  0  0
 10 11  1  0  0  0  0
 10 12  1  0  0  0  0
 10 13  1  0  0  0  0
 13 14  1  0  0  0  0
 13 15  1  0  0  0  0
 13 16  1  0  0  0  0
 16 17  1  0  0  0  0
 16 18  1  0  0  0  0
 16 19  1  0  0  0  0
 19 20  1  0  0  0  0
 19 21  1  0  0  0  0
 19 22  1  0  0  0  0
M  END
> <VM2 Rank>
67

> <Conf_Id>
668

> <Probability>
0.00

> <Sum Probability>
99.99

> <Delta G>
5.657

> <G>
-11.341

> <E>
-31.598

> <-TS>
20.257

> <U+W>
-49.483

> <U>
12.672

> <W>
-62.155

> <W(PB)>
-64.363

> <W(SA)>
2.207

> <Valence>
10.318

> <Coulomb>
1.786

> <VdW>
0.569

> <VdW6>
-9.119

> <VdW12>
9.688

> <Bond>
0.199

> <Angle>
3.116

> <Pdih>
7.003

> <Idih>
0.001

> <Tether>
0.000

$$$$
VeraChem MOL file


 22 21  0  0  0  0  0  0  0  0999 V2000     
   20.1694   19.0722   25.4273 C   0  0  0  0  0  0  0  0  0  0  0  0
   20.3223   20.2370   25.7385 O   0  5  0  0  0  0  0  0  0  0  0  0
   21.0340   18.2260   25.5434 O   0  0  0  0  0  0  0  0  0  0  0  0
   18.8084   18.6403   24.8881 C   0  0  0  0  0  0  0  0  0  0  0  0
   18.0649   19.3977   25.1645 H   0  0  0  0  0  0  0  0  0  0  0  0
   18.5286   17.7161   25.4071 H   0  0  0  0  0  0  0  0  0  0  0  0
   18.7864   18.4008   23.3562 C   0  0  0  0  0  0  0  0  0  0  0  0
   19.5550   17.6622   23.0982 H   0  0  0  0  0  0  0  0  0  0  0  0
   17.8214   17.9550   23.0803 H   0  0  0  0  0  0  0  0  0  0  0  0
   18.9901   19.7061   22.5490 C   0  0  0  0  0  0  0  0  0  0  0  0
   19.9253   20.2011   22.8451 H   0  0  0  0  0  0  0  0  0  0  0  0
   18.1812   20.4010   22.8127 H   0  0  0  0  0  0  0  0  0  0  0  0
   18.9716   19.4871   21.0149 C   0  0  0  0  0  0  0  0  0  0  0  0
   18.3446   18.6217   20.7606 H   0  0  0  0  0  0  0  0  0  0  0  0
   18.4839   20.3556   20.5515 H   0  0  0  0  0  0  0  0  0  0  0  0
   20.3709   19.3384   20.3680 C   0  0  0  0  0  0  0  0  0  0  0  0
   20.9584   20.2490   20.5494 H   0  0  0  0  0  0  0  0  0  0  0  0
   20.2460   19.2651   19.2789 H   0  0  0  0  0  0  0  0  0  0  0  0
   21.1669   18.1111   20.8585 C   0  0  0  0  0  0  0  0  0  0  0  0
   21.4516   18.2199   21.9128 H   0  0  0  0  0  0  0  0  0  0  0  0
   22.0905   17.9951   20.2771 H   0  0  0  0  0  0  0  0  0  0  0  0
   20.5792   17.1905   20.7487 H   0  0  0  0  0  0  0  0  0  0  0  0
  1  2  1  0  0  0  0
  1  3  2  0  0  0  0
  1  4  1  0  0  0  0
  4  5  1  0  0  0  0
  4  6  1  0  0  0  0
  4  7  1  0  0  0  0
  7  8  1  0  0  0  0
  7  9  1  0  0  0  0
  7 10  1  0  0  0  0
 10 11  1  0  0  0  0
 10 12  1  0  0  0  0
 10 13  1  0  0  0  0
 13 14  1  0  0  0  0
 13 15  1  0  0  0  0
 13 16  1  0  0  0  0
 16 17  1  0  0  0  0
 16 18  1  0  0  0  0
 16 19  1  0  0  0  0
 19 20  1  0  0  0  0
 19 21  1  0  0  0  0
 19 22  1  0  0  0  0
M  END
> <VM2 Rank>
68

> <Conf_Id>
669

> <Probability>
0.00

> <Sum Probability>
99.99

> <Delta G>
5.701

> <G>
-11.297

> <E>
-31.554

> <-TS>
20.257

> <U+W>
-49.439

> <U>
12.673

> <W>
-62.111

> <W(PB)>
-64.337

> <W(SA)>
2.226

> <Valence>
10.318

> <Coulomb>
1.786

> <VdW>
0.569

> <VdW6>
-9.120

> <VdW12>
9.688

> <Bond>
0.198

> <Angle>
3.116

> <Pdih>
7.003

> <Idih>
0.001

> <Tether>
0.000

$$$$
VeraChem MOL file


 22 21  0  0  0  0  0  0  0  0999 V2000     
   20.3322   19.0967   24.9615 C   0  0  0  0  0  0  0  0  0  0  0  0
   20.8085   20.2151   24.9608 O   0  5  0  0  0  0  0  0  0  0  0  0
   20.9951   18.0852   25.0838 O   0  0  0  0  0  0  0  0  0  0  0  0
   18.8113   18.9610   24.9212 C   0  0  0  0  0  0  0  0  0  0  0  0
   18.4312   19.5013   25.7960 H   0  0  0  0  0  0  0  0  0  0  0  0
   18.5427   17.9072   25.0628 H   0  0  0  0  0  0  0  0  0  0  0  0
   18.1286   19.5258   23.6438 C   0  0  0  0  0  0  0  0  0  0  0  0
   17.0797   19.7388   23.8899 H   0  0  0  0  0  0  0  0  0  0  0  0
   18.5713   20.4944   23.3764 H   0  0  0  0  0  0  0  0  0  0  0  0
   18.1344   18.5645   22.4266 C   0  0  0  0  0  0  0  0  0  0  0  0
   17.5132   19.0022   21.6332 H   0  0  0  0  0  0  0  0  0  0  0  0
   17.6389   17.6267   22.7123 H   0  0  0  0  0  0  0  0  0  0  0  0
   19.5254   18.2313   21.8337 C   0  0  0  0  0  0  0  0  0  0  0  0
   20.1395   17.7119   22.5801 H   0  0  0  0  0  0  0  0  0  0  0  0
   19.3860   17.5188   21.0094 H   0  0  0  0  0  0  0  0  0  0  0  0
   20.2813   19.4688   21.2996 C   0  0  0  0  0  0  0  0  0  0  0  0
   20.5022   20.1598   22.1241 H   0  0  0  0  0  0  0  0  0  0  0  0
   19.6471   20.0120   20.5858 H   0  0  0  0  0  0  0  0  0  0  0  0
   21.6032   19.0705   20.6130 C   0  0  0  0  0  0  0  0  0  0  0  0
   21.4190   18.4048   19.7598 H   0  0  0  0  0  0  0  0  0  0  0  0
   22.2673   18.5519   21.3170 H   0  0  0  0  0  0  0  0  0  0  0  0
   22.1297   19.9596   20.2427 H   0  0  0  0  0  0  0  0  0  0  0  0
  1  2  1  0  0  0  0
  1  3  2  0  0  0  0
  1  4  1  0  0  0  0
  4  5  1  0  0  0  0
  4  6  1  0  0  0  0
  4  7  1  0  0  0  0
  7  8  1  0  0  0  0
  7  9  1  0  0  0  0
  7 10  1  0  0  0  0
 10 11  1  0  0  0  0
 10 12  1  0  0  0  0
 10 13  1  0  0  0  0
 13 14  1  0  0  0  0
 13 15  1  0  0  0  0
 13 16  1  0  0  0  0
 16 17  1  0  0  0  0
 16 18  1  0  0  0  0
 16 19  1  0  0  0  0
 19 20  1  0  0  0  0
 19 21  1  0  0  0  0
 19 22  1  0  0  0  0
M  END
> <VM2 Rank>
69

> <Conf_Id>
690

> <Probability>
0.00

> <Sum Probability>
99.99

> <Delta G>
6.004

> <G>
-10.994

> <E>
-31.863

> <-TS>
20.869

> <U+W>
-49.748

> <U>
12.940

> <W>
-62.688

> <W(PB)>
-64.863

> <W(SA)>
2.175

> <Valence>
9.684

> <Coulomb>
3.147

> <VdW>
0.109

> <VdW6>
-10.251

> <VdW12>
10.360

> <Bond>
0.223

> <Angle>
3.698

> <Pdih>
5.745

> <Idih>
0.018

> <Tether>
0.000

$$$$
VeraChem MOL file


 22 21  0  0  0  0  0  0  0  0999 V2000     
   20.0568   19.4666   25.1782 C   0  0  0  0  0  0  0  0  0  0  0  0
   20.4843   20.5423   24.8090 O   0  5  0  0  0  0  0  0  0  0  0  0
   19.3000   19.3346   26.1204 O   0  0  0  0  0  0  0  0  0  0  0  0
   20.5353   18.2086   24.4562 C   0  0  0  0  0  0  0  0  0  0  0  0
   21.0523   17.5913   25.1998 H   0  0  0  0  0  0  0  0  0  0  0  0
   21.2876   18.4859   23.7100 H   0  0  0  0  0  0  0  0  0  0  0  0
   19.4003   17.3745   23.8037 C   0  0  0  0  0  0  0  0  0  0  0  0
   19.8219   16.4405   23.4086 H   0  0  0  0  0  0  0  0  0  0  0  0
   18.6913   17.0782   24.5892 H   0  0  0  0  0  0  0  0  0  0  0  0
   18.6169   18.0959   22.6773 C   0  0  0  0  0  0  0  0  0  0  0  0
   18.1741   19.0278   23.0551 H   0  0  0  0  0  0  0  0  0  0  0  0
   17.7681   17.4534   22.4060 H   0  0  0  0  0  0  0  0  0  0  0  0
   19.4390   18.3655   21.3911 C   0  0  0  0  0  0  0  0  0  0  0  0
   20.2518   17.6323   21.2997 H   0  0  0  0  0  0  0  0  0  0  0  0
   18.7853   18.2058   20.5227 H   0  0  0  0  0  0  0  0  0  0  0  0
   20.0023   19.8024   21.3086 C   0  0  0  0  0  0  0  0  0  0  0  0
   20.6605   20.0074   22.1611 H   0  0  0  0  0  0  0  0  0  0  0  0
   19.1776   20.5258   21.3687 H   0  0  0  0  0  0  0  0  0  0  0  0
   20.7850   20.0287   19.9994 C   0  0  0  0  0  0  0  0  0  0  0  0
   21.6363   19.3391   19.9274 H   0  0  0  0  0  0  0  0  0  0  0  0
   21.1747   21.0539   19.9546 H   0  0  0  0  0  0  0  0  0  0  0  0
   20.1412   19.8720   19.1240 H   0  0  0  0  0  0  0  0  0  0  0  0
  1  2  1  0  0  0  0
  1  3  2  0  0  0  0
  1  4  1  0  0  0  0
  4  5  1  0  0  0  0
  4  6  1  0  0  0  0
  4  7  1  0  0  0  0
  7  8  1  0  0  0  0
  7  9  1  0  0  0  0
  7 10  1  0  0  0  0
 10 11  1  0  0  0  0
 10 12  1  0  0  0  0
 10 13  1  0  0  0  0
 13 14  1  0  0  0  0
 13 15  1  0  0  0  0
 13 16  1  0  0  0  0
 16 17  1  0  0  0  0
 16 18  1  0  0  0  0
 16 19  1  0  0  0  0
 19 20  1  0  0  0  0
 19 21  1  0  0  0  0
 19 22  1  0  0  0  0
M  END
> <VM2 Rank>
70

> <Conf_Id>
331

> <Probability>
0.00

> <Sum Probability>
99.99

> <Delta G>
6.082

> <G>
-10.916

> <E>
-31.214

> <-TS>
20.298

> <U+W>
-49.099

> <U>
13.118

> <W>
-62.216

> <W(PB)>
-64.413

> <W(SA)>
2.196

> <Valence>
10.731

> <Coulomb>
2.056

> <VdW>
0.330

> <VdW6>
-9.569

> <VdW12>
9.899

> <Bond>
0.211

> <Angle>
3.393

> <Pdih>
7.123

> <Idih>
0.004

> <Tether>
0.000

$$$$
VeraChem MOL file


 22 21  0  0  0  0  0  0  0  0999 V2000     
   20.3303   19.1314   24.9602 C   0  0  0  0  0  0  0  0  0  0  0  0
   20.8797   20.2148   25.0025 O   0  5  0  0  0  0  0  0  0  0  0  0
   20.9245   18.0741   25.0426 O   0  0  0  0  0  0  0  0  0  0  0  0
   18.8038   19.0990   24.9160 C   0  0  0  0  0  0  0  0  0  0  0  0
   18.4227   20.1254   24.9779 H   0  0  0  0  0  0  0  0  0  0  0  0
   18.4805   18.5891   25.8309 H   0  0  0  0  0  0  0  0  0  0  0  0
   18.1912   18.3682   23.6881 C   0  0  0  0  0  0  0  0  0  0  0  0
   18.7366   17.4353   23.4936 H   0  0  0  0  0  0  0  0  0  0  0  0
   17.1702   18.0630   23.9541 H   0  0  0  0  0  0  0  0  0  0  0  0
   18.0985   19.2289   22.4011 C   0  0  0  0  0  0  0  0  0  0  0  0
   17.5039   20.1270   22.6166 H   0  0  0  0  0  0  0  0  0  0  0  0
   17.5313   18.6677   21.6461 H   0  0  0  0  0  0  0  0  0  0  0  0
   19.4481   19.6635   21.7788 C   0  0  0  0  0  0  0  0  0  0  0  0
   19.2363   20.2919   20.9032 H   0  0  0  0  0  0  0  0  0  0  0  0
   19.9997   20.3013   22.4808 H   0  0  0  0  0  0  0  0  0  0  0  0
   20.3348   18.4773   21.3376 C   0  0  0  0  0  0  0  0  0  0  0  0
   19.7657   17.8162   20.6699 H   0  0  0  0  0  0  0  0  0  0  0  0
   20.6254   17.8790   22.2114 H   0  0  0  0  0  0  0  0  0  0  0  0
   21.6090   18.9619   20.6171 C   0  0  0  0  0  0  0  0  0  0  0  0
   21.3578   19.5368   19.7163 H   0  0  0  0  0  0  0  0  0  0  0  0
   22.2106   19.6013   21.2767 H   0  0  0  0  0  0  0  0  0  0  0  0
   22.2297   18.1089   20.3137 H   0  0  0  0  0  0  0  0  0  0  0  0
  1  2  1  0  0  0  0
  1  3  2  0  0  0  0
  1  4  1  0  0  0  0
  4  5  1  0  0  0  0
  4  6  1  0  0  0  0
  4  7  1  0  0  0  0
  7  8  1  0  0  0  0
  7  9  1  0  0  0  0
  7 10  1  0  0  0  0
 10 11  1  0  0  0  0
 10 12  1  0  0  0  0
 10 13  1  0  0  0  0
 13 14  1  0  0  0  0
 13 15  1  0  0  0  0
 13 16  1  0  0  0  0
 16 17  1  0  0  0  0
 16 18  1  0  0  0  0
 16 19  1  0  0  0  0
 19 20  1  0  0  0  0
 19 21  1  0  0  0  0
 19 22  1  0  0  0  0
M  END
> <VM2 Rank>
71

> <Conf_Id>
170

> <Probability>
0.00

> <Sum Probability>
100.00

> <Delta G>
6.107

> <G>
-10.891

> <E>
-31.760

> <-TS>
20.869

> <U+W>
-49.645

> <U>
12.940

> <W>
-62.585

> <W(PB)>
-64.781

> <W(SA)>
2.196

> <Valence>
9.684

> <Coulomb>
3.147

> <VdW>
0.109

> <VdW6>
-10.251

> <VdW12>
10.360

> <Bond>
0.223

> <Angle>
3.698

> <Pdih>
5.745

> <Idih>
0.018

> <Tether>
0.000

$$$$
VeraChem MOL file


 22 21  0  0  0  0  0  0  0  0999 V2000     
   20.0954   18.7516   25.2056 C   0  0  0  0  0  0  0  0  0  0  0  0
   19.3248   18.8728   26.1379 O   0  5  0  0  0  0  0  0  0  0  0  0
   20.6381   17.7033   24.9179 O   0  0  0  0  0  0  0  0  0  0  0  0
   20.4387   19.9951   24.3877 C   0  0  0  0  0  0  0  0  0  0  0  0
   21.2196   19.7444   23.6618 H   0  0  0  0  0  0  0  0  0  0  0  0
   20.8830   20.7194   25.0800 H   0  0  0  0  0  0  0  0  0  0  0  0
   19.2232   20.6498   23.6781 C   0  0  0  0  0  0  0  0  0  0  0  0
   18.4831   20.9272   24.4416 H   0  0  0  0  0  0  0  0  0  0  0  0
   19.5433   21.5909   23.2111 H   0  0  0  0  0  0  0  0  0  0  0  0
   18.5267   19.7643   22.6134 C   0  0  0  0  0  0  0  0  0  0  0  0
   17.6147   20.2890   22.2972 H   0  0  0  0  0  0  0  0  0  0  0  0
   18.1852   18.8217   23.0630 H   0  0  0  0  0  0  0  0  0  0  0  0
   19.3783   19.4873   21.3481 C   0  0  0  0  0  0  0  0  0  0  0  0
   18.7148   19.5088   20.4727 H   0  0  0  0  0  0  0  0  0  0  0  0
   20.1078   20.2947   21.1976 H   0  0  0  0  0  0  0  0  0  0  0  0
   20.0935   18.1174   21.3733 C   0  0  0  0  0  0  0  0  0  0  0  0
   19.3513   17.3161   21.4920 H   0  0  0  0  0  0  0  0  0  0  0  0
   20.7664   18.0503   22.2363 H   0  0  0  0  0  0  0  0  0  0  0  0
   20.9014   17.8773   20.0820 C   0  0  0  0  0  0  0  0  0  0  0  0
   20.2480   17.8963   19.1999 H   0  0  0  0  0  0  0  0  0  0  0  0
   21.3994   16.8996   20.1141 H   0  0  0  0  0  0  0  0  0  0  0  0
   21.6737   18.6470   19.9539 H   0  0  0  0  0  0  0  0  0  0  0  0
  1  2  1  0  0  0  0
  1  3  2  0  0  0  0
  1  4  1  0  0  0  0
  4  5  1  0  0  0  0
  4  6  1  0  0  0  0
  4  7  1  0  0  0  0
  7  8  1  0  0  0  0
  7  9  1  0  0  0  0
  7 10  1  0  0  0  0
 10 11  1  0  0  0  0
 10 12  1  0  0  0  0
 10 13  1  0  0  0  0
 13 14  1  0  0  0  0
 13 15  1  0  0  0  0
 13 16  1  0  0  0  0
 16 17  1  0  0  0  0
 16 18  1  0  0  0  0
 16 19  1  0  0  0  0
 19 20  1  0  0  0  0
 19 21  1  0  0  0  0
 19 22  1  0  0  0  0
M  END
> <VM2 Rank>
72

> <Conf_Id>
52

> <Probability>
0.00

> <Sum Probability>
100.00

> <Delta G>
6.130

> <G>
-10.868

> <E>
-31.165

> <-TS>
20.297

> <U+W>
-49.050

> <U>
13.118

> <W>
-62.168

> <W(PB)>
-64.348

> <W(SA)>
2.180

> <Valence>
10.731

> <Coulomb>
2.057

> <VdW>
0.330

> <VdW6>
-9.569

> <VdW12>
9.899

> <Bond>
0.211

> <Angle>
3.394

> <Pdih>
7.123

> <Idih>
0.004

> <Tether>
0.000

$$$$
VeraChem MOL file


 22 21  0  0  0  0  0  0  0  0999 V2000     
   19.5603   19.3930   25.0827 C   0  0  0  0  0  0  0  0  0  0  0  0
   19.8607   20.5704   25.0484 O   0  5  0  0  0  0  0  0  0  0  0  0
   18.4527   18.9923   25.3828 O   0  0  0  0  0  0  0  0  0  0  0  0
   20.6608   18.3611   24.8446 C   0  0  0  0  0  0  0  0  0  0  0  0
   20.2669   17.3619   25.0660 H   0  0  0  0  0  0  0  0  0  0  0  0
   21.4389   18.5629   25.5898 H   0  0  0  0  0  0  0  0  0  0  0  0
   21.3005   18.3878   23.4279 C   0  0  0  0  0  0  0  0  0  0  0  0
   21.4970   19.4239   23.1215 H   0  0  0  0  0  0  0  0  0  0  0  0
   22.2858   17.9074   23.4956 H   0  0  0  0  0  0  0  0  0  0  0  0
   20.4912   17.6382   22.3376 C   0  0  0  0  0  0  0  0  0  0  0  0
   20.3330   16.6013   22.6637 H   0  0  0  0  0  0  0  0  0  0  0  0
   21.1048   17.5697   21.4298 H   0  0  0  0  0  0  0  0  0  0  0  0
   19.1179   18.2572   21.9701 C   0  0  0  0  0  0  0  0  0  0  0  0
   18.6516   17.6342   21.1950 H   0  0  0  0  0  0  0  0  0  0  0  0
   18.4474   18.1988   22.8366 H   0  0  0  0  0  0  0  0  0  0  0  0
   19.1664   19.7205   21.4656 C   0  0  0  0  0  0  0  0  0  0  0  0
   19.5482   20.3811   22.2553 H   0  0  0  0  0  0  0  0  0  0  0  0
   18.1395   20.0542   21.2632 H   0  0  0  0  0  0  0  0  0  0  0  0
   20.0094   19.8984   20.1843 C   0  0  0  0  0  0  0  0  0  0  0  0
   21.0688   19.6831   20.3719 H   0  0  0  0  0  0  0  0  0  0  0  0
   19.9392   20.9309   19.8187 H   0  0  0  0  0  0  0  0  0  0  0  0
   19.6573   19.2315   19.3866 H   0  0  0  0  0  0  0  0  0  0  0  0
  1  2  1  0  0  0  0
  1  3  2  0  0  0  0
  1  4  1  0  0  0  0
  4  5  1  0  0  0  0
  4  6  1  0  0  0  0
  4  7  1  0  0  0  0
  7  8  1  0  0  0  0
  7  9  1  0  0  0  0
  7 10  1  0  0  0  0
 10 11  1  0  0  0  0
 10 12  1  0  0  0  0
 10 13  1  0  0  0  0
 13 14  1  0  0  0  0
 13 15  1  0  0  0  0
 13 16  1  0  0  0  0
 16 17  1  0  0  0  0
 16 18  1  0  0  0  0
 16 19  1  0  0  0  0
 19 20  1  0  0  0  0
 19 21  1  0  0  0  0
 19 22  1  0  0  0  0
M  END
> <VM2 Rank>
73

> <Conf_Id>
379

> <Probability>
0.00

> <Sum Probability>
100.00

> <Delta G>
6.514

> <G>
-10.485

> <E>
-31.617

> <-TS>
21.132

> <U+W>
-49.502

> <U>
12.977

> <W>
-62.478

> <W(PB)>
-64.635

> <W(SA)>
2.156

> <Valence>
10.104

> <Coulomb>
2.675

> <VdW>
0.198

> <VdW6>
-10.984

> <VdW12>
11.182

> <Bond>
0.262

> <Angle>
4.020

> <Pdih>
5.805

> <Idih>
0.017

> <Tether>
0.000

$$$$
VeraChem MOL file


 22 21  0  0  0  0  0  0  0  0999 V2000     
   20.1977   19.1285   25.1062 C   0  0  0  0  0  0  0  0  0  0  0  0
   20.8210   20.1719   25.0837 O   0  5  0  0  0  0  0  0  0  0  0  0
   20.6757   18.0699   25.4643 O   0  0  0  0  0  0  0  0  0  0  0  0
   18.7079   19.1714   24.7729 C   0  0  0  0  0  0  0  0  0  0  0  0
   18.2559   19.8836   25.4730 H   0  0  0  0  0  0  0  0  0  0  0  0
   18.2649   18.1926   24.9923 H   0  0  0  0  0  0  0  0  0  0  0  0
   18.3651   19.6061   23.3201 C   0  0  0  0  0  0  0  0  0  0  0  0
   17.3273   19.9653   23.3135 H   0  0  0  0  0  0  0  0  0  0  0  0
   18.9786   20.4690   23.0291 H   0  0  0  0  0  0  0  0  0  0  0  0
   18.4729   18.4758   22.2635 C   0  0  0  0  0  0  0  0  0  0  0  0
   18.0494   18.8379   21.3176 H   0  0  0  0  0  0  0  0  0  0  0  0
   17.8306   17.6399   22.5717 H   0  0  0  0  0  0  0  0  0  0  0  0
   19.9008   17.9323   21.9988 C   0  0  0  0  0  0  0  0  0  0  0  0
   20.2774   17.4393   22.9038 H   0  0  0  0  0  0  0  0  0  0  0  0
   19.8371   17.1422   21.2385 H   0  0  0  0  0  0  0  0  0  0  0  0
   20.9333   18.9872   21.5305 C   0  0  0  0  0  0  0  0  0  0  0  0
   21.9050   18.4914   21.4014 H   0  0  0  0  0  0  0  0  0  0  0  0
   21.0822   19.7444   22.3117 H   0  0  0  0  0  0  0  0  0  0  0  0
   20.5456   19.6758   20.2040 C   0  0  0  0  0  0  0  0  0  0  0  0
   20.3717   18.9351   19.4128 H   0  0  0  0  0  0  0  0  0  0  0  0
   21.3483   20.3461   19.8705 H   0  0  0  0  0  0  0  0  0  0  0  0
   19.6357   20.2781   20.3193 H   0  0  0  0  0  0  0  0  0  0  0  0
  1  2  1  0  0  0  0
  1  3  2  0  0  0  0
  1  4  1  0  0  0  0
  4  5  1  0  0  0  0
  4  6  1  0  0  0  0
  4  7  1  0  0  0  0
  7  8  1  0  0  0  0
  7  9  1  0  0  0  0
  7 10  1  0  0  0  0
 10 11  1  0  0  0  0
 10 12  1  0  0  0  0
 10 13  1  0  0  0  0
 13 14  1  0  0  0  0
 13 15  1  0  0  0  0
 13 16  1  0  0  0  0
 16 17  1  0  0  0  0
 16 18  1  0  0  0  0
 16 19  1  0  0  0  0
 19 20  1  0  0  0  0
 19 21  1  0  0  0  0
 19 22  1  0  0  0  0
M  END
> <VM2 Rank>
74

> <Conf_Id>
377

> <Probability>
0.00

> <Sum Probability>
100.00

> <Delta G>
6.527

> <G>
-10.471

> <E>
-31.604

> <-TS>
21.132

> <U+W>
-49.489

> <U>
12.978

> <W>
-62.466

> <W(PB)>
-64.624

> <W(SA)>
2.157

> <Valence>
10.104

> <Coulomb>
2.676

> <VdW>
0.197

> <VdW6>
-10.984

> <VdW12>
11.181

> <Bond>
0.262

> <Angle>
4.020

> <Pdih>
5.805

> <Idih>
0.017

> <Tether>
0.000

$$$$
VeraChem MOL file


 22 21  0  0  0  0  0  0  0  0999 V2000     
   19.9447   19.2000   25.5857 C   0  0  0  0  0  0  0  0  0  0  0  0
   19.6213   20.3669   25.6893 O   0  5  0  0  0  0  0  0  0  0  0  0
   19.6199   18.3400   26.3808 O   0  0  0  0  0  0  0  0  0  0  0  0
   20.8273   18.7946   24.4085 C   0  0  0  0  0  0  0  0  0  0  0  0
   21.6543   18.1998   24.8136 H   0  0  0  0  0  0  0  0  0  0  0  0
   21.2759   19.6980   23.9812 H   0  0  0  0  0  0  0  0  0  0  0  0
   20.0910   17.9699   23.3164 C   0  0  0  0  0  0  0  0  0  0  0  0
   20.8228   17.6179   22.5802 H   0  0  0  0  0  0  0  0  0  0  0  0
   19.6735   17.0684   23.7855 H   0  0  0  0  0  0  0  0  0  0  0  0
   18.9446   18.7348   22.6041 C   0  0  0  0  0  0  0  0  0  0  0  0
   18.2711   19.1459   23.3684 H   0  0  0  0  0  0  0  0  0  0  0  0
   18.3357   18.0249   22.0280 H   0  0  0  0  0  0  0  0  0  0  0  0
   19.4075   19.8875   21.6736 C   0  0  0  0  0  0  0  0  0  0  0  0
   18.6638   20.6933   21.7376 H   0  0  0  0  0  0  0  0  0  0  0  0
   20.3479   20.3257   22.0292 H   0  0  0  0  0  0  0  0  0  0  0  0
   19.5424   19.4964   20.1812 C   0  0  0  0  0  0  0  0  0  0  0  0
   19.7854   20.3998   19.6050 H   0  0  0  0  0  0  0  0  0  0  0  0
   18.5732   19.1427   19.8034 H   0  0  0  0  0  0  0  0  0  0  0  0
   20.6212   18.4290   19.9043 C   0  0  0  0  0  0  0  0  0  0  0  0
   20.3356   17.4587   20.3290 H   0  0  0  0  0  0  0  0  0  0  0  0
   21.5881   18.7262   20.3309 H   0  0  0  0  0  0  0  0  0  0  0  0
   20.7556   18.2902   18.8238 H   0  0  0  0  0  0  0  0  0  0  0  0
  1  2  1  0  0  0  0
  1  3  2  0  0  0  0
  1  4  1  0  0  0  0
  4  5  1  0  0  0  0
  4  6  1  0  0  0  0
  4  7  1  0  0  0  0
  7  8  1  0  0  0  0
  7  9  1  0  0  0  0
  7 10  1  0  0  0  0
 10 11  1  0  0  0  0
 10 12  1  0  0  0  0
 10 13  1  0  0  0  0
 13 14  1  0  0  0  0
 13 15  1  0  0  0  0
 13 16  1  0  0  0  0
 16 17  1  0  0  0  0
 16 18  1  0  0  0  0
 16 19  1  0  0  0  0
 19 20  1  0  0  0  0
 19 21  1  0  0  0  0
 19 22  1  0  0  0  0
M  END
> <VM2 Rank>
75

> <Conf_Id>
163

> <Probability>
0.00

> <Sum Probability>
100.00

> <Delta G>
6.596

> <G>
-10.403

> <E>
-30.610

> <-TS>
20.208

> <U+W>
-48.495

> <U>
12.987

> <W>
-61.482

> <W(PB)>
-63.695

> <W(SA)>
2.213

> <Valence>
11.114

> <Coulomb>
1.103

> <VdW>
0.770

> <VdW6>
-9.558

> <VdW12>
10.328

> <Bond>
0.268

> <Angle>
3.531

> <Pdih>
7.313

> <Idih>
0.001

> <Tether>
0.000

$$$$
VeraChem MOL file


 22 21  0  0  0  0  0  0  0  0999 V2000     
   20.1430   19.2182   25.3590 C   0  0  0  0  0  0  0  0  0  0  0  0
   20.2638   20.4269   25.3224 O   0  5  0  0  0  0  0  0  0  0  0  0
   19.6992   18.6165   26.3173 O   0  0  0  0  0  0  0  0  0  0  0  0
   20.5997   18.4071   24.1497 C   0  0  0  0  0  0  0  0  0  0  0  0
   21.2452   17.6027   24.5209 H   0  0  0  0  0  0  0  0  0  0  0  0
   21.2289   19.0453   23.5195 H   0  0  0  0  0  0  0  0  0  0  0  0
   19.4365   17.7931   23.3231 C   0  0  0  0  0  0  0  0  0  0  0  0
   19.8420   17.1451   22.5366 H   0  0  0  0  0  0  0  0  0  0  0  0
   18.8520   17.1342   23.9798 H   0  0  0  0  0  0  0  0  0  0  0  0
   18.4804   18.8375   22.6953 C   0  0  0  0  0  0  0  0  0  0  0  0
   18.0026   19.4078   23.5036 H   0  0  0  0  0  0  0  0  0  0  0  0
   17.6659   18.3067   22.1841 H   0  0  0  0  0  0  0  0  0  0  0  0
   19.1246   19.8402   21.7020 C   0  0  0  0  0  0  0  0  0  0  0  0
   18.3425   20.5558   21.4144 H   0  0  0  0  0  0  0  0  0  0  0  0
   19.8965   20.4402   22.2021 H   0  0  0  0  0  0  0  0  0  0  0  0
   19.6827   19.2052   20.4032 C   0  0  0  0  0  0  0  0  0  0  0  0
   19.5320   19.9149   19.5780 H   0  0  0  0  0  0  0  0  0  0  0  0
   19.1078   18.3065   20.1409 H   0  0  0  0  0  0  0  0  0  0  0  0
   21.1900   18.8743   20.4721 C   0  0  0  0  0  0  0  0  0  0  0  0
   21.4072   18.1143   21.2303 H   0  0  0  0  0  0  0  0  0  0  0  0
   21.7770   19.7709   20.7100 H   0  0  0  0  0  0  0  0  0  0  0  0
   21.5417   18.4893   19.5063 H   0  0  0  0  0  0  0  0  0  0  0  0
  1  2  1  0  0  0  0
  1  3  2  0  0  0  0
  1  4  1  0  0  0  0
  4  5  1  0  0  0  0
  4  6  1  0  0  0  0
  4  7  1  0  0  0  0
  7  8  1  0  0  0  0
  7  9  1  0  0  0  0
  7 10  1  0  0  0  0
 10 11  1  0  0  0  0
 10 12  1  0  0  0  0
 10 13  1  0  0  0  0
 13 14  1  0  0  0  0
 13 15  1  0  0  0  0
 13 16  1  0  0  0  0
 16 17  1  0  0  0  0
 16 18  1  0  0  0  0
 16 19  1  0  0  0  0
 19 20  1  0  0  0  0
 19 21  1  0  0  0  0
 19 22  1  0  0  0  0
M  END
> <VM2 Rank>
76

> <Conf_Id>
302

> <Probability>
0.00

> <Sum Probability>
100.00

> <Delta G>
6.680

> <G>
-10.318

> <E>
-31.010

> <-TS>
20.692

> <U+W>
-48.895

> <U>
13.163

> <W>
-62.058

> <W(PB)>
-64.213

> <W(SA)>
2.155

> <Valence>
10.932

> <Coulomb>
1.922

> <VdW>
0.309

> <VdW6>
-10.319

> <VdW12>
10.628

> <Bond>
0.254

> <Angle>
3.841

> <Pdih>
6.835

> <Idih>
0.001

> <Tether>
0.000

$$$$
VeraChem MOL file


 22 21  0  0  0  0  0  0  0  0999 V2000     
   19.7442   19.3839   25.3556 C   0  0  0  0  0  0  0  0  0  0  0  0
   20.5165   20.3218   25.3246 O   0  5  0  0  0  0  0  0  0  0  0  0
   19.6164   18.6508   26.3166 O   0  0  0  0  0  0  0  0  0  0  0  0
   18.8654   19.1278   24.1345 C   0  0  0  0  0  0  0  0  0  0  0  0
   18.8835   20.0201   23.4990 H   0  0  0  0  0  0  0  0  0  0  0  0
   17.8345   19.0201   24.4909 H   0  0  0  0  0  0  0  0  0  0  0  0
   19.2633   17.8652   23.3216 C   0  0  0  0  0  0  0  0  0  0  0  0
   19.1988   16.9902   23.9828 H   0  0  0  0  0  0  0  0  0  0  0  0
   18.5298   17.6905   22.5251 H   0  0  0  0  0  0  0  0  0  0  0  0
   20.6872   17.9207   22.7147 C   0  0  0  0  0  0  0  0  0  0  0  0
   20.8934   16.9658   22.2126 H   0  0  0  0  0  0  0  0  0  0  0  0
   21.4163   17.9896   23.5336 H   0  0  0  0  0  0  0  0  0  0  0  0
   20.9581   19.0783   21.7180 C   0  0  0  0  0  0  0  0  0  0  0  0
   20.8313   20.0518   22.2101 H   0  0  0  0  0  0  0  0  0  0  0  0
   22.0212   19.0273   21.4465 H   0  0  0  0  0  0  0  0  0  0  0  0
   20.1338   19.0176   20.4071 C   0  0  0  0  0  0  0  0  0  0  0  0
   19.9063   17.9744   20.1481 H   0  0  0  0  0  0  0  0  0  0  0  0
   20.7553   19.4061   19.5886 H   0  0  0  0  0  0  0  0  0  0  0  0
   18.8351   19.8528   20.4513 C   0  0  0  0  0  0  0  0  0  0  0  0
   18.1321   19.4755   21.2016 H   0  0  0  0  0  0  0  0  0  0  0  0
   18.3286   19.8242   19.4780 H   0  0  0  0  0  0  0  0  0  0  0  0
   19.0530   20.9028   20.6857 H   0  0  0  0  0  0  0  0  0  0  0  0
  1  2  1  0  0  0  0
  1  3  2  0  0  0  0
  1  4  1  0  0  0  0
  4  5  1  0  0  0  0
  4  6  1  0  0  0  0
  4  7  1  0  0  0  0
  7  8  1  0  0  0  0
  7  9  1  0  0  0  0
  7 10  1  0  0  0  0
 10 11  1  0  0  0  0
 10 12  1  0  0  0  0
 10 13  1  0  0  0  0
 13 14  1  0  0  0  0
 13 15  1  0  0  0  0
 13 16  1  0  0  0  0
 16 17  1  0  0  0  0
 16 18  1  0  0  0  0
 16 19  1  0  0  0  0
 19 20  1  0  0  0  0
 19 21  1  0  0  0  0
 19 22  1  0  0  0  0
M  END
> <VM2 Rank>
77

> <Conf_Id>
507

> <Probability>
0.00

> <Sum Probability>
100.00

> <Delta G>
6.719

> <G>
-10.279

> <E>
-30.971

> <-TS>
20.692

> <U+W>
-48.856

> <U>
13.163

> <W>
-62.019

> <W(PB)>
-64.194

> <W(SA)>
2.176

> <Valence>
10.932

> <Coulomb>
1.922

> <VdW>
0.309

> <VdW6>
-10.319

> <VdW12>
10.628

> <Bond>
0.254

> <Angle>
3.840

> <Pdih>
6.836

> <Idih>
0.001

> <Tether>
0.000

$$$$
VeraChem MOL file


 22 21  0  0  0  0  0  0  0  0999 V2000     
   20.3106   19.1535   25.4441 C   0  0  0  0  0  0  0  0  0  0  0  0
   21.1825   19.9917   25.3271 O   0  5  0  0  0  0  0  0  0  0  0  0
   19.7607   18.8971   26.4971 O   0  0  0  0  0  0  0  0  0  0  0  0
   19.8678   18.3949   24.1983 C   0  0  0  0  0  0  0  0  0  0  0  0
   19.5652   17.3867   24.5050 H   0  0  0  0  0  0  0  0  0  0  0  0
   20.7397   18.2804   23.5472 H   0  0  0  0  0  0  0  0  0  0  0  0
   18.7016   19.0952   23.4520 C   0  0  0  0  0  0  0  0  0  0  0  0
   17.8477   19.1506   24.1413 H   0  0  0  0  0  0  0  0  0  0  0  0
   18.9661   20.1344   23.2148 H   0  0  0  0  0  0  0  0  0  0  0  0
   18.2549   18.3486   22.1706 C   0  0  0  0  0  0  0  0  0  0  0  0
   17.1662   18.4633   22.0791 H   0  0  0  0  0  0  0  0  0  0  0  0
   18.4295   17.2694   22.2786 H   0  0  0  0  0  0  0  0  0  0  0  0
   18.8824   18.8594   20.8466 C   0  0  0  0  0  0  0  0  0  0  0  0
   18.3805   18.3307   20.0248 H   0  0  0  0  0  0  0  0  0  0  0  0
   18.6436   19.9220   20.7023 H   0  0  0  0  0  0  0  0  0  0  0  0
   20.4058   18.6286   20.6940 C   0  0  0  0  0  0  0  0  0  0  0  0
   20.6222   18.4174   19.6377 H   0  0  0  0  0  0  0  0  0  0  0  0
   20.7142   17.7331   21.2496 H   0  0  0  0  0  0  0  0  0  0  0  0
   21.2536   19.8500   21.1143 C   0  0  0  0  0  0  0  0  0  0  0  0
   21.0049   20.7266   20.5022 H   0  0  0  0  0  0  0  0  0  0  0  0
   22.3225   19.6397   20.9809 H   0  0  0  0  0  0  0  0  0  0  0  0
   21.0946   20.1172   22.1653 H   0  0  0  0  0  0  0  0  0  0  0  0
  1  2  1  0  0  0  0
  1  3  2  0  0  0  0
  1  4  1  0  0  0  0
  4  5  1  0  0  0  0
  4  6  1  0  0  0  0
  4  7  1  0  0  0  0
  7  8  1  0  0  0  0
  7  9  1  0  0  0  0
  7 10  1  0  0  0  0
 10 11  1  0  0  0  0
 10 12  1  0  0  0  0
 10 13  1  0  0  0  0
 13 14  1  0  0  0  0
 13 15  1  0  0  0  0
 13 16  1  0  0  0  0
 16 17  1  0  0  0  0
 16 18  1  0  0  0  0
 16 19  1  0  0  0  0
 19 20  1  0  0  0  0
 19 21  1  0  0  0  0
 19 22  1  0  0  0  0
M  END
> <VM2 Rank>
78

> <Conf_Id>
121

> <Probability>
0.00

> <Sum Probability>
100.00

> <Delta G>
7.511

> <G>
-9.487

> <E>
-29.954

> <-TS>
20.467

> <U+W>
-47.839

> <U>
13.811

> <W>
-61.650

> <W(PB)>
-63.848

> <W(SA)>
2.198

> <Valence>
12.676

> <Coulomb>
0.619

> <VdW>
0.516

> <VdW6>
-9.538

> <VdW12>
10.054

> <Bond>
0.234

> <Angle>
3.707

> <Pdih>
8.734

> <Idih>
0.001

> <Tether>
0.000

$$$$
VeraChem MOL file


 22 21  0  0  0  0  0  0  0  0999 V2000     
   19.9320   19.5143   25.4406 C   0  0  0  0  0  0  0  0  0  0  0  0
   20.7286   20.4242   25.3228 O   0  5  0  0  0  0  0  0  0  0  0  0
   19.6919   18.9626   26.4964 O   0  0  0  0  0  0  0  0  0  0  0  0
   19.2081   19.0235   24.1920 C   0  0  0  0  0  0  0  0  0  0  0  0
   19.0581   19.8827   23.5313 H   0  0  0  0  0  0  0  0  0  0  0  0
   18.2126   18.6754   24.4922 H   0  0  0  0  0  0  0  0  0  0  0  0
   19.9712   17.8855   23.4641 C   0  0  0  0  0  0  0  0  0  0  0  0
   20.9987   18.1977   23.2341 H   0  0  0  0  0  0  0  0  0  0  0  0
   20.0609   17.0418   24.1623 H   0  0  0  0  0  0  0  0  0  0  0  0
   19.2599   17.3911   22.1802 C   0  0  0  0  0  0  0  0  0  0  0  0
   18.1725   17.5143   22.2762 H   0  0  0  0  0  0  0  0  0  0  0  0
   19.4279   16.3084   22.1006 H   0  0  0  0  0  0  0  0  0  0  0  0
   19.7530   18.0300   20.8549 C   0  0  0  0  0  0  0  0  0  0  0  0
   20.8272   17.8416   20.7231 H   0  0  0  0  0  0  0  0  0  0  0  0
   19.2574   17.4953   20.0331 H   0  0  0  0  0  0  0  0  0  0  0  0
   19.4503   19.5389   20.6849 C   0  0  0  0  0  0  0  0  0  0  0  0
   18.5355   19.8089   21.2290 H   0  0  0  0  0  0  0  0  0  0  0  0
   19.2393   19.7348   19.6245 H   0  0  0  0  0  0  0  0  0  0  0  0
   20.6251   20.4489   21.1082 C   0  0  0  0  0  0  0  0  0  0  0  0
   20.8892   20.3129   22.1633 H   0  0  0  0  0  0  0  0  0  0  0  0
   20.3647   21.5050   20.9622 H   0  0  0  0  0  0  0  0  0  0  0  0
   21.5187   20.2370   20.5070 H   0  0  0  0  0  0  0  0  0  0  0  0
  1  2  1  0  0  0  0
  1  3  2  0  0  0  0
  1  4  1  0  0  0  0
  4  5  1  0  0  0  0
  4  6  1  0  0  0  0
  4  7  1  0  0  0  0
  7  8  1  0  0  0  0
  7  9  1  0  0  0  0
  7 10  1  0  0  0  0
 10 11  1  0  0  0  0
 10 12  1  0  0  0  0
 10 13  1  0  0  0  0
 13 14  1  0  0  0  0
 13 15  1  0  0  0  0
 13 16  1  0  0  0  0
 16 17  1  0  0  0  0
 16 18  1  0  0  0  0
 16 19  1  0  0  0  0
 19 20  1  0  0  0  0
 19 21  1  0  0  0  0
 19 22  1  0  0  0  0
M  END
> <VM2 Rank>
79

> <Conf_Id>
126

> <Probability>
0.00

> <Sum Probability>
100.00

> <Delta G>
7.562

> <G>
-9.436

> <E>
-29.904

> <-TS>
20.468

> <U+W>
-47.789

> <U>
13.811

> <W>
-61.600

> <W(PB)>
-63.797

> <W(SA)>
2.197

> <Valence>
12.676

> <Coulomb>
0.620

> <VdW>
0.516

> <VdW6>
-9.538

> <VdW12>
10.053

> <Bond>
0.234

> <Angle>
3.707

> <Pdih>
8.735

> <Idih>
0.001

> <Tether>
0.000

$$$$
VeraChem MOL file


 22 21  0  0  0  0  0  0  0  0999 V2000     
   20.3261   18.8446   24.8916 C   0  0  0  0  0  0  0  0  0  0  0  0
   20.8095   19.9144   25.2083 O   0  5  0  0  0  0  0  0  0  0  0  0
   20.9724   17.8186   24.8121 O   0  0  0  0  0  0  0  0  0  0  0  0
   18.8106   18.7497   24.7075 C   0  0  0  0  0  0  0  0  0  0  0  0
   18.3823   18.7614   25.7163 H   0  0  0  0  0  0  0  0  0  0  0  0
   18.5639   17.7728   24.2750 H   0  0  0  0  0  0  0  0  0  0  0  0
   18.1579   19.8877   23.8719 C   0  0  0  0  0  0  0  0  0  0  0  0
   17.1017   19.9579   24.1650 H   0  0  0  0  0  0  0  0  0  0  0  0
   18.6056   20.8546   24.1403 H   0  0  0  0  0  0  0  0  0  0  0  0
   18.2028   19.6937   22.3345 C   0  0  0  0  0  0  0  0  0  0  0  0
   17.6315   20.5158   21.8820 H   0  0  0  0  0  0  0  0  0  0  0  0
   17.6690   18.7748   22.0562 H   0  0  0  0  0  0  0  0  0  0  0  0
   19.6226   19.7009   21.7159 C   0  0  0  0  0  0  0  0  0  0  0  0
   19.5965   20.2801   20.7828 H   0  0  0  0  0  0  0  0  0  0  0  0
   20.3241   20.2251   22.3794 H   0  0  0  0  0  0  0  0  0  0  0  0
   20.1446   18.2837   21.3897 C   0  0  0  0  0  0  0  0  0  0  0  0
   19.4736   17.8014   20.6658 H   0  0  0  0  0  0  0  0  0  0  0  0
   20.1363   17.6587   22.2913 H   0  0  0  0  0  0  0  0  0  0  0  0
   21.5735   18.3256   20.8124 C   0  0  0  0  0  0  0  0  0  0  0  0
   22.2724   18.7672   21.5352 H   0  0  0  0  0  0  0  0  0  0  0  0
   21.6090   18.9209   19.8908 H   0  0  0  0  0  0  0  0  0  0  0  0
   21.9253   17.3128   20.5774 H   0  0  0  0  0  0  0  0  0  0  0  0
  1  2  1  0  0  0  0
  1  3  2  0  0  0  0
  1  4  1  0  0  0  0
  4  5  1  0  0  0  0
  4  6  1  0  0  0  0
  4  7  1  0  0  0  0
  7  8  1  0  0  0  0
  7  9  1  0  0  0  0
  7 10  1  0  0  0  0
 10 11  1  0  0  0  0
 10 12  1  0  0  0  0
 10 13  1  0  0  0  0
 13 14  1  0  0  0  0
 13 15  1  0  0  0  0
 13 16  1  0  0  0  0
 16 17  1  0  0  0  0
 16 18  1  0  0  0  0
 16 19  1  0  0  0  0
 19 20  1  0  0  0  0
 19 21  1  0  0  0  0
 19 22  1  0  0  0  0
M  END
> <VM2 Rank>
80

> <Conf_Id>
649

> <Probability>
0.00

> <Sum Probability>
100.00

> <Delta G>
8.528

> <G>
-8.471

> <E>
-29.145

> <-TS>
20.675

> <U+W>
-47.030

> <U>
15.739

> <W>
-62.769

> <W(PB)>
-64.934

> <W(SA)>
2.164

> <Valence>
12.167

> <Coulomb>
3.363

> <VdW>
0.209

> <VdW6>
-10.463

> <VdW12>
10.673

> <Bond>
0.233

> <Angle>
3.823

> <Pdih>
8.088

> <Idih>
0.023

> <Tether>
0.000

$$$$
VeraChem MOL file


 22 21  0  0  0  0  0  0  0  0999 V2000     
   20.3430   19.3252   24.8678 C   0  0  0  0  0  0  0  0  0  0  0  0
   20.7512   18.2606   25.2901 O   0  5  0  0  0  0  0  0  0  0  0  0
   21.0595   20.2905   24.6901 O   0  0  0  0  0  0  0  0  0  0  0  0
   18.8373   19.5077   24.6700 C   0  0  0  0  0  0  0  0  0  0  0  0
   18.6583   20.4523   24.1426 H   0  0  0  0  0  0  0  0  0  0  0  0
   18.4128   19.6255   25.6736 H   0  0  0  0  0  0  0  0  0  0  0  0
   18.1034   18.3417   23.9483 C   0  0  0  0  0  0  0  0  0  0  0  0
   18.4830   17.3768   24.3120 H   0  0  0  0  0  0  0  0  0  0  0  0
   17.0459   18.3750   24.2432 H   0  0  0  0  0  0  0  0  0  0  0  0
   18.1565   18.3798   22.3994 C   0  0  0  0  0  0  0  0  0  0  0  0
   17.6876   19.3021   22.0302 H   0  0  0  0  0  0  0  0  0  0  0  0
   17.5273   17.5594   22.0280 H   0  0  0  0  0  0  0  0  0  0  0  0
   19.5702   18.2121   21.7894 C   0  0  0  0  0  0  0  0  0  0  0  0
   20.2354   17.7077   22.5037 H   0  0  0  0  0  0  0  0  0  0  0  0
   19.5001   17.5472   20.9177 H   0  0  0  0  0  0  0  0  0  0  0  0
   20.1892   19.5501   21.3272 C   0  0  0  0  0  0  0  0  0  0  0  0
   20.2280   20.2598   22.1629 H   0  0  0  0  0  0  0  0  0  0  0  0
   19.5512   20.0048   20.5570 H   0  0  0  0  0  0  0  0  0  0  0  0
   21.6096   19.3514   20.7618 C   0  0  0  0  0  0  0  0  0  0  0  0
   22.2783   18.9351   21.5269 H   0  0  0  0  0  0  0  0  0  0  0  0
   22.0308   20.3089   20.4294 H   0  0  0  0  0  0  0  0  0  0  0  0
   21.6001   18.6672   19.9033 H   0  0  0  0  0  0  0  0  0  0  0  0
  1  2  1  0  0  0  0
  1  3  2  0  0  0  0
  1  4  1  0  0  0  0
  4  5  1  0  0  0  0
  4  6  1  0  0  0  0
  4  7  1  0  0  0  0
  7  8  1  0  0  0  0
  7  9  1  0  0  0  0
  7 10  1  0  0  0  0
 10 11  1  0  0  0  0
 10 12  1  0  0  0  0
 10 13  1  0  0  0  0
 13 14  1  0  0  0  0
 13 15  1  0  0  0  0
 13 16  1  0  0  0  0
 16 17  1  0  0  0  0
 16 18  1  0  0  0  0
 16 19  1  0  0  0  0
 19 20  1  0  0  0  0
 19 21  1  0  0  0  0
 19 22  1  0  0  0  0
M  END
> <VM2 Rank>
81

> <Conf_Id>
445

> <Probability>
0.00

> <Sum Probability>
100.00

> <Delta G>
8.582

> <G>
-8.416

> <E>
-29.091

> <-TS>
20.675

> <U+W>
-46.975

> <U>
15.738

> <W>
-62.713

> <W(PB)>
-64.888

> <W(SA)>
2.174

> <Valence>
12.167

> <Coulomb>
3.362

> <VdW>
0.210

> <VdW6>
-10.463

> <VdW12>
10.673

> <Bond>
0.233

> <Angle>
3.823

> <Pdih>
8.088

> <Idih>
0.022

> <Tether>
0.000

$$$$
VeraChem MOL file


 22 21  0  0  0  0  0  0  0  0999 V2000     
   20.1252   18.6890   24.9493 C   0  0  0  0  0  0  0  0  0  0  0  0
   19.4579   17.6887   25.1277 O   0  5  0  0  0  0  0  0  0  0  0  0
   21.3370   18.7117   25.0412 O   0  0  0  0  0  0  0  0  0  0  0  0
   19.3976   20.0172   24.7555 C   0  0  0  0  0  0  0  0  0  0  0  0
   19.7920   20.6977   25.5193 H   0  0  0  0  0  0  0  0  0  0  0  0
   18.3341   19.8771   24.9835 H   0  0  0  0  0  0  0  0  0  0  0  0
   19.5709   20.6775   23.3582 C   0  0  0  0  0  0  0  0  0  0  0  0
   19.3865   21.7535   23.4784 H   0  0  0  0  0  0  0  0  0  0  0  0
   20.6102   20.5976   23.0193 H   0  0  0  0  0  0  0  0  0  0  0  0
   18.5891   20.1645   22.2744 C   0  0  0  0  0  0  0  0  0  0  0  0
   18.6294   20.8447   21.4129 H   0  0  0  0  0  0  0  0  0  0  0  0
   17.5667   20.2492   22.6671 H   0  0  0  0  0  0  0  0  0  0  0  0
   18.8015   18.7142   21.7677 C   0  0  0  0  0  0  0  0  0  0  0  0
   18.8112   18.0013   22.6011 H   0  0  0  0  0  0  0  0  0  0  0  0
   17.9150   18.4517   21.1746 H   0  0  0  0  0  0  0  0  0  0  0  0
   20.0397   18.5131   20.8573 C   0  0  0  0  0  0  0  0  0  0  0  0
   20.2549   19.4314   20.2940 H   0  0  0  0  0  0  0  0  0  0  0  0
   19.7949   17.7474   20.1083 H   0  0  0  0  0  0  0  0  0  0  0  0
   21.3012   18.0430   21.6126 C   0  0  0  0  0  0  0  0  0  0  0  0
   21.6691   18.8052   22.3073 H   0  0  0  0  0  0  0  0  0  0  0  0
   22.1112   17.8205   20.9063 H   0  0  0  0  0  0  0  0  0  0  0  0
   21.0967   17.1315   22.1896 H   0  0  0  0  0  0  0  0  0  0  0  0
  1  2  1  0  0  0  0
  1  3  2  0  0  0  0
  1  4  1  0  0  0  0
  4  5  1  0  0  0  0
  4  6  1  0  0  0  0
  4  7  1  0  0  0  0
  7  8  1  0  0  0  0
  7  9  1  0  0  0  0
  7 10  1  0  0  0  0
 10 11  1  0  0  0  0
 10 12  1  0  0  0  0
 10 13  1  0  0  0  0
 13 14  1  0  0  0  0
 13 15  1  0  0  0  0
 13 16  1  0  0  0  0
 16 17  1  0  0  0  0
 16 18  1  0  0  0  0
 16 19  1  0  0  0  0
 19 20  1  0  0  0  0
 19 21  1  0  0  0  0
 19 22  1  0  0  0  0
M  END
> <VM2 Rank>
82

> <Conf_Id>
173

> <Probability>
0.00

> <Sum Probability>
100.00

> <Delta G>
9.712

> <G>
-7.286

> <E>
-27.898

> <-TS>
20.612

> <U+W>
-45.783

> <U>
16.807

> <W>
-62.590

> <W(PB)>
-64.716

> <W(SA)>
2.126

> <Valence>
13.059

> <Coulomb>
3.862

> <VdW>
-0.114

> <VdW6>
-11.029

> <VdW12>
10.916

> <Bond>
0.270

> <Angle>
4.725

> <Pdih>
8.030

> <Idih>
0.034

> <Tether>
0.000

$$$$
