@<TRIPOS>MOLECULE
guest-3_vm2.mol2 : vm2 ligand conformer 1
          29          28           1
SMALL
USER_CHARGES
 
@<TRIPOS>ATOM
       1    C1      19.995042   18.991275   18.812238 C.3        1 MOL1        -0.2427
       2    H1      20.899575   19.613389   18.804989 H          1 MOL1         0.0958
       3    H2      20.303578   17.938622   18.767730 H          1 MOL1         0.0958
       4    H3      19.425176   19.214346   17.900896 H          1 MOL1         0.0958
       5    C2      19.142648   19.266655   20.068991 C.3        1 MOL1        -0.1412
       6    H4      18.229769   18.655805   20.031405 H          1 MOL1         0.0947
       7    H5      18.821242   20.317654   20.068431 H          1 MOL1         0.0947
       8    C3      19.922023   18.960342   21.366948 C.3        1 MOL1        -0.1437
       9    H6      20.243159   17.909506   21.361948 H          1 MOL1         0.0947
      10    H7      20.834642   19.571494   21.399017 H          1 MOL1         0.0947
      11    C4      19.071663   19.234846   22.627726 C.3        1 MOL1        -0.1437
      12    H8      18.159124   18.623589   22.594768 H          1 MOL1         0.0947
      13    H9      18.750672   20.285748   22.631865 H          1 MOL1         0.0947
      14    C5      19.851748   18.928246   23.925981 C.3        1 MOL1        -0.1437
      15    H10     20.172889   17.877365   23.921357 H          1 MOL1         0.0947
      16    H11     20.764303   19.539546   23.958531 H          1 MOL1         0.0947
      17    C6      19.001209   19.202674   25.186699 C.3        1 MOL1        -0.1437
      18    H12     18.088504   18.591356   25.154662 H          1 MOL1         0.0947
      19    H13     18.679870   20.253617   25.191795 H          1 MOL1         0.0947
      20    C7      19.780250   18.896522   26.484667 C.3        1 MOL1        -0.1477
      21    H14     20.098661   17.845461   26.485833 H          1 MOL1         0.0947
      22    H15     20.690728   19.509449   26.522964 H          1 MOL1         0.0947
      23    C8      18.924469   19.173160   27.733173 C.3        1 MOL1         0.0145
      24    H16     18.024521   18.552754   27.707667 H          1 MOL1         0.0921
      25    H17     18.618838   20.222881   27.744978 H          1 MOL1         0.0921
      26    N1      19.654946   18.884279   29.028577 N.4        1 MOL1        -0.5969
      27    H18     20.499599   19.457411   29.126760 H          1 MOL1         0.3603
      28    H19     19.946564   17.903212   29.092023 H          1 MOL1         0.3603
      29    H20     19.067458   19.075013   29.847870 H          1 MOL1         0.3603
@<TRIPOS>BOND
    1     1     2    1
    2     1     3    1
    3     1     4    1
    4     1     5    1
    5     5     6    1
    6     5     7    1
    7     5     8    1
    8     8     9    1
    9     8    10    1
   10     8    11    1
   11    11    12    1
   12    11    13    1
   13    11    14    1
   14    14    15    1
   15    14    16    1
   16    14    17    1
   17    17    18    1
   18    17    19    1
   19    17    20    1
   20    20    21    1
   21    20    22    1
   22    20    23    1
   23    23    24    1
   24    23    25    1
   25    23    26    1
   26    26    27    1
   27    26    28    1
   28    26    29    1
@<TRIPOS>SUBSTRUCTURE
       1 MOL1            1 RESIDUE      1      MOL     
@<SCITEGIC>MOL_PROPERTY
VM2 Rank
SciTegic.value.IntegerValue
1

@<SCITEGIC>MOL_PROPERTY
Conf_Id
SciTegic.value.IntegerValue
1101

@<SCITEGIC>MOL_PROPERTY
Probability
SciTegic.value.DoubleValue
5.28

@<SCITEGIC>MOL_PROPERTY
Sum Probability
SciTegic.value.DoubleValue
5.28

@<SCITEGIC>MOL_PROPERTY
Delta G
SciTegic.value.DoubleValue
0.000

@<SCITEGIC>MOL_PROPERTY
G
SciTegic.value.DoubleValue
58.146

@<SCITEGIC>MOL_PROPERTY
E
SciTegic.value.DoubleValue
20.962

@<SCITEGIC>MOL_PROPERTY
-TS
SciTegic.value.DoubleValue
37.184

@<SCITEGIC>MOL_PROPERTY
U+W
SciTegic.value.DoubleValue
-3.183

@<SCITEGIC>MOL_PROPERTY
U
SciTegic.value.DoubleValue
47.674

@<SCITEGIC>MOL_PROPERTY
W
SciTegic.value.DoubleValue
-50.852

@<SCITEGIC>MOL_PROPERTY
W(PB)
SciTegic.value.DoubleValue
-53.433

@<SCITEGIC>MOL_PROPERTY
W(SA)
SciTegic.value.DoubleValue
2.581

@<SCITEGIC>MOL_PROPERTY
Valence
SciTegic.value.DoubleValue
2.587

@<SCITEGIC>MOL_PROPERTY
Coulomb
SciTegic.value.DoubleValue
44.357

@<SCITEGIC>MOL_PROPERTY
VdW
SciTegic.value.DoubleValue
0.730

@<SCITEGIC>MOL_PROPERTY
VdW6
SciTegic.value.DoubleValue
-6.901

@<SCITEGIC>MOL_PROPERTY
VdW12
SciTegic.value.DoubleValue
7.631

@<SCITEGIC>MOL_PROPERTY
Bond
SciTegic.value.DoubleValue
0.145

@<SCITEGIC>MOL_PROPERTY
Angle
SciTegic.value.DoubleValue
0.401

@<SCITEGIC>MOL_PROPERTY
Pdih
SciTegic.value.DoubleValue
2.040

@<SCITEGIC>MOL_PROPERTY
Idih
SciTegic.value.DoubleValue
0.000

@<SCITEGIC>MOL_PROPERTY
Tether
SciTegic.value.DoubleValue
0.000

@<TRIPOS>MOLECULE
guest-3_vm2.mol2 : vm2 ligand conformer 2
          29          28           1
SMALL
USER_CHARGES
 
@<TRIPOS>ATOM
       1    C1      19.861466   19.163624   18.895400 C.3        1 MOL1        -0.2427
       2    H1      19.703180   18.090395   18.726926 H          1 MOL1         0.0958
       3    H2      19.417539   19.706501   18.050850 H          1 MOL1         0.0958
       4    H3      20.942455   19.355124   18.888493 H          1 MOL1         0.0958
       5    C2      19.226756   19.615362   20.227660 C.3        1 MOL1        -0.1412
       6    H4      18.141954   19.442698   20.191740 H          1 MOL1         0.0947
       7    H5      19.371701   20.697676   20.352086 H          1 MOL1         0.0947
       8    C3      19.834458   18.865764   21.433785 C.3        1 MOL1        -0.1437
       9    H6      19.689280   17.784353   21.303856 H          1 MOL1         0.0947
      10    H7      20.919029   19.039491   21.464340 H          1 MOL1         0.0947
      11    C4      19.201256   19.315325   22.769807 C.3        1 MOL1        -0.1437
      12    H8      18.116709   19.141506   22.738405 H          1 MOL1         0.0947
      13    H9      19.346566   20.396837   22.898803 H          1 MOL1         0.0947
      14    C5      19.809536   18.565073   23.976110 C.3        1 MOL1        -0.1437
      15    H10     19.664906   17.483593   23.845889 H          1 MOL1         0.0947
      16    H11     20.894022   18.739422   24.007613 H          1 MOL1         0.0947
      17    C6      19.175757   19.013948   25.312097 C.3        1 MOL1        -0.1437
      18    H12     18.091645   18.836665   25.281693 H          1 MOL1         0.0947
      19    H13     19.318809   20.095867   25.434652 H          1 MOL1         0.0947
      20    C7      19.786736   18.262508   26.518361 C.3        1 MOL1        -0.1477
      21    H14     19.672071   17.180625   26.368843 H          1 MOL1         0.0947
      22    H15     20.865755   18.458276   26.576608 H          1 MOL1         0.0947
      23    C8      19.121999   18.643001   27.855274 C.3        1 MOL1         0.0145
      24    H16     19.534969   18.022638   28.655371 H          1 MOL1         0.0921
      25    H17     18.046440   18.455035   27.798333 H          1 MOL1         0.0921
      26    N1      19.326036   20.093395   28.246506 N.4        1 MOL1        -0.5969
      27    H18     20.320302   20.326329   28.338666 H          1 MOL1         0.3603
      28    H19     18.882255   20.311301   29.145504 H          1 MOL1         0.3603
      29    H20     18.927685   20.733085   27.551976 H          1 MOL1         0.3603
@<TRIPOS>BOND
    1     1     2    1
    2     1     3    1
    3     1     4    1
    4     1     5    1
    5     5     6    1
    6     5     7    1
    7     5     8    1
    8     8     9    1
    9     8    10    1
   10     8    11    1
   11    11    12    1
   12    11    13    1
   13    11    14    1
   14    14    15    1
   15    14    16    1
   16    14    17    1
   17    17    18    1
   18    17    19    1
   19    17    20    1
   20    20    21    1
   21    20    22    1
   22    20    23    1
   23    23    24    1
   24    23    25    1
   25    23    26    1
   26    26    27    1
   27    26    28    1
   28    26    29    1
@<TRIPOS>SUBSTRUCTURE
       1 MOL1            1 RESIDUE      1      MOL     
@<SCITEGIC>MOL_PROPERTY
VM2 Rank
SciTegic.value.IntegerValue
2

@<SCITEGIC>MOL_PROPERTY
Conf_Id
SciTegic.value.IntegerValue
1250

@<SCITEGIC>MOL_PROPERTY
Probability
SciTegic.value.DoubleValue
3.53

@<SCITEGIC>MOL_PROPERTY
Sum Probability
SciTegic.value.DoubleValue
8.81

@<SCITEGIC>MOL_PROPERTY
Delta G
SciTegic.value.DoubleValue
0.240

@<SCITEGIC>MOL_PROPERTY
G
SciTegic.value.DoubleValue
58.386

@<SCITEGIC>MOL_PROPERTY
E
SciTegic.value.DoubleValue
21.098

@<SCITEGIC>MOL_PROPERTY
-TS
SciTegic.value.DoubleValue
37.288

@<SCITEGIC>MOL_PROPERTY
U+W
SciTegic.value.DoubleValue
-3.047

@<SCITEGIC>MOL_PROPERTY
U
SciTegic.value.DoubleValue
48.292

@<SCITEGIC>MOL_PROPERTY
W
SciTegic.value.DoubleValue
-51.339

@<SCITEGIC>MOL_PROPERTY
W(PB)
SciTegic.value.DoubleValue
-53.880

@<SCITEGIC>MOL_PROPERTY
W(SA)
SciTegic.value.DoubleValue
2.541

@<SCITEGIC>MOL_PROPERTY
Valence
SciTegic.value.DoubleValue
2.685

@<SCITEGIC>MOL_PROPERTY
Coulomb
SciTegic.value.DoubleValue
44.768

@<SCITEGIC>MOL_PROPERTY
VdW
SciTegic.value.DoubleValue
0.839

@<SCITEGIC>MOL_PROPERTY
VdW6
SciTegic.value.DoubleValue
-7.428

@<SCITEGIC>MOL_PROPERTY
VdW12
SciTegic.value.DoubleValue
8.267

@<SCITEGIC>MOL_PROPERTY
Bond
SciTegic.value.DoubleValue
0.165

@<SCITEGIC>MOL_PROPERTY
Angle
SciTegic.value.DoubleValue
0.440

@<SCITEGIC>MOL_PROPERTY
Pdih
SciTegic.value.DoubleValue
2.080

@<SCITEGIC>MOL_PROPERTY
Idih
SciTegic.value.DoubleValue
0.000

@<SCITEGIC>MOL_PROPERTY
Tether
SciTegic.value.DoubleValue
0.000

@<TRIPOS>MOLECULE
guest-3_vm2.mol2 : vm2 ligand conformer 3
          29          28           1
SMALL
USER_CHARGES
 
@<TRIPOS>ATOM
       1    C1      19.781525   18.938866   18.890420 C.3        1 MOL1        -0.2427
       2    H1      20.498978   18.108422   18.860791 H          1 MOL1         0.0958
       3    H2      19.106478   18.831963   18.031389 H          1 MOL1         0.0958
       4    H3      20.338644   19.876721   18.766719 H          1 MOL1         0.0958
       5    C2      18.985424   18.937030   20.212561 C.3        1 MOL1        -0.1412
       6    H4      18.412773   18.002338   20.292045 H          1 MOL1         0.0947
       7    H5      18.253789   19.757041   20.198741 H          1 MOL1         0.0947
       8    C3      19.912893   19.086261   21.438722 C.3        1 MOL1        -0.1437
       9    H6      20.643709   18.265746   21.447161 H          1 MOL1         0.0947
      10    H7      20.484917   20.020588   21.353690 H          1 MOL1         0.0947
      11    C4      19.119273   19.085079   22.764682 C.3        1 MOL1        -0.1437
      12    H8      18.547206   18.150679   22.848713 H          1 MOL1         0.0947
      13    H9      18.388621   19.905753   22.755447 H          1 MOL1         0.0947
      14    C5      20.047609   19.234255   23.991053 C.3        1 MOL1        -0.1437
      15    H10     20.777921   18.413244   24.000319 H          1 MOL1         0.0947
      16    H11     20.620145   20.168286   23.905835 H          1 MOL1         0.0947
      17    C6      19.253977   19.233831   25.317012 C.3        1 MOL1        -0.1437
      18    H12     18.680014   18.300777   25.394527 H          1 MOL1         0.0947
      19    H13     18.525821   20.056859   25.308986 H          1 MOL1         0.0947
      20    C7      20.185154   19.382111   26.543370 C.3        1 MOL1        -0.1477
      21    H14     20.897316   18.546892   26.578509 H          1 MOL1         0.0947
      22    H15     20.781465   20.298299   26.438541 H          1 MOL1         0.0947
      23    C8      19.410695   19.454057   27.873418 C.3        1 MOL1         0.0145
      24    H16     18.696362   20.281077   27.839287 H          1 MOL1         0.0921
      25    H17     20.111335   19.641826   28.691584 H          1 MOL1         0.0921
      26    N1      18.647452   18.186511   28.203762 N.4        1 MOL1        -0.5969
      27    H18     17.944351   17.970432   27.490167 H          1 MOL1         0.3603
      28    H19     18.153259   18.262191   29.099679 H          1 MOL1         0.3603
      29    H20     19.269843   17.374569   28.272296 H          1 MOL1         0.3603
@<TRIPOS>BOND
    1     1     2    1
    2     1     3    1
    3     1     4    1
    4     1     5    1
    5     5     6    1
    6     5     7    1
    7     5     8    1
    8     8     9    1
    9     8    10    1
   10     8    11    1
   11    11    12    1
   12    11    13    1
   13    11    14    1
   14    14    15    1
   15    14    16    1
   16    14    17    1
   17    17    18    1
   18    17    19    1
   19    17    20    1
   20    20    21    1
   21    20    22    1
   22    20    23    1
   23    23    24    1
   24    23    25    1
   25    23    26    1
   26    26    27    1
   27    26    28    1
   28    26    29    1
@<TRIPOS>SUBSTRUCTURE
       1 MOL1            1 RESIDUE      1      MOL     
@<SCITEGIC>MOL_PROPERTY
VM2 Rank
SciTegic.value.IntegerValue
3

@<SCITEGIC>MOL_PROPERTY
Conf_Id
SciTegic.value.IntegerValue
2851

@<SCITEGIC>MOL_PROPERTY
Probability
SciTegic.value.DoubleValue
3.35

@<SCITEGIC>MOL_PROPERTY
Sum Probability
SciTegic.value.DoubleValue
12.16

@<SCITEGIC>MOL_PROPERTY
Delta G
SciTegic.value.DoubleValue
0.271

@<SCITEGIC>MOL_PROPERTY
G
SciTegic.value.DoubleValue
58.417

@<SCITEGIC>MOL_PROPERTY
E
SciTegic.value.DoubleValue
21.129

@<SCITEGIC>MOL_PROPERTY
-TS
SciTegic.value.DoubleValue
37.288

@<SCITEGIC>MOL_PROPERTY
U+W
SciTegic.value.DoubleValue
-3.016

@<SCITEGIC>MOL_PROPERTY
U
SciTegic.value.DoubleValue
48.292

@<SCITEGIC>MOL_PROPERTY
W
SciTegic.value.DoubleValue
-51.308

@<SCITEGIC>MOL_PROPERTY
W(PB)
SciTegic.value.DoubleValue
-53.860

@<SCITEGIC>MOL_PROPERTY
W(SA)
SciTegic.value.DoubleValue
2.552

@<SCITEGIC>MOL_PROPERTY
Valence
SciTegic.value.DoubleValue
2.685

@<SCITEGIC>MOL_PROPERTY
Coulomb
SciTegic.value.DoubleValue
44.768

@<SCITEGIC>MOL_PROPERTY
VdW
SciTegic.value.DoubleValue
0.840

@<SCITEGIC>MOL_PROPERTY
VdW6
SciTegic.value.DoubleValue
-7.428

@<SCITEGIC>MOL_PROPERTY
VdW12
SciTegic.value.DoubleValue
8.268

@<SCITEGIC>MOL_PROPERTY
Bond
SciTegic.value.DoubleValue
0.165

@<SCITEGIC>MOL_PROPERTY
Angle
SciTegic.value.DoubleValue
0.440

@<SCITEGIC>MOL_PROPERTY
Pdih
SciTegic.value.DoubleValue
2.080

@<SCITEGIC>MOL_PROPERTY
Idih
SciTegic.value.DoubleValue
0.000

@<SCITEGIC>MOL_PROPERTY
Tether
SciTegic.value.DoubleValue
0.000

@<TRIPOS>MOLECULE
guest-3_vm2.mol2 : vm2 ligand conformer 4
          29          28           1
SMALL
USER_CHARGES
 
@<TRIPOS>ATOM
       1    C1      20.202553   18.471504   19.113906 C.3        1 MOL1        -0.2427
       2    H1      20.337787   17.393133   19.269085 H          1 MOL1         0.0958
       3    H2      19.762817   18.616312   18.118558 H          1 MOL1         0.0958
       4    H3      21.193338   18.944359   19.116786 H          1 MOL1         0.0958
       5    C2      19.294916   19.079146   20.204225 C.3        1 MOL1        -0.1412
       6    H4      18.301920   18.610735   20.154731 H          1 MOL1         0.0947
       7    H5      19.150788   20.150050   20.003500 H          1 MOL1         0.0947
       8    C3      19.891455   18.888905   21.616268 C.3        1 MOL1        -0.1437
       9    H6      20.035944   17.817246   21.811386 H          1 MOL1         0.0947
      10    H7      20.884702   19.356804   21.660324 H          1 MOL1         0.0947
      11    C4      18.985212   19.496049   22.710882 C.3        1 MOL1        -0.1437
      12    H8      17.992188   19.027677   22.666321 H          1 MOL1         0.0947
      13    H9      18.840759   20.567460   22.514297 H          1 MOL1         0.0947
      14    C5      19.582428   19.305781   24.123372 C.3        1 MOL1        -0.1437
      15    H10     19.729969   18.233800   24.310855 H          1 MOL1         0.0947
      16    H11     20.574162   19.776823   24.167959 H          1 MOL1         0.0947
      17    C6      18.672376   19.913345   25.217584 C.3        1 MOL1        -0.1437
      18    H12     17.689891   19.421452   25.198130 H          1 MOL1         0.0947
      19    H13     18.493583   20.973588   24.991037 H          1 MOL1         0.0947
      20    C7      19.275330   19.804675   26.637759 C.3        1 MOL1        -0.1477
      21    H14     20.246249   20.317012   26.666685 H          1 MOL1         0.0947
      22    H15     18.620349   20.331778   27.344236 H          1 MOL1         0.0947
      23    C8      19.445453   18.346004   27.101776 C.3        1 MOL1         0.0145
      24    H16     20.131236   17.821604   26.431426 H          1 MOL1         0.0921
      25    H17     18.478749   17.836005   27.074293 H          1 MOL1         0.0921
      26    N1      19.994277   18.232590   28.509229 N.4        1 MOL1        -0.5969
      27    H18     20.917035   18.671377   28.595745 H          1 MOL1         0.3603
      28    H19     20.099999   17.254141   28.799311 H          1 MOL1         0.3603
      29    H20     19.380174   18.682979   29.195919 H          1 MOL1         0.3603
@<TRIPOS>BOND
    1     1     2    1
    2     1     3    1
    3     1     4    1
    4     1     5    1
    5     5     6    1
    6     5     7    1
    7     5     8    1
    8     8     9    1
    9     8    10    1
   10     8    11    1
   11    11    12    1
   12    11    13    1
   13    11    14    1
   14    14    15    1
   15    14    16    1
   16    14    17    1
   17    17    18    1
   18    17    19    1
   19    17    20    1
   20    20    21    1
   21    20    22    1
   22    20    23    1
   23    23    24    1
   24    23    25    1
   25    23    26    1
   26    26    27    1
   27    26    28    1
   28    26    29    1
@<TRIPOS>SUBSTRUCTURE
       1 MOL1            1 RESIDUE      1      MOL     
@<SCITEGIC>MOL_PROPERTY
VM2 Rank
SciTegic.value.IntegerValue
4

@<SCITEGIC>MOL_PROPERTY
Conf_Id
SciTegic.value.IntegerValue
228

@<SCITEGIC>MOL_PROPERTY
Probability
SciTegic.value.DoubleValue
2.26

@<SCITEGIC>MOL_PROPERTY
Sum Probability
SciTegic.value.DoubleValue
14.42

@<SCITEGIC>MOL_PROPERTY
Delta G
SciTegic.value.DoubleValue
0.507

@<SCITEGIC>MOL_PROPERTY
G
SciTegic.value.DoubleValue
58.653

@<SCITEGIC>MOL_PROPERTY
E
SciTegic.value.DoubleValue
21.369

@<SCITEGIC>MOL_PROPERTY
-TS
SciTegic.value.DoubleValue
37.284

@<SCITEGIC>MOL_PROPERTY
U+W
SciTegic.value.DoubleValue
-2.775

@<SCITEGIC>MOL_PROPERTY
U
SciTegic.value.DoubleValue
48.481

@<SCITEGIC>MOL_PROPERTY
W
SciTegic.value.DoubleValue
-51.256

@<SCITEGIC>MOL_PROPERTY
W(PB)
SciTegic.value.DoubleValue
-53.824

@<SCITEGIC>MOL_PROPERTY
W(SA)
SciTegic.value.DoubleValue
2.568

@<SCITEGIC>MOL_PROPERTY
Valence
SciTegic.value.DoubleValue
2.887

@<SCITEGIC>MOL_PROPERTY
Coulomb
SciTegic.value.DoubleValue
44.809

@<SCITEGIC>MOL_PROPERTY
VdW
SciTegic.value.DoubleValue
0.785

@<SCITEGIC>MOL_PROPERTY
VdW6
SciTegic.value.DoubleValue
-7.506

@<SCITEGIC>MOL_PROPERTY
VdW12
SciTegic.value.DoubleValue
8.292

@<SCITEGIC>MOL_PROPERTY
Bond
SciTegic.value.DoubleValue
0.167

@<SCITEGIC>MOL_PROPERTY
Angle
SciTegic.value.DoubleValue
0.525

@<SCITEGIC>MOL_PROPERTY
Pdih
SciTegic.value.DoubleValue
2.195

@<SCITEGIC>MOL_PROPERTY
Idih
SciTegic.value.DoubleValue
0.000

@<SCITEGIC>MOL_PROPERTY
Tether
SciTegic.value.DoubleValue
0.000

@<TRIPOS>MOLECULE
guest-3_vm2.mol2 : vm2 ligand conformer 5
          29          28           1
SMALL
USER_CHARGES
 
@<TRIPOS>ATOM
       1    C1      20.480018   19.250760   19.131341 C.3        1 MOL1        -0.2427
       2    H1      20.949458   18.258794   19.101585 H          1 MOL1         0.0958
       3    H2      20.061733   19.455702   18.137314 H          1 MOL1         0.0958
       4    H3      21.263668   19.994262   19.327177 H          1 MOL1         0.0958
       5    C2      19.377243   19.310279   20.209386 C.3        1 MOL1        -0.1412
       6    H4      18.592071   18.579962   19.968470 H          1 MOL1         0.0947
       7    H5      18.903925   20.302036   20.192414 H          1 MOL1         0.0947
       8    C3      19.939895   19.025032   21.619342 C.3        1 MOL1        -0.1437
       9    H6      20.413843   18.033746   21.630887 H          1 MOL1         0.0947
      10    H7      20.725875   19.755952   21.854699 H          1 MOL1         0.0947
      11    C4      18.838450   19.083824   22.701675 C.3        1 MOL1        -0.1437
      12    H8      18.052659   18.353151   22.464858 H          1 MOL1         0.0947
      13    H9      18.364997   20.075363   22.689663 H          1 MOL1         0.0947
      14    C5      19.401639   18.798115   24.112061 C.3        1 MOL1        -0.1437
      15    H10     19.872323   17.805283   24.124038 H          1 MOL1         0.0947
      16    H11     20.190374   19.527585   24.339728 H          1 MOL1         0.0947
      17    C6      18.297008   18.859146   25.194047 C.3        1 MOL1        -0.1437
      18    H12     17.491953   18.160130   24.928210 H          1 MOL1         0.0947
      19    H13     17.846392   19.861326   25.207933 H          1 MOL1         0.0947
      20    C7      18.812963   18.506205   26.608786 C.3        1 MOL1        -0.1477
      21    H14     17.962368   18.483988   27.303009 H          1 MOL1         0.0947
      22    H15     19.241390   17.495050   26.603760 H          1 MOL1         0.0947
      23    C8      19.859798   19.509620   27.127697 C.3        1 MOL1         0.0145
      24    H16     19.433148   20.516249   27.134029 H          1 MOL1         0.0921
      25    H17     20.732045   19.508855   26.469026 H          1 MOL1         0.0921
      26    N1      20.336986   19.195019   28.530663 N.4        1 MOL1        -0.5969
      27    H18     19.566831   19.207167   29.207587 H          1 MOL1         0.3603
      28    H19     21.033000   19.874211   28.857695 H          1 MOL1         0.3603
      29    H20     20.773714   18.268939   28.586749 H          1 MOL1         0.3603
@<TRIPOS>BOND
    1     1     2    1
    2     1     3    1
    3     1     4    1
    4     1     5    1
    5     5     6    1
    6     5     7    1
    7     5     8    1
    8     8     9    1
    9     8    10    1
   10     8    11    1
   11    11    12    1
   12    11    13    1
   13    11    14    1
   14    14    15    1
   15    14    16    1
   16    14    17    1
   17    17    18    1
   18    17    19    1
   19    17    20    1
   20    20    21    1
   21    20    22    1
   22    20    23    1
   23    23    24    1
   24    23    25    1
   25    23    26    1
   26    26    27    1
   27    26    28    1
   28    26    29    1
@<TRIPOS>SUBSTRUCTURE
       1 MOL1            1 RESIDUE      1      MOL     
@<SCITEGIC>MOL_PROPERTY
VM2 Rank
SciTegic.value.IntegerValue
5

@<SCITEGIC>MOL_PROPERTY
Conf_Id
SciTegic.value.IntegerValue
2213

@<SCITEGIC>MOL_PROPERTY
Probability
SciTegic.value.DoubleValue
2.23

@<SCITEGIC>MOL_PROPERTY
Sum Probability
SciTegic.value.DoubleValue
16.65

@<SCITEGIC>MOL_PROPERTY
Delta G
SciTegic.value.DoubleValue
0.515

@<SCITEGIC>MOL_PROPERTY
G
SciTegic.value.DoubleValue
58.661

@<SCITEGIC>MOL_PROPERTY
E
SciTegic.value.DoubleValue
21.378

@<SCITEGIC>MOL_PROPERTY
-TS
SciTegic.value.DoubleValue
37.284

@<SCITEGIC>MOL_PROPERTY
U+W
SciTegic.value.DoubleValue
-2.767

@<SCITEGIC>MOL_PROPERTY
U
SciTegic.value.DoubleValue
48.481

@<SCITEGIC>MOL_PROPERTY
W
SciTegic.value.DoubleValue
-51.248

@<SCITEGIC>MOL_PROPERTY
W(PB)
SciTegic.value.DoubleValue
-53.780

@<SCITEGIC>MOL_PROPERTY
W(SA)
SciTegic.value.DoubleValue
2.532

@<SCITEGIC>MOL_PROPERTY
Valence
SciTegic.value.DoubleValue
2.887

@<SCITEGIC>MOL_PROPERTY
Coulomb
SciTegic.value.DoubleValue
44.809

@<SCITEGIC>MOL_PROPERTY
VdW
SciTegic.value.DoubleValue
0.786

@<SCITEGIC>MOL_PROPERTY
VdW6
SciTegic.value.DoubleValue
-7.506

@<SCITEGIC>MOL_PROPERTY
VdW12
SciTegic.value.DoubleValue
8.292

@<SCITEGIC>MOL_PROPERTY
Bond
SciTegic.value.DoubleValue
0.167

@<SCITEGIC>MOL_PROPERTY
Angle
SciTegic.value.DoubleValue
0.525

@<SCITEGIC>MOL_PROPERTY
Pdih
SciTegic.value.DoubleValue
2.195

@<SCITEGIC>MOL_PROPERTY
Idih
SciTegic.value.DoubleValue
0.000

@<SCITEGIC>MOL_PROPERTY
Tether
SciTegic.value.DoubleValue
0.000

@<TRIPOS>MOLECULE
guest-3_vm2.mol2 : vm2 ligand conformer 6
          29          28           1
SMALL
USER_CHARGES
 
@<TRIPOS>ATOM
       1    C1      18.950507   18.246862   19.532925 C.3        1 MOL1        -0.2427
       2    H1      19.661195   17.410415   19.550490 H          1 MOL1         0.0958
       3    H2      18.107230   17.996025   20.188231 H          1 MOL1         0.0958
       4    H3      18.559460   18.333845   18.510941 H          1 MOL1         0.0958
       5    C2      19.632669   19.564692   19.964763 C.3        1 MOL1        -0.1412
       6    H4      18.894766   20.379072   19.967999 H          1 MOL1         0.0947
       7    H5      20.386707   19.835903   19.212677 H          1 MOL1         0.0947
       8    C3      20.320834   19.476467   21.348255 C.3        1 MOL1        -0.1437
       9    H6      21.071707   18.674461   21.333942 H          1 MOL1         0.0947
      10    H7      20.870423   20.411459   21.524414 H          1 MOL1         0.0947
      11    C4      19.331478   19.244511   22.515309 C.3        1 MOL1        -0.1437
      12    H8      18.825289   18.278415   22.389636 H          1 MOL1         0.0947
      13    H9      18.552313   20.018882   22.494940 H          1 MOL1         0.0947
      14    C5      20.045843   19.266944   23.885487 C.3        1 MOL1        -0.1437
      15    H10     20.827589   18.494908   23.903706 H          1 MOL1         0.0947
      16    H11     20.550250   20.233746   24.020847 H          1 MOL1         0.0947
      17    C6      19.060156   19.031576   25.052203 C.3        1 MOL1        -0.1437
      18    H12     18.555786   18.064436   24.918005 H          1 MOL1         0.0947
      19    H13     18.277911   19.803273   25.033879 H          1 MOL1         0.0947
      20    C7      19.773375   19.054196   26.421923 C.3        1 MOL1        -0.1477
      21    H14     20.552673   18.280746   26.446014 H          1 MOL1         0.0947
      22    H15     20.274359   20.021381   26.562201 H          1 MOL1         0.0947
      23    C8      18.783189   18.818851   27.575956 C.3        1 MOL1         0.0145
      24    H16     18.293883   17.849297   27.449447 H          1 MOL1         0.0921
      25    H17     18.014551   19.596385   27.566052 H          1 MOL1         0.0921
      26    N1      19.445948   18.833901   28.938178 N.4        1 MOL1        -0.5969
      27    H18     19.903029   19.731451   29.130622 H          1 MOL1         0.3603
      28    H19     20.163003   18.105654   29.022107 H          1 MOL1         0.3603
      29    H20     18.769132   18.675305   29.692849 H          1 MOL1         0.3603
@<TRIPOS>BOND
    1     1     2    1
    2     1     3    1
    3     1     4    1
    4     1     5    1
    5     5     6    1
    6     5     7    1
    7     5     8    1
    8     8     9    1
    9     8    10    1
   10     8    11    1
   11    11    12    1
   12    11    13    1
   13    11    14    1
   14    14    15    1
   15    14    16    1
   16    14    17    1
   17    17    18    1
   18    17    19    1
   19    17    20    1
   20    20    21    1
   21    20    22    1
   22    20    23    1
   23    23    24    1
   24    23    25    1
   25    23    26    1
   26    26    27    1
   27    26    28    1
   28    26    29    1
@<TRIPOS>SUBSTRUCTURE
       1 MOL1            1 RESIDUE      1      MOL     
@<SCITEGIC>MOL_PROPERTY
VM2 Rank
SciTegic.value.IntegerValue
6

@<SCITEGIC>MOL_PROPERTY
Conf_Id
SciTegic.value.IntegerValue
1354

@<SCITEGIC>MOL_PROPERTY
Probability
SciTegic.value.DoubleValue
1.78

@<SCITEGIC>MOL_PROPERTY
Sum Probability
SciTegic.value.DoubleValue
18.43

@<SCITEGIC>MOL_PROPERTY
Delta G
SciTegic.value.DoubleValue
0.647

@<SCITEGIC>MOL_PROPERTY
G
SciTegic.value.DoubleValue
58.793

@<SCITEGIC>MOL_PROPERTY
E
SciTegic.value.DoubleValue
21.498

@<SCITEGIC>MOL_PROPERTY
-TS
SciTegic.value.DoubleValue
37.295

@<SCITEGIC>MOL_PROPERTY
U+W
SciTegic.value.DoubleValue
-2.646

@<SCITEGIC>MOL_PROPERTY
U
SciTegic.value.DoubleValue
48.301

@<SCITEGIC>MOL_PROPERTY
W
SciTegic.value.DoubleValue
-50.947

@<SCITEGIC>MOL_PROPERTY
W(PB)
SciTegic.value.DoubleValue
-53.521

@<SCITEGIC>MOL_PROPERTY
W(SA)
SciTegic.value.DoubleValue
2.574

@<SCITEGIC>MOL_PROPERTY
Valence
SciTegic.value.DoubleValue
3.090

@<SCITEGIC>MOL_PROPERTY
Coulomb
SciTegic.value.DoubleValue
44.344

@<SCITEGIC>MOL_PROPERTY
VdW
SciTegic.value.DoubleValue
0.866

@<SCITEGIC>MOL_PROPERTY
VdW6
SciTegic.value.DoubleValue
-7.521

@<SCITEGIC>MOL_PROPERTY
VdW12
SciTegic.value.DoubleValue
8.387

@<SCITEGIC>MOL_PROPERTY
Bond
SciTegic.value.DoubleValue
0.180

@<SCITEGIC>MOL_PROPERTY
Angle
SciTegic.value.DoubleValue
0.641

@<SCITEGIC>MOL_PROPERTY
Pdih
SciTegic.value.DoubleValue
2.270

@<SCITEGIC>MOL_PROPERTY
Idih
SciTegic.value.DoubleValue
0.000

@<SCITEGIC>MOL_PROPERTY
Tether
SciTegic.value.DoubleValue
0.000

@<TRIPOS>MOLECULE
guest-3_vm2.mol2 : vm2 ligand conformer 7
          29          28           1
SMALL
USER_CHARGES
 
@<TRIPOS>ATOM
       1    C1      19.645260   20.198843   19.576417 C.3        1 MOL1        -0.2427
       2    H1      20.724210   20.396959   19.617018 H          1 MOL1         0.0958
       3    H2      19.301560   20.418880   18.557404 H          1 MOL1         0.0958
       4    H3      19.140777   20.899749   20.252945 H          1 MOL1         0.0958
       5    C2      19.335685   18.730529   19.946170 C.3        1 MOL1        -0.1412
       6    H4      19.759452   18.074038   19.173381 H          1 MOL1         0.0947
       7    H5      18.249283   18.565866   19.927651 H          1 MOL1         0.0947
       8    C3      19.905478   18.309504   21.322208 C.3        1 MOL1        -0.1437
       9    H6      19.738640   17.231437   21.453457 H          1 MOL1         0.0947
      10    H7      20.994257   18.456958   21.329031 H          1 MOL1         0.0947
      11    C4      19.268547   19.067679   22.511381 C.3        1 MOL1        -0.1437
      12    H8      18.175777   18.960790   22.471428 H          1 MOL1         0.0947
      13    H9      19.487888   20.140440   22.431159 H          1 MOL1         0.0947
      14    C5      19.789024   18.545020   23.869371 C.3        1 MOL1        -0.1437
      15    H10     19.567858   17.472420   23.959204 H          1 MOL1         0.0947
      16    H11     20.882333   18.648706   23.907113 H          1 MOL1         0.0947
      17    C6      19.156902   19.303375   25.058285 C.3        1 MOL1        -0.1437
      18    H12     18.063427   19.200215   25.020474 H          1 MOL1         0.0947
      19    H13     19.378232   20.376179   24.969611 H          1 MOL1         0.0947
      20    C7      19.676410   18.781360   26.415831 C.3        1 MOL1        -0.1477
      21    H14     19.452493   17.710381   26.510557 H          1 MOL1         0.0947
      22    H15     20.768607   18.887675   26.459591 H          1 MOL1         0.0947
      23    C8      19.040749   19.542867   27.592131 C.3        1 MOL1         0.0145
      24    H16     17.954040   19.426126   27.562195 H          1 MOL1         0.0921
      25    H17     19.275051   20.607762   27.511120 H          1 MOL1         0.0921
      26    N1      19.525945   19.058823   28.943205 N.4        1 MOL1        -0.5969
      27    H18     19.090473   19.578897   29.713040 H          1 MOL1         0.3603
      28    H19     20.540490   19.167037   29.045881 H          1 MOL1         0.3603
      29    H20     19.311198   18.067417   29.093383 H          1 MOL1         0.3603
@<TRIPOS>BOND
    1     1     2    1
    2     1     3    1
    3     1     4    1
    4     1     5    1
    5     5     6    1
    6     5     7    1
    7     5     8    1
    8     8     9    1
    9     8    10    1
   10     8    11    1
   11    11    12    1
   12    11    13    1
   13    11    14    1
   14    14    15    1
   15    14    16    1
   16    14    17    1
   17    17    18    1
   18    17    19    1
   19    17    20    1
   20    20    21    1
   21    20    22    1
   22    20    23    1
   23    23    24    1
   24    23    25    1
   25    23    26    1
   26    26    27    1
   27    26    28    1
   28    26    29    1
@<TRIPOS>SUBSTRUCTURE
       1 MOL1            1 RESIDUE      1      MOL     
@<SCITEGIC>MOL_PROPERTY
VM2 Rank
SciTegic.value.IntegerValue
7

@<SCITEGIC>MOL_PROPERTY
Conf_Id
SciTegic.value.IntegerValue
2267

@<SCITEGIC>MOL_PROPERTY
Probability
SciTegic.value.DoubleValue
1.76

@<SCITEGIC>MOL_PROPERTY
Sum Probability
SciTegic.value.DoubleValue
20.19

@<SCITEGIC>MOL_PROPERTY
Delta G
SciTegic.value.DoubleValue
0.654

@<SCITEGIC>MOL_PROPERTY
G
SciTegic.value.DoubleValue
58.800

@<SCITEGIC>MOL_PROPERTY
E
SciTegic.value.DoubleValue
21.506

@<SCITEGIC>MOL_PROPERTY
-TS
SciTegic.value.DoubleValue
37.295

@<SCITEGIC>MOL_PROPERTY
U+W
SciTegic.value.DoubleValue
-2.639

@<SCITEGIC>MOL_PROPERTY
U
SciTegic.value.DoubleValue
48.301

@<SCITEGIC>MOL_PROPERTY
W
SciTegic.value.DoubleValue
-50.940

@<SCITEGIC>MOL_PROPERTY
W(PB)
SciTegic.value.DoubleValue
-53.504

@<SCITEGIC>MOL_PROPERTY
W(SA)
SciTegic.value.DoubleValue
2.565

@<SCITEGIC>MOL_PROPERTY
Valence
SciTegic.value.DoubleValue
3.090

@<SCITEGIC>MOL_PROPERTY
Coulomb
SciTegic.value.DoubleValue
44.344

@<SCITEGIC>MOL_PROPERTY
VdW
SciTegic.value.DoubleValue
0.866

@<SCITEGIC>MOL_PROPERTY
VdW6
SciTegic.value.DoubleValue
-7.521

@<SCITEGIC>MOL_PROPERTY
VdW12
SciTegic.value.DoubleValue
8.387

@<SCITEGIC>MOL_PROPERTY
Bond
SciTegic.value.DoubleValue
0.180

@<SCITEGIC>MOL_PROPERTY
Angle
SciTegic.value.DoubleValue
0.641

@<SCITEGIC>MOL_PROPERTY
Pdih
SciTegic.value.DoubleValue
2.270

@<SCITEGIC>MOL_PROPERTY
Idih
SciTegic.value.DoubleValue
0.000

@<SCITEGIC>MOL_PROPERTY
Tether
SciTegic.value.DoubleValue
0.000

@<TRIPOS>MOLECULE
guest-3_vm2.mol2 : vm2 ligand conformer 8
          29          28           1
SMALL
USER_CHARGES
 
@<TRIPOS>ATOM
       1    C1      20.230795   18.403930   19.251039 C.3        1 MOL1        -0.2427
       2    H1      19.571898   18.933959   18.550925 H          1 MOL1         0.0958
       3    H2      21.215323   18.889149   19.228197 H          1 MOL1         0.0958
       4    H3      20.352948   17.375930   18.885888 H          1 MOL1         0.0958
       5    C2      19.643517   18.409010   20.678302 C.3        1 MOL1        -0.1412
       6    H4      20.308090   17.836283   21.338569 H          1 MOL1         0.0947
       7    H5      18.673787   17.892015   20.674951 H          1 MOL1         0.0947
       8    C3      19.466270   19.848495   21.216300 C.3        1 MOL1        -0.1437
       9    H6      20.443916   20.347082   21.269588 H          1 MOL1         0.0947
      10    H7      18.864927   20.425310   20.500074 H          1 MOL1         0.0947
      11    C4      18.774783   19.912541   22.600275 C.3        1 MOL1        -0.1437
      12    H8      17.790763   19.427141   22.542321 H          1 MOL1         0.0947
      13    H9      18.584745   20.966740   22.844946 H          1 MOL1         0.0947
      14    C5      19.606665   19.273502   23.738069 C.3        1 MOL1        -0.1437
      15    H10     19.740982   18.200782   23.547192 H          1 MOL1         0.0947
      16    H11     20.608996   19.723242   23.756795 H          1 MOL1         0.0947
      17    C6      18.931545   19.460458   25.115600 C.3        1 MOL1        -0.1437
      18    H12     17.927322   19.014448   25.096032 H          1 MOL1         0.0947
      19    H13     18.799420   20.532448   25.318377 H          1 MOL1         0.0947
      20    C7      19.757091   18.820145   26.253096 C.3        1 MOL1        -0.1477
      21    H14     19.886501   17.747225   26.057644 H          1 MOL1         0.0947
      22    H15     20.760123   19.266669   26.278713 H          1 MOL1         0.0947
      23    C8      19.076344   19.012648   27.619534 C.3        1 MOL1         0.0145
      24    H16     18.083450   18.555066   27.604048 H          1 MOL1         0.0921
      25    H17     18.960397   20.080051   27.826097 H          1 MOL1         0.0921
      26    N1      19.856988   18.397271   28.762786 N.4        1 MOL1        -0.5969
      27    H18     19.977767   17.386129   28.642156 H          1 MOL1         0.3603
      28    H19     19.386448   18.536668   29.663850 H          1 MOL1         0.3603
      29    H20     20.793844   18.805264   28.848777 H          1 MOL1         0.3603
@<TRIPOS>BOND
    1     1     2    1
    2     1     3    1
    3     1     4    1
    4     1     5    1
    5     5     6    1
    6     5     7    1
    7     5     8    1
    8     8     9    1
    9     8    10    1
   10     8    11    1
   11    11    12    1
   12    11    13    1
   13    11    14    1
   14    14    15    1
   15    14    16    1
   16    14    17    1
   17    17    18    1
   18    17    19    1
   19    17    20    1
   20    20    21    1
   21    20    22    1
   22    20    23    1
   23    23    24    1
   24    23    25    1
   25    23    26    1
   26    26    27    1
   27    26    28    1
   28    26    29    1
@<TRIPOS>SUBSTRUCTURE
       1 MOL1            1 RESIDUE      1      MOL     
@<SCITEGIC>MOL_PROPERTY
VM2 Rank
SciTegic.value.IntegerValue
8

@<SCITEGIC>MOL_PROPERTY
Conf_Id
SciTegic.value.IntegerValue
1256

@<SCITEGIC>MOL_PROPERTY
Probability
SciTegic.value.DoubleValue
1.70

@<SCITEGIC>MOL_PROPERTY
Sum Probability
SciTegic.value.DoubleValue
21.90

@<SCITEGIC>MOL_PROPERTY
Delta G
SciTegic.value.DoubleValue
0.674

@<SCITEGIC>MOL_PROPERTY
G
SciTegic.value.DoubleValue
58.820

@<SCITEGIC>MOL_PROPERTY
E
SciTegic.value.DoubleValue
21.536

@<SCITEGIC>MOL_PROPERTY
-TS
SciTegic.value.DoubleValue
37.284

@<SCITEGIC>MOL_PROPERTY
U+W
SciTegic.value.DoubleValue
-2.608

@<SCITEGIC>MOL_PROPERTY
U
SciTegic.value.DoubleValue
48.495

@<SCITEGIC>MOL_PROPERTY
W
SciTegic.value.DoubleValue
-51.103

@<SCITEGIC>MOL_PROPERTY
W(PB)
SciTegic.value.DoubleValue
-53.636

@<SCITEGIC>MOL_PROPERTY
W(SA)
SciTegic.value.DoubleValue
2.533

@<SCITEGIC>MOL_PROPERTY
Valence
SciTegic.value.DoubleValue
3.129

@<SCITEGIC>MOL_PROPERTY
Coulomb
SciTegic.value.DoubleValue
44.512

@<SCITEGIC>MOL_PROPERTY
VdW
SciTegic.value.DoubleValue
0.854

@<SCITEGIC>MOL_PROPERTY
VdW6
SciTegic.value.DoubleValue
-7.566

@<SCITEGIC>MOL_PROPERTY
VdW12
SciTegic.value.DoubleValue
8.420

@<SCITEGIC>MOL_PROPERTY
Bond
SciTegic.value.DoubleValue
0.184

@<SCITEGIC>MOL_PROPERTY
Angle
SciTegic.value.DoubleValue
0.664

@<SCITEGIC>MOL_PROPERTY
Pdih
SciTegic.value.DoubleValue
2.281

@<SCITEGIC>MOL_PROPERTY
Idih
SciTegic.value.DoubleValue
0.000

@<SCITEGIC>MOL_PROPERTY
Tether
SciTegic.value.DoubleValue
0.000

@<TRIPOS>MOLECULE
guest-3_vm2.mol2 : vm2 ligand conformer 9
          29          28           1
SMALL
USER_CHARGES
 
@<TRIPOS>ATOM
       1    C1      19.815905   17.822085   19.501246 C.3        1 MOL1        -0.2427
       2    H1      19.432658   16.890668   19.938078 H          1 MOL1         0.0958
       3    H2      19.493956   17.859955   18.452456 H          1 MOL1         0.0958
       4    H3      20.912866   17.780738   19.515879 H          1 MOL1         0.0958
       5    C2      19.297042   19.052409   20.275204 C.3        1 MOL1        -0.1412
       6    H4      18.200123   19.085116   20.215191 H          1 MOL1         0.0947
       7    H5      19.668475   19.968270   19.794467 H          1 MOL1         0.0947
       8    C3      19.737274   19.024248   21.755581 C.3        1 MOL1        -0.1437
       9    H6      19.368052   18.101036   22.220806 H          1 MOL1         0.0947
      10    H7      20.834197   18.993767   21.810495 H          1 MOL1         0.0947
      11    C4      19.213897   20.255472   22.533557 C.3        1 MOL1        -0.1437
      12    H8      18.115162   20.258389   22.527459 H          1 MOL1         0.0947
      13    H9      19.527526   21.168899   22.009516 H          1 MOL1         0.0947
      14    C5      19.724558   20.329034   23.993500 C.3        1 MOL1        -0.1437
      15    H10     20.823250   20.342307   23.998395 H          1 MOL1         0.0947
      16    H11     19.402717   21.286505   24.425984 H          1 MOL1         0.0947
      17    C6      19.211702   19.174646   24.887668 C.3        1 MOL1        -0.1437
      18    H12     19.589264   18.213710   24.514112 H          1 MOL1         0.0947
      19    H13     18.114953   19.129199   24.836490 H          1 MOL1         0.0947
      20    C7      19.650947   19.350209   26.357956 C.3        1 MOL1        -0.1477
      21    H14     20.746864   19.395041   26.413415 H          1 MOL1         0.0947
      22    H15     19.268914   20.303325   26.747452 H          1 MOL1         0.0947
      23    C8      19.140681   18.196732   27.239318 C.3        1 MOL1         0.0145
      24    H16     19.532065   17.246686   26.865573 H          1 MOL1         0.0921
      25    H17     18.048677   18.158616   27.200140 H          1 MOL1         0.0921
      26    N1      19.551995   18.333165   28.690969 N.4        1 MOL1        -0.5969
      27    H18     19.191194   19.196469   29.110586 H          1 MOL1         0.3603
      28    H19     20.571603   18.347906   28.799243 H          1 MOL1         0.3603
      29    H20     19.202110   17.554947   29.260795 H          1 MOL1         0.3603
@<TRIPOS>BOND
    1     1     2    1
    2     1     3    1
    3     1     4    1
    4     1     5    1
    5     5     6    1
    6     5     7    1
    7     5     8    1
    8     8     9    1
    9     8    10    1
   10     8    11    1
   11    11    12    1
   12    11    13    1
   13    11    14    1
   14    14    15    1
   15    14    16    1
   16    14    17    1
   17    17    18    1
   18    17    19    1
   19    17    20    1
   20    20    21    1
   21    20    22    1
   22    20    23    1
   23    23    24    1
   24    23    25    1
   25    23    26    1
   26    26    27    1
   27    26    28    1
   28    26    29    1
@<TRIPOS>SUBSTRUCTURE
       1 MOL1            1 RESIDUE      1      MOL     
@<SCITEGIC>MOL_PROPERTY
VM2 Rank
SciTegic.value.IntegerValue
9

@<SCITEGIC>MOL_PROPERTY
Conf_Id
SciTegic.value.IntegerValue
2629

@<SCITEGIC>MOL_PROPERTY
Probability
SciTegic.value.DoubleValue
1.70

@<SCITEGIC>MOL_PROPERTY
Sum Probability
SciTegic.value.DoubleValue
23.59

@<SCITEGIC>MOL_PROPERTY
Delta G
SciTegic.value.DoubleValue
0.676

@<SCITEGIC>MOL_PROPERTY
G
SciTegic.value.DoubleValue
58.822

@<SCITEGIC>MOL_PROPERTY
E
SciTegic.value.DoubleValue
21.538

@<SCITEGIC>MOL_PROPERTY
-TS
SciTegic.value.DoubleValue
37.284

@<SCITEGIC>MOL_PROPERTY
U+W
SciTegic.value.DoubleValue
-2.607

@<SCITEGIC>MOL_PROPERTY
U
SciTegic.value.DoubleValue
48.554

@<SCITEGIC>MOL_PROPERTY
W
SciTegic.value.DoubleValue
-51.161

@<SCITEGIC>MOL_PROPERTY
W(PB)
SciTegic.value.DoubleValue
-53.730

@<SCITEGIC>MOL_PROPERTY
W(SA)
SciTegic.value.DoubleValue
2.569

@<SCITEGIC>MOL_PROPERTY
Valence
SciTegic.value.DoubleValue
3.126

@<SCITEGIC>MOL_PROPERTY
Coulomb
SciTegic.value.DoubleValue
44.585

@<SCITEGIC>MOL_PROPERTY
VdW
SciTegic.value.DoubleValue
0.842

@<SCITEGIC>MOL_PROPERTY
VdW6
SciTegic.value.DoubleValue
-7.592

@<SCITEGIC>MOL_PROPERTY
VdW12
SciTegic.value.DoubleValue
8.435

@<SCITEGIC>MOL_PROPERTY
Bond
SciTegic.value.DoubleValue
0.185

@<SCITEGIC>MOL_PROPERTY
Angle
SciTegic.value.DoubleValue
0.660

@<SCITEGIC>MOL_PROPERTY
Pdih
SciTegic.value.DoubleValue
2.281

@<SCITEGIC>MOL_PROPERTY
Idih
SciTegic.value.DoubleValue
0.000

@<SCITEGIC>MOL_PROPERTY
Tether
SciTegic.value.DoubleValue
0.000

@<TRIPOS>MOLECULE
guest-3_vm2.mol2 : vm2 ligand conformer 10
          29          28           1
SMALL
USER_CHARGES
 
@<TRIPOS>ATOM
       1    C1      20.585051   19.982480   19.549563 C.3        1 MOL1        -0.2427
       2    H1      21.461319   19.321114   19.550447 H          1 MOL1         0.0958
       3    H2      20.326437   20.198003   18.504712 H          1 MOL1         0.0958
       4    H3      20.870011   20.928442   20.028303 H          1 MOL1         0.0958
       5    C2      19.394825   19.326891   20.281336 C.3        1 MOL1        -0.1412
       6    H4      19.111132   18.402188   19.759498 H          1 MOL1         0.0947
       7    H5      18.524705   19.996735   20.235470 H          1 MOL1         0.0947
       8    C3      19.732877   19.012032   21.755343 C.3        1 MOL1        -0.1437
       9    H6      20.601635   18.340623   21.796029 H          1 MOL1         0.0947
      10    H7      20.023194   19.941640   22.261924 H          1 MOL1         0.0947
      11    C4      18.538498   18.358520   22.491188 C.3        1 MOL1        -0.1437
      12    H8      18.212037   17.473972   21.926979 H          1 MOL1         0.0947
      13    H9      17.685084   19.050520   22.500461 H          1 MOL1         0.0947
      14    C5      18.867223   17.921148   23.939730 C.3        1 MOL1        -0.1437
      15    H10     18.006808   17.366097   24.338449 H          1 MOL1         0.0947
      16    H11     19.710312   17.216592   23.928604 H          1 MOL1         0.0947
      17    C6      19.186394   19.103418   24.886060 C.3        1 MOL1        -0.1437
      18    H12     18.365765   19.833461   24.852219 H          1 MOL1         0.0947
      19    H13     20.091328   19.623648   24.545541 H          1 MOL1         0.0947
      20    C7      19.395257   18.631805   26.341898 C.3        1 MOL1        -0.1477
      21    H14     18.491622   18.119724   26.698694 H          1 MOL1         0.0947
      22    H15     20.215654   17.902687   26.380078 H          1 MOL1         0.0947
      23    C8      19.715870   19.812297   27.275349 C.3        1 MOL1         0.0145
      24    H16     18.894051   20.533115   27.253071 H          1 MOL1         0.0921
      25    H17     20.624611   20.315450   26.934058 H          1 MOL1         0.0921
      26    N1      19.928005   19.389408   28.714532 N.4        1 MOL1        -0.5969
      27    H18     20.707539   18.729734   28.807804 H          1 MOL1         0.3603
      28    H19     19.097134   18.932230   29.104645 H          1 MOL1         0.3603
      29    H20     20.140236   20.190401   29.319602 H          1 MOL1         0.3603
@<TRIPOS>BOND
    1     1     2    1
    2     1     3    1
    3     1     4    1
    4     1     5    1
    5     5     6    1
    6     5     7    1
    7     5     8    1
    8     8     9    1
    9     8    10    1
   10     8    11    1
   11    11    12    1
   12    11    13    1
   13    11    14    1
   14    14    15    1
   15    14    16    1
   16    14    17    1
   17    17    18    1
   18    17    19    1
   19    17    20    1
   20    20    21    1
   21    20    22    1
   22    20    23    1
   23    23    24    1
   24    23    25    1
   25    23    26    1
   26    26    27    1
   27    26    28    1
   28    26    29    1
@<TRIPOS>SUBSTRUCTURE
       1 MOL1            1 RESIDUE      1      MOL     
@<SCITEGIC>MOL_PROPERTY
VM2 Rank
SciTegic.value.IntegerValue
10

@<SCITEGIC>MOL_PROPERTY
Conf_Id
SciTegic.value.IntegerValue
655

@<SCITEGIC>MOL_PROPERTY
Probability
SciTegic.value.DoubleValue
1.66

@<SCITEGIC>MOL_PROPERTY
Sum Probability
SciTegic.value.DoubleValue
25.26

@<SCITEGIC>MOL_PROPERTY
Delta G
SciTegic.value.DoubleValue
0.688

@<SCITEGIC>MOL_PROPERTY
G
SciTegic.value.DoubleValue
58.834

@<SCITEGIC>MOL_PROPERTY
E
SciTegic.value.DoubleValue
21.550

@<SCITEGIC>MOL_PROPERTY
-TS
SciTegic.value.DoubleValue
37.285

@<SCITEGIC>MOL_PROPERTY
U+W
SciTegic.value.DoubleValue
-2.595

@<SCITEGIC>MOL_PROPERTY
U
SciTegic.value.DoubleValue
48.554

@<SCITEGIC>MOL_PROPERTY
W
SciTegic.value.DoubleValue
-51.149

@<SCITEGIC>MOL_PROPERTY
W(PB)
SciTegic.value.DoubleValue
-53.686

@<SCITEGIC>MOL_PROPERTY
W(SA)
SciTegic.value.DoubleValue
2.537

@<SCITEGIC>MOL_PROPERTY
Valence
SciTegic.value.DoubleValue
3.126

@<SCITEGIC>MOL_PROPERTY
Coulomb
SciTegic.value.DoubleValue
44.585

@<SCITEGIC>MOL_PROPERTY
VdW
SciTegic.value.DoubleValue
0.842

@<SCITEGIC>MOL_PROPERTY
VdW6
SciTegic.value.DoubleValue
-7.593

@<SCITEGIC>MOL_PROPERTY
VdW12
SciTegic.value.DoubleValue
8.435

@<SCITEGIC>MOL_PROPERTY
Bond
SciTegic.value.DoubleValue
0.185

@<SCITEGIC>MOL_PROPERTY
Angle
SciTegic.value.DoubleValue
0.660

@<SCITEGIC>MOL_PROPERTY
Pdih
SciTegic.value.DoubleValue
2.281

@<SCITEGIC>MOL_PROPERTY
Idih
SciTegic.value.DoubleValue
0.000

@<SCITEGIC>MOL_PROPERTY
Tether
SciTegic.value.DoubleValue
0.000

@<TRIPOS>MOLECULE
guest-3_vm2.mol2 : vm2 ligand conformer 11
          29          28           1
SMALL
USER_CHARGES
 
@<TRIPOS>ATOM
       1    C1      20.542675   19.279646   19.270624 C.3        1 MOL1        -0.2427
       2    H1      21.292038   20.012706   18.944867 H          1 MOL1         0.0958
       3    H2      20.999388   18.282886   19.214629 H          1 MOL1         0.0958
       4    H3      19.707050   19.313471   18.559411 H          1 MOL1         0.0958
       5    C2      20.064174   19.590147   20.704720 C.3        1 MOL1        -0.1412
       6    H4      19.639336   20.603178   20.735582 H          1 MOL1         0.0947
       7    H5      20.931748   19.587418   21.377724 H          1 MOL1         0.0947
       8    C3      19.009728   18.566486   21.187663 C.3        1 MOL1        -0.1437
       9    H6      18.189374   18.528285   20.457684 H          1 MOL1         0.0947
      10    H7      19.451642   17.560730   21.207347 H          1 MOL1         0.0947
      11    C4      18.413804   18.898926   22.577630 C.3        1 MOL1        -0.1437
      12    H8      17.597127   18.193117   22.783031 H          1 MOL1         0.0947
      13    H9      17.958544   19.898621   22.552810 H          1 MOL1         0.0947
      14    C5      19.446230   18.823153   23.727992 C.3        1 MOL1        -0.1437
      15    H10     19.938899   17.841123   23.714672 H          1 MOL1         0.0947
      16    H11     20.230557   19.576493   23.577936 H          1 MOL1         0.0947
      17    C6      18.785403   19.050104   25.106446 C.3        1 MOL1        -0.1437
      18    H12     18.003131   18.295416   25.268419 H          1 MOL1         0.0947
      19    H13     18.288853   20.030439   25.118793 H          1 MOL1         0.0947
      20    C7      19.813760   18.979436   26.256625 C.3        1 MOL1        -0.1477
      21    H14     20.309039   17.999248   26.250262 H          1 MOL1         0.0947
      22    H15     20.594370   19.736318   26.102087 H          1 MOL1         0.0947
      23    C8      19.145231   19.205949   27.623879 C.3        1 MOL1         0.0145
      24    H16     18.378434   18.444353   27.789571 H          1 MOL1         0.0921
      25    H17     18.664601   20.187873   27.640662 H          1 MOL1         0.0921
      26    N1      20.122995   19.144153   28.779421 N.4        1 MOL1        -0.5969
      27    H18     19.657518   19.297475   29.680853 H          1 MOL1         0.3603
      28    H19     20.856781   19.855745   28.697303 H          1 MOL1         0.3603
      29    H20     20.590537   18.233233   28.835797 H          1 MOL1         0.3603
@<TRIPOS>BOND
    1     1     2    1
    2     1     3    1
    3     1     4    1
    4     1     5    1
    5     5     6    1
    6     5     7    1
    7     5     8    1
    8     8     9    1
    9     8    10    1
   10     8    11    1
   11    11    12    1
   12    11    13    1
   13    11    14    1
   14    14    15    1
   15    14    16    1
   16    14    17    1
   17    17    18    1
   18    17    19    1
   19    17    20    1
   20    20    21    1
   21    20    22    1
   22    20    23    1
   23    23    24    1
   24    23    25    1
   25    23    26    1
   26    26    27    1
   27    26    28    1
   28    26    29    1
@<TRIPOS>SUBSTRUCTURE
       1 MOL1            1 RESIDUE      1      MOL     
@<SCITEGIC>MOL_PROPERTY
VM2 Rank
SciTegic.value.IntegerValue
11

@<SCITEGIC>MOL_PROPERTY
Conf_Id
SciTegic.value.IntegerValue
1930

@<SCITEGIC>MOL_PROPERTY
Probability
SciTegic.value.DoubleValue
1.62

@<SCITEGIC>MOL_PROPERTY
Sum Probability
SciTegic.value.DoubleValue
26.88

@<SCITEGIC>MOL_PROPERTY
Delta G
SciTegic.value.DoubleValue
0.705

@<SCITEGIC>MOL_PROPERTY
G
SciTegic.value.DoubleValue
58.851

@<SCITEGIC>MOL_PROPERTY
E
SciTegic.value.DoubleValue
21.567

@<SCITEGIC>MOL_PROPERTY
-TS
SciTegic.value.DoubleValue
37.284

@<SCITEGIC>MOL_PROPERTY
U+W
SciTegic.value.DoubleValue
-2.577

@<SCITEGIC>MOL_PROPERTY
U
SciTegic.value.DoubleValue
48.495

@<SCITEGIC>MOL_PROPERTY
W
SciTegic.value.DoubleValue
-51.072

@<SCITEGIC>MOL_PROPERTY
W(PB)
SciTegic.value.DoubleValue
-53.644

@<SCITEGIC>MOL_PROPERTY
W(SA)
SciTegic.value.DoubleValue
2.572

@<SCITEGIC>MOL_PROPERTY
Valence
SciTegic.value.DoubleValue
3.129

@<SCITEGIC>MOL_PROPERTY
Coulomb
SciTegic.value.DoubleValue
44.512

@<SCITEGIC>MOL_PROPERTY
VdW
SciTegic.value.DoubleValue
0.854

@<SCITEGIC>MOL_PROPERTY
VdW6
SciTegic.value.DoubleValue
-7.566

@<SCITEGIC>MOL_PROPERTY
VdW12
SciTegic.value.DoubleValue
8.420

@<SCITEGIC>MOL_PROPERTY
Bond
SciTegic.value.DoubleValue
0.184

@<SCITEGIC>MOL_PROPERTY
Angle
SciTegic.value.DoubleValue
0.664

@<SCITEGIC>MOL_PROPERTY
Pdih
SciTegic.value.DoubleValue
2.281

@<SCITEGIC>MOL_PROPERTY
Idih
SciTegic.value.DoubleValue
0.000

@<SCITEGIC>MOL_PROPERTY
Tether
SciTegic.value.DoubleValue
0.000

@<TRIPOS>MOLECULE
guest-3_vm2.mol2 : vm2 ligand conformer 12
          29          28           1
SMALL
USER_CHARGES
 
@<TRIPOS>ATOM
       1    C1      19.823149   18.468405   19.110291 C.3        1 MOL1        -0.2427
       2    H1      20.919854   18.422708   19.090233 H          1 MOL1         0.0958
       3    H2      19.440732   17.679808   18.449291 H          1 MOL1         0.0958
       4    H3      19.513526   19.436212   18.694671 H          1 MOL1         0.0958
       5    C2      19.286608   18.284080   20.545547 C.3        1 MOL1        -0.1412
       6    H4      19.583342   17.294849   20.921382 H          1 MOL1         0.0947
       7    H5      18.187815   18.300582   20.528957 H          1 MOL1         0.0947
       8    C3      19.810265   19.382325   21.497214 C.3        1 MOL1        -0.1437
       9    H6      20.908859   19.363308   21.509347 H          1 MOL1         0.0947
      10    H7      19.513567   20.369060   21.115494 H          1 MOL1         0.0947
      11    C4      19.274810   19.201435   22.935534 C.3        1 MOL1        -0.1437
      12    H8      19.569969   18.210896   23.305470 H          1 MOL1         0.0947
      13    H9      18.176382   19.224446   22.923014 H          1 MOL1         0.0947
      14    C5      19.804358   20.300973   23.887170 C.3        1 MOL1        -0.1437
      15    H10     20.900252   20.245615   23.944383 H          1 MOL1         0.0947
      16    H11     19.567253   21.286091   23.462069 H          1 MOL1         0.0947
      17    C6      19.206155   20.226390   25.313440 C.3        1 MOL1        -0.1437
      18    H12     18.111064   20.298838   25.257920 H          1 MOL1         0.0947
      19    H13     19.544839   21.105325   25.879532 H          1 MOL1         0.0947
      20    C7      19.605607   18.947613   26.086380 C.3        1 MOL1        -0.1477
      21    H14     19.204762   18.059673   25.581620 H          1 MOL1         0.0947
      22    H15     20.699225   18.848754   26.097708 H          1 MOL1         0.0947
      23    C8      19.080548   18.980903   27.532360 C.3        1 MOL1         0.0145
      24    H16     17.990263   19.062723   27.526361 H          1 MOL1         0.0921
      25    H17     19.488365   19.851991   28.052296 H          1 MOL1         0.0921
      26    N1      19.452500   17.745876   28.327065 N.4        1 MOL1        -0.5969
      27    H18     20.468777   17.626140   28.393196 H          1 MOL1         0.3603
      28    H19     19.074396   16.891493   27.904507 H          1 MOL1         0.3603
      29    H20     19.093517   17.788564   29.287298 H          1 MOL1         0.3603
@<TRIPOS>BOND
    1     1     2    1
    2     1     3    1
    3     1     4    1
    4     1     5    1
    5     5     6    1
    6     5     7    1
    7     5     8    1
    8     8     9    1
    9     8    10    1
   10     8    11    1
   11    11    12    1
   12    11    13    1
   13    11    14    1
   14    14    15    1
   15    14    16    1
   16    14    17    1
   17    17    18    1
   18    17    19    1
   19    17    20    1
   20    20    21    1
   21    20    22    1
   22    20    23    1
   23    23    24    1
   24    23    25    1
   25    23    26    1
   26    26    27    1
   27    26    28    1
   28    26    29    1
@<TRIPOS>SUBSTRUCTURE
       1 MOL1            1 RESIDUE      1      MOL     
@<SCITEGIC>MOL_PROPERTY
VM2 Rank
SciTegic.value.IntegerValue
12

@<SCITEGIC>MOL_PROPERTY
Conf_Id
SciTegic.value.IntegerValue
2429

@<SCITEGIC>MOL_PROPERTY
Probability
SciTegic.value.DoubleValue
1.60

@<SCITEGIC>MOL_PROPERTY
Sum Probability
SciTegic.value.DoubleValue
28.48

@<SCITEGIC>MOL_PROPERTY
Delta G
SciTegic.value.DoubleValue
0.710

@<SCITEGIC>MOL_PROPERTY
G
SciTegic.value.DoubleValue
58.857

@<SCITEGIC>MOL_PROPERTY
E
SciTegic.value.DoubleValue
21.572

@<SCITEGIC>MOL_PROPERTY
-TS
SciTegic.value.DoubleValue
37.285

@<SCITEGIC>MOL_PROPERTY
U+W
SciTegic.value.DoubleValue
-2.573

@<SCITEGIC>MOL_PROPERTY
U
SciTegic.value.DoubleValue
48.759

@<SCITEGIC>MOL_PROPERTY
W
SciTegic.value.DoubleValue
-51.332

@<SCITEGIC>MOL_PROPERTY
W(PB)
SciTegic.value.DoubleValue
-53.903

@<SCITEGIC>MOL_PROPERTY
W(SA)
SciTegic.value.DoubleValue
2.571

@<SCITEGIC>MOL_PROPERTY
Valence
SciTegic.value.DoubleValue
3.125

@<SCITEGIC>MOL_PROPERTY
Coulomb
SciTegic.value.DoubleValue
44.794

@<SCITEGIC>MOL_PROPERTY
VdW
SciTegic.value.DoubleValue
0.840

@<SCITEGIC>MOL_PROPERTY
VdW6
SciTegic.value.DoubleValue
-7.584

@<SCITEGIC>MOL_PROPERTY
VdW12
SciTegic.value.DoubleValue
8.424

@<SCITEGIC>MOL_PROPERTY
Bond
SciTegic.value.DoubleValue
0.184

@<SCITEGIC>MOL_PROPERTY
Angle
SciTegic.value.DoubleValue
0.662

@<SCITEGIC>MOL_PROPERTY
Pdih
SciTegic.value.DoubleValue
2.279

@<SCITEGIC>MOL_PROPERTY
Idih
SciTegic.value.DoubleValue
0.000

@<SCITEGIC>MOL_PROPERTY
Tether
SciTegic.value.DoubleValue
0.000

@<TRIPOS>MOLECULE
guest-3_vm2.mol2 : vm2 ligand conformer 13
          29          28           1
SMALL
USER_CHARGES
 
@<TRIPOS>ATOM
       1    C1      20.187538   19.493112   19.133075 C.3        1 MOL1        -0.2427
       2    H1      21.066583   18.836315   19.099153 H          1 MOL1         0.0958
       3    H2      19.341873   18.956134   18.683898 H          1 MOL1         0.0958
       4    H3      20.398710   20.371443   18.509386 H          1 MOL1         0.0958
       5    C2      19.868169   19.917759   20.582038 C.3        1 MOL1        -0.1412
       6    H4      19.006390   20.599837   20.580537 H          1 MOL1         0.0947
       7    H5      20.717890   20.481152   20.992454 H          1 MOL1         0.0947
       8    C3      19.566912   18.698933   21.481896 C.3        1 MOL1        -0.1437
       9    H6      18.718919   18.137638   21.065670 H          1 MOL1         0.0947
      10    H7      20.430215   18.019143   21.479087 H          1 MOL1         0.0947
      11    C4      19.246087   19.120117   22.933751 C.3        1 MOL1        -0.1437
      12    H8      18.380297   19.796602   22.936008 H          1 MOL1         0.0947
      13    H9      20.095382   19.685925   23.338350 H          1 MOL1         0.0947
      14    C5      18.948786   17.896550   23.833481 C.3        1 MOL1        -0.1437
      15    H10     18.148853   17.300318   23.373046 H          1 MOL1         0.0947
      16    H11     19.832508   17.245066   23.877383 H          1 MOL1         0.0947
      17    C6      18.511991   18.275536   25.269878 C.3        1 MOL1        -0.1437
      18    H12     18.211515   17.358606   25.795848 H          1 MOL1         0.0947
      19    H13     17.618050   18.913175   25.226964 H          1 MOL1         0.0947
      20    C7      19.618265   18.982903   26.087224 C.3        1 MOL1        -0.1477
      21    H14     20.528361   18.368388   26.087117 H          1 MOL1         0.0947
      22    H15     19.875392   19.943614   25.623738 H          1 MOL1         0.0947
      23    C8      19.169683   19.231425   27.537973 C.3        1 MOL1         0.0145
      24    H16     18.928566   18.278736   28.017233 H          1 MOL1         0.0921
      25    H17     18.272742   19.856655   27.544021 H          1 MOL1         0.0921
      26    N1      20.226568   19.921666   28.375684 N.4        1 MOL1        -0.5969
      27    H18     21.089229   19.370173   28.432233 H          1 MOL1         0.3603
      28    H19     19.907690   20.077235   29.338418 H          1 MOL1         0.3603
      29    H20     20.478765   20.838822   27.992659 H          1 MOL1         0.3603
@<TRIPOS>BOND
    1     1     2    1
    2     1     3    1
    3     1     4    1
    4     1     5    1
    5     5     6    1
    6     5     7    1
    7     5     8    1
    8     8     9    1
    9     8    10    1
   10     8    11    1
   11    11    12    1
   12    11    13    1
   13    11    14    1
   14    14    15    1
   15    14    16    1
   16    14    17    1
   17    17    18    1
   18    17    19    1
   19    17    20    1
   20    20    21    1
   21    20    22    1
   22    20    23    1
   23    23    24    1
   24    23    25    1
   25    23    26    1
   26    26    27    1
   27    26    28    1
   28    26    29    1
@<TRIPOS>SUBSTRUCTURE
       1 MOL1            1 RESIDUE      1      MOL     
@<SCITEGIC>MOL_PROPERTY
VM2 Rank
SciTegic.value.IntegerValue
13

@<SCITEGIC>MOL_PROPERTY
Conf_Id
SciTegic.value.IntegerValue
1132

@<SCITEGIC>MOL_PROPERTY
Probability
SciTegic.value.DoubleValue
1.47

@<SCITEGIC>MOL_PROPERTY
Sum Probability
SciTegic.value.DoubleValue
29.95

@<SCITEGIC>MOL_PROPERTY
Delta G
SciTegic.value.DoubleValue
0.762

@<SCITEGIC>MOL_PROPERTY
G
SciTegic.value.DoubleValue
58.908

@<SCITEGIC>MOL_PROPERTY
E
SciTegic.value.DoubleValue
21.623

@<SCITEGIC>MOL_PROPERTY
-TS
SciTegic.value.DoubleValue
37.285

@<SCITEGIC>MOL_PROPERTY
U+W
SciTegic.value.DoubleValue
-2.522

@<SCITEGIC>MOL_PROPERTY
U
SciTegic.value.DoubleValue
48.759

@<SCITEGIC>MOL_PROPERTY
W
SciTegic.value.DoubleValue
-51.281

@<SCITEGIC>MOL_PROPERTY
W(PB)
SciTegic.value.DoubleValue
-53.848

@<SCITEGIC>MOL_PROPERTY
W(SA)
SciTegic.value.DoubleValue
2.567

@<SCITEGIC>MOL_PROPERTY
Valence
SciTegic.value.DoubleValue
3.126

@<SCITEGIC>MOL_PROPERTY
Coulomb
SciTegic.value.DoubleValue
44.794

@<SCITEGIC>MOL_PROPERTY
VdW
SciTegic.value.DoubleValue
0.839

@<SCITEGIC>MOL_PROPERTY
VdW6
SciTegic.value.DoubleValue
-7.584

@<SCITEGIC>MOL_PROPERTY
VdW12
SciTegic.value.DoubleValue
8.423

@<SCITEGIC>MOL_PROPERTY
Bond
SciTegic.value.DoubleValue
0.184

@<SCITEGIC>MOL_PROPERTY
Angle
SciTegic.value.DoubleValue
0.663

@<SCITEGIC>MOL_PROPERTY
Pdih
SciTegic.value.DoubleValue
2.279

@<SCITEGIC>MOL_PROPERTY
Idih
SciTegic.value.DoubleValue
0.000

@<SCITEGIC>MOL_PROPERTY
Tether
SciTegic.value.DoubleValue
0.000

@<TRIPOS>MOLECULE
guest-3_vm2.mol2 : vm2 ligand conformer 14
          29          28           1
SMALL
USER_CHARGES
 
@<TRIPOS>ATOM
       1    C1      20.466362   19.110400   19.252684 C.3        1 MOL1        -0.2427
       2    H1      21.512487   19.346856   19.487122 H          1 MOL1         0.0958
       3    H2      20.388949   18.027655   19.088594 H          1 MOL1         0.0958
       4    H3      20.209932   19.613219   18.311160 H          1 MOL1         0.0958
       5    C2      19.526543   19.567768   20.388197 C.3        1 MOL1        -0.1412
       6    H4      18.485905   19.348891   20.110597 H          1 MOL1         0.0947
       7    H5      19.600768   20.657945   20.506075 H          1 MOL1         0.0947
       8    C3      19.866282   18.874272   21.725936 C.3        1 MOL1        -0.1437
       9    H6      19.792901   17.784853   21.602710 H          1 MOL1         0.0947
      10    H7      20.907948   19.093958   21.998083 H          1 MOL1         0.0947
      11    C4      18.927193   19.329775   22.865517 C.3        1 MOL1        -0.1437
      12    H8      17.885834   19.110272   22.591998 H          1 MOL1         0.0947
      13    H9      19.001043   20.419223   22.988139 H          1 MOL1         0.0947
      14    C5      19.267252   18.635434   24.203453 C.3        1 MOL1        -0.1437
      15    H10     19.189541   17.546260   24.080936 H          1 MOL1         0.0947
      16    H11     20.310973   18.852648   24.466817 H          1 MOL1         0.0947
      17    C6      18.327093   19.094810   25.343409 C.3        1 MOL1        -0.1437
      18    H12     17.285057   18.913967   25.045444 H          1 MOL1         0.0947
      19    H13     18.419200   20.179759   25.486531 H          1 MOL1         0.0947
      20    C7      18.590191   18.362117   26.682878 C.3        1 MOL1        -0.1477
      21    H14     17.863544   18.703506   27.432042 H          1 MOL1         0.0947
      22    H15     18.409540   17.287285   26.548859 H          1 MOL1         0.0947
      23    C8      20.015898   18.558625   27.236858 C.3        1 MOL1         0.0145
      24    H16     20.747522   18.179317   26.518887 H          1 MOL1         0.0921
      25    H17     20.126021   17.991682   28.165259 H          1 MOL1         0.0921
      26    N1      20.357187   20.004798   27.536068 N.4        1 MOL1        -0.5969
      27    H18     19.719469   20.410181   28.229007 H          1 MOL1         0.3603
      28    H19     20.300938   20.586860   26.694423 H          1 MOL1         0.3603
      29    H20     21.307894   20.103012   27.908836 H          1 MOL1         0.3603
@<TRIPOS>BOND
    1     1     2    1
    2     1     3    1
    3     1     4    1
    4     1     5    1
    5     5     6    1
    6     5     7    1
    7     5     8    1
    8     8     9    1
    9     8    10    1
   10     8    11    1
   11    11    12    1
   12    11    13    1
   13    11    14    1
   14    14    15    1
   15    14    16    1
   16    14    17    1
   17    17    18    1
   18    17    19    1
   19    17    20    1
   20    20    21    1
   21    20    22    1
   22    20    23    1
   23    23    24    1
   24    23    25    1
   25    23    26    1
   26    26    27    1
   27    26    28    1
   28    26    29    1
@<TRIPOS>SUBSTRUCTURE
       1 MOL1            1 RESIDUE      1      MOL     
@<SCITEGIC>MOL_PROPERTY
VM2 Rank
SciTegic.value.IntegerValue
14

@<SCITEGIC>MOL_PROPERTY
Conf_Id
SciTegic.value.IntegerValue
2118

@<SCITEGIC>MOL_PROPERTY
Probability
SciTegic.value.DoubleValue
1.32

@<SCITEGIC>MOL_PROPERTY
Sum Probability
SciTegic.value.DoubleValue
31.27

@<SCITEGIC>MOL_PROPERTY
Delta G
SciTegic.value.DoubleValue
0.828

@<SCITEGIC>MOL_PROPERTY
G
SciTegic.value.DoubleValue
58.974

@<SCITEGIC>MOL_PROPERTY
E
SciTegic.value.DoubleValue
21.504

@<SCITEGIC>MOL_PROPERTY
-TS
SciTegic.value.DoubleValue
37.470

@<SCITEGIC>MOL_PROPERTY
U+W
SciTegic.value.DoubleValue
-2.641

@<SCITEGIC>MOL_PROPERTY
U
SciTegic.value.DoubleValue
49.111

@<SCITEGIC>MOL_PROPERTY
W
SciTegic.value.DoubleValue
-51.752

@<SCITEGIC>MOL_PROPERTY
W(PB)
SciTegic.value.DoubleValue
-54.270

@<SCITEGIC>MOL_PROPERTY
W(SA)
SciTegic.value.DoubleValue
2.518

@<SCITEGIC>MOL_PROPERTY
Valence
SciTegic.value.DoubleValue
2.968

@<SCITEGIC>MOL_PROPERTY
Coulomb
SciTegic.value.DoubleValue
45.352

@<SCITEGIC>MOL_PROPERTY
VdW
SciTegic.value.DoubleValue
0.791

@<SCITEGIC>MOL_PROPERTY
VdW6
SciTegic.value.DoubleValue
-8.246

@<SCITEGIC>MOL_PROPERTY
VdW12
SciTegic.value.DoubleValue
9.037

@<SCITEGIC>MOL_PROPERTY
Bond
SciTegic.value.DoubleValue
0.191

@<SCITEGIC>MOL_PROPERTY
Angle
SciTegic.value.DoubleValue
0.634

@<SCITEGIC>MOL_PROPERTY
Pdih
SciTegic.value.DoubleValue
2.143

@<SCITEGIC>MOL_PROPERTY
Idih
SciTegic.value.DoubleValue
0.000

@<SCITEGIC>MOL_PROPERTY
Tether
SciTegic.value.DoubleValue
0.000

@<TRIPOS>MOLECULE
guest-3_vm2.mol2 : vm2 ligand conformer 15
          29          28           1
SMALL
USER_CHARGES
 
@<TRIPOS>ATOM
       1    C1      18.523991   18.733402   19.666738 C.3        1 MOL1        -0.2427
       2    H1      17.696163   18.741951   20.386520 H          1 MOL1         0.0958
       3    H2      18.120405   19.049737   18.696180 H          1 MOL1         0.0958
       4    H3      18.878925   17.699909   19.562103 H          1 MOL1         0.0958
       5    C2      19.669592   19.672296   20.107848 C.3        1 MOL1        -0.1412
       6    H4      19.282854   20.693145   20.234434 H          1 MOL1         0.0947
       7    H5      20.415244   19.723610   19.302163 H          1 MOL1         0.0947
       8    C3      20.374004   19.214542   21.407721 C.3        1 MOL1        -0.1437
       9    H6      20.776302   18.201463   21.269679 H          1 MOL1         0.0947
      10    H7      21.238603   19.869090   21.584707 H          1 MOL1         0.0947
      11    C4      19.453826   19.245813   22.651476 C.3        1 MOL1        -0.1437
      12    H8      18.621636   18.542177   22.518389 H          1 MOL1         0.0947
      13    H9      19.012843   20.246665   22.756212 H          1 MOL1         0.0947
      14    C5      20.222104   18.882400   23.942188 C.3        1 MOL1        -0.1437
      15    H10     20.666586   17.883240   23.834574 H          1 MOL1         0.0947
      16    H11     21.053319   19.586666   24.085514 H          1 MOL1         0.0947
      17    C6      19.304146   18.908658   25.185068 C.3        1 MOL1        -0.1437
      18    H12     18.474640   18.201883   25.043536 H          1 MOL1         0.0947
      19    H13     18.858770   19.907550   25.284449 H          1 MOL1         0.0947
      20    C7      20.075321   18.545542   26.475975 C.3        1 MOL1        -0.1477
      21    H14     20.547536   17.561756   26.352881 H          1 MOL1         0.0947
      22    H15     20.888186   19.264622   26.643814 H          1 MOL1         0.0947
      23    C8      19.166009   18.497736   27.718891 C.3        1 MOL1         0.0145
      24    H16     19.746400   18.155845   28.580171 H          1 MOL1         0.0921
      25    H17     18.351786   17.787316   27.552339 H          1 MOL1         0.0921
      26    N1      18.555008   19.837610   28.079094 N.4        1 MOL1        -0.5969
      27    H18     19.273082   20.544148   28.270116 H          1 MOL1         0.3603
      28    H19     17.965813   19.774569   28.916646 H          1 MOL1         0.3603
      29    H20     17.965409   20.200815   27.323643 H          1 MOL1         0.3603
@<TRIPOS>BOND
    1     1     2    1
    2     1     3    1
    3     1     4    1
    4     1     5    1
    5     5     6    1
    6     5     7    1
    7     5     8    1
    8     8     9    1
    9     8    10    1
   10     8    11    1
   11    11    12    1
   12    11    13    1
   13    11    14    1
   14    14    15    1
   15    14    16    1
   16    14    17    1
   17    17    18    1
   18    17    19    1
   19    17    20    1
   20    20    21    1
   21    20    22    1
   22    20    23    1
   23    23    24    1
   24    23    25    1
   25    23    26    1
   26    26    27    1
   27    26    28    1
   28    26    29    1
@<TRIPOS>SUBSTRUCTURE
       1 MOL1            1 RESIDUE      1      MOL     
@<SCITEGIC>MOL_PROPERTY
VM2 Rank
SciTegic.value.IntegerValue
15

@<SCITEGIC>MOL_PROPERTY
Conf_Id
SciTegic.value.IntegerValue
456

@<SCITEGIC>MOL_PROPERTY
Probability
SciTegic.value.DoubleValue
1.23

@<SCITEGIC>MOL_PROPERTY
Sum Probability
SciTegic.value.DoubleValue
32.50

@<SCITEGIC>MOL_PROPERTY
Delta G
SciTegic.value.DoubleValue
0.868

@<SCITEGIC>MOL_PROPERTY
G
SciTegic.value.DoubleValue
59.014

@<SCITEGIC>MOL_PROPERTY
E
SciTegic.value.DoubleValue
21.615

@<SCITEGIC>MOL_PROPERTY
-TS
SciTegic.value.DoubleValue
37.399

@<SCITEGIC>MOL_PROPERTY
U+W
SciTegic.value.DoubleValue
-2.529

@<SCITEGIC>MOL_PROPERTY
U
SciTegic.value.DoubleValue
48.927

@<SCITEGIC>MOL_PROPERTY
W
SciTegic.value.DoubleValue
-51.456

@<SCITEGIC>MOL_PROPERTY
W(PB)
SciTegic.value.DoubleValue
-53.984

@<SCITEGIC>MOL_PROPERTY
W(SA)
SciTegic.value.DoubleValue
2.528

@<SCITEGIC>MOL_PROPERTY
Valence
SciTegic.value.DoubleValue
3.189

@<SCITEGIC>MOL_PROPERTY
Coulomb
SciTegic.value.DoubleValue
44.764

@<SCITEGIC>MOL_PROPERTY
VdW
SciTegic.value.DoubleValue
0.974

@<SCITEGIC>MOL_PROPERTY
VdW6
SciTegic.value.DoubleValue
-8.049

@<SCITEGIC>MOL_PROPERTY
VdW12
SciTegic.value.DoubleValue
9.023

@<SCITEGIC>MOL_PROPERTY
Bond
SciTegic.value.DoubleValue
0.200

@<SCITEGIC>MOL_PROPERTY
Angle
SciTegic.value.DoubleValue
0.679

@<SCITEGIC>MOL_PROPERTY
Pdih
SciTegic.value.DoubleValue
2.310

@<SCITEGIC>MOL_PROPERTY
Idih
SciTegic.value.DoubleValue
0.000

@<SCITEGIC>MOL_PROPERTY
Tether
SciTegic.value.DoubleValue
0.000

@<TRIPOS>MOLECULE
guest-3_vm2.mol2 : vm2 ligand conformer 16
          29          28           1
SMALL
USER_CHARGES
 
@<TRIPOS>ATOM
       1    C1      20.278855   18.584072   19.240829 C.3        1 MOL1        -0.2427
       2    H1      20.905143   19.477749   19.120993 H          1 MOL1         0.0958
       3    H2      20.937009   17.730843   19.450788 H          1 MOL1         0.0958
       4    H3      19.775724   18.394232   18.283816 H          1 MOL1         0.0958
       5    C2      19.245506   18.778512   20.370527 C.3        1 MOL1        -0.1412
       6    H4      18.612782   17.882884   20.444029 H          1 MOL1         0.0947
       7    H5      18.581029   19.616301   20.116604 H          1 MOL1         0.0947
       8    C3      19.928068   19.047776   21.729761 C.3        1 MOL1        -0.1437
       9    H6      20.592919   18.208939   21.978200 H          1 MOL1         0.0947
      10    H7      20.561031   19.942504   21.650872 H          1 MOL1         0.0947
      11    C4      18.896399   19.243042   22.863580 C.3        1 MOL1        -0.1437
      12    H8      18.263831   18.347994   22.941912 H          1 MOL1         0.0947
      13    H9      18.231649   20.081553   22.613721 H          1 MOL1         0.0947
      14    C5      19.579734   19.512869   24.223019 C.3        1 MOL1        -0.1437
      15    H10     20.247812   18.674986   24.462855 H          1 MOL1         0.0947
      16    H11     20.209228   20.410068   24.144798 H          1 MOL1         0.0947
      17    C6      18.544776   19.705995   25.357034 C.3        1 MOL1        -0.1437
      18    H12     17.928787   18.802177   25.455790 H          1 MOL1         0.0947
      19    H13     17.855550   20.516050   25.081168 H          1 MOL1         0.0947
      20    C7      19.192649   20.054051   26.720616 C.3        1 MOL1        -0.1477
      21    H14     19.733535   21.005583   26.631786 H          1 MOL1         0.0947
      22    H15     18.403211   20.219189   27.465817 H          1 MOL1         0.0947
      23    C8      20.165676   18.979340   27.246318 C.3        1 MOL1         0.0145
      24    H16     20.596094   19.312002   28.194766 H          1 MOL1         0.0921
      25    H17     20.982476   18.839141   26.533710 H          1 MOL1         0.0921
      26    N1      19.512338   17.632343   27.483317 N.4        1 MOL1        -0.5969
      27    H18     20.181831   16.941008   27.838677 H          1 MOL1         0.3603
      28    H19     19.113026   17.250446   26.620165 H          1 MOL1         0.3603
      29    H20     18.752104   17.694064   28.168460 H          1 MOL1         0.3603
@<TRIPOS>BOND
    1     1     2    1
    2     1     3    1
    3     1     4    1
    4     1     5    1
    5     5     6    1
    6     5     7    1
    7     5     8    1
    8     8     9    1
    9     8    10    1
   10     8    11    1
   11    11    12    1
   12    11    13    1
   13    11    14    1
   14    14    15    1
   15    14    16    1
   16    14    17    1
   17    17    18    1
   18    17    19    1
   19    17    20    1
   20    20    21    1
   21    20    22    1
   22    20    23    1
   23    23    24    1
   24    23    25    1
   25    23    26    1
   26    26    27    1
   27    26    28    1
   28    26    29    1
@<TRIPOS>SUBSTRUCTURE
       1 MOL1            1 RESIDUE      1      MOL     
@<SCITEGIC>MOL_PROPERTY
VM2 Rank
SciTegic.value.IntegerValue
16

@<SCITEGIC>MOL_PROPERTY
Conf_Id
SciTegic.value.IntegerValue
1579

@<SCITEGIC>MOL_PROPERTY
Probability
SciTegic.value.DoubleValue
1.22

@<SCITEGIC>MOL_PROPERTY
Sum Probability
SciTegic.value.DoubleValue
33.73

@<SCITEGIC>MOL_PROPERTY
Delta G
SciTegic.value.DoubleValue
0.871

@<SCITEGIC>MOL_PROPERTY
G
SciTegic.value.DoubleValue
59.017

@<SCITEGIC>MOL_PROPERTY
E
SciTegic.value.DoubleValue
21.547

@<SCITEGIC>MOL_PROPERTY
-TS
SciTegic.value.DoubleValue
37.470

@<SCITEGIC>MOL_PROPERTY
U+W
SciTegic.value.DoubleValue
-2.598

@<SCITEGIC>MOL_PROPERTY
U
SciTegic.value.DoubleValue
49.111

@<SCITEGIC>MOL_PROPERTY
W
SciTegic.value.DoubleValue
-51.708

@<SCITEGIC>MOL_PROPERTY
W(PB)
SciTegic.value.DoubleValue
-54.237

@<SCITEGIC>MOL_PROPERTY
W(SA)
SciTegic.value.DoubleValue
2.528

@<SCITEGIC>MOL_PROPERTY
Valence
SciTegic.value.DoubleValue
2.969

@<SCITEGIC>MOL_PROPERTY
Coulomb
SciTegic.value.DoubleValue
45.351

@<SCITEGIC>MOL_PROPERTY
VdW
SciTegic.value.DoubleValue
0.791

@<SCITEGIC>MOL_PROPERTY
VdW6
SciTegic.value.DoubleValue
-8.245

@<SCITEGIC>MOL_PROPERTY
VdW12
SciTegic.value.DoubleValue
9.036

@<SCITEGIC>MOL_PROPERTY
Bond
SciTegic.value.DoubleValue
0.191

@<SCITEGIC>MOL_PROPERTY
Angle
SciTegic.value.DoubleValue
0.634

@<SCITEGIC>MOL_PROPERTY
Pdih
SciTegic.value.DoubleValue
2.143

@<SCITEGIC>MOL_PROPERTY
Idih
SciTegic.value.DoubleValue
0.000

@<SCITEGIC>MOL_PROPERTY
Tether
SciTegic.value.DoubleValue
0.000

@<TRIPOS>MOLECULE
guest-3_vm2.mol2 : vm2 ligand conformer 17
          29          28           1
SMALL
USER_CHARGES
 
@<TRIPOS>ATOM
       1    C1      19.643333   17.781314   19.799852 C.3        1 MOL1        -0.2427
       2    H1      19.155078   17.132363   20.537366 H          1 MOL1         0.0958
       3    H2      19.292712   17.473420   18.806272 H          1 MOL1         0.0958
       4    H3      20.725227   17.601030   19.844940 H          1 MOL1         0.0958
       5    C2      19.317422   19.271101   20.050493 C.3        1 MOL1        -0.1412
       6    H4      18.228752   19.419798   20.030232 H          1 MOL1         0.0947
       7    H5      19.724656   19.866814   19.221610 H          1 MOL1         0.0947
       8    C3      19.894818   19.811691   21.380825 C.3        1 MOL1        -0.1437
       9    H6      20.985527   19.679298   21.387966 H          1 MOL1         0.0947
      10    H7      19.714528   20.894685   21.424484 H          1 MOL1         0.0947
      11    C4      19.280010   19.146287   22.635369 C.3        1 MOL1        -0.1437
      12    H8      19.513257   18.073490   22.641462 H          1 MOL1         0.0947
      13    H9      18.185544   19.235483   22.598657 H          1 MOL1         0.0947
      14    C5      19.806545   19.786128   23.939834 C.3        1 MOL1        -0.1437
      15    H10     20.901453   19.699676   23.974389 H          1 MOL1         0.0947
      16    H11     19.571886   20.859604   23.942748 H          1 MOL1         0.0947
      17    C6      19.196423   19.120949   25.194179 C.3        1 MOL1        -0.1437
      18    H12     19.430099   18.047956   25.184285 H          1 MOL1         0.0947
      19    H13     18.101594   19.209593   25.160518 H          1 MOL1         0.0947
      20    C7      19.725155   19.762488   26.498740 C.3        1 MOL1        -0.1477
      21    H14     20.816173   19.651868   26.557376 H          1 MOL1         0.0947
      22    H15     19.519879   20.841178   26.482670 H          1 MOL1         0.0947
      23    C8      19.078587   19.161984   27.761802 C.3        1 MOL1         0.0145
      24    H16     17.991658   19.264847   27.703467 H          1 MOL1         0.0921
      25    H17     19.426357   19.708829   28.642463 H          1 MOL1         0.0921
      26    N1      19.401707   17.696058   27.973907 N.4        1 MOL1        -0.5969
      27    H18     19.068819   17.118022   27.195893 H          1 MOL1         0.3603
      28    H19     18.966873   17.330054   28.828061 H          1 MOL1         0.3603
      29    H20     20.411076   17.537525   28.059666 H          1 MOL1         0.3603
@<TRIPOS>BOND
    1     1     2    1
    2     1     3    1
    3     1     4    1
    4     1     5    1
    5     5     6    1
    6     5     7    1
    7     5     8    1
    8     8     9    1
    9     8    10    1
   10     8    11    1
   11    11    12    1
   12    11    13    1
   13    11    14    1
   14    14    15    1
   15    14    16    1
   16    14    17    1
   17    17    18    1
   18    17    19    1
   19    17    20    1
   20    20    21    1
   21    20    22    1
   22    20    23    1
   23    23    24    1
   24    23    25    1
   25    23    26    1
   26    26    27    1
   27    26    28    1
   28    26    29    1
@<TRIPOS>SUBSTRUCTURE
       1 MOL1            1 RESIDUE      1      MOL     
@<SCITEGIC>MOL_PROPERTY
VM2 Rank
SciTegic.value.IntegerValue
17

@<SCITEGIC>MOL_PROPERTY
Conf_Id
SciTegic.value.IntegerValue
585

@<SCITEGIC>MOL_PROPERTY
Probability
SciTegic.value.DoubleValue
1.20

@<SCITEGIC>MOL_PROPERTY
Sum Probability
SciTegic.value.DoubleValue
34.93

@<SCITEGIC>MOL_PROPERTY
Delta G
SciTegic.value.DoubleValue
0.883

@<SCITEGIC>MOL_PROPERTY
G
SciTegic.value.DoubleValue
59.029

@<SCITEGIC>MOL_PROPERTY
E
SciTegic.value.DoubleValue
21.631

@<SCITEGIC>MOL_PROPERTY
-TS
SciTegic.value.DoubleValue
37.399

@<SCITEGIC>MOL_PROPERTY
U+W
SciTegic.value.DoubleValue
-2.514

@<SCITEGIC>MOL_PROPERTY
U
SciTegic.value.DoubleValue
48.959

@<SCITEGIC>MOL_PROPERTY
W
SciTegic.value.DoubleValue
-51.473

@<SCITEGIC>MOL_PROPERTY
W(PB)
SciTegic.value.DoubleValue
-53.973

@<SCITEGIC>MOL_PROPERTY
W(SA)
SciTegic.value.DoubleValue
2.501

@<SCITEGIC>MOL_PROPERTY
Valence
SciTegic.value.DoubleValue
3.188

@<SCITEGIC>MOL_PROPERTY
Coulomb
SciTegic.value.DoubleValue
44.796

@<SCITEGIC>MOL_PROPERTY
VdW
SciTegic.value.DoubleValue
0.974

@<SCITEGIC>MOL_PROPERTY
VdW6
SciTegic.value.DoubleValue
-8.049

@<SCITEGIC>MOL_PROPERTY
VdW12
SciTegic.value.DoubleValue
9.023

@<SCITEGIC>MOL_PROPERTY
Bond
SciTegic.value.DoubleValue
0.200

@<SCITEGIC>MOL_PROPERTY
Angle
SciTegic.value.DoubleValue
0.679

@<SCITEGIC>MOL_PROPERTY
Pdih
SciTegic.value.DoubleValue
2.310

@<SCITEGIC>MOL_PROPERTY
Idih
SciTegic.value.DoubleValue
0.000

@<SCITEGIC>MOL_PROPERTY
Tether
SciTegic.value.DoubleValue
0.000

@<TRIPOS>MOLECULE
guest-3_vm2.mol2 : vm2 ligand conformer 18
          29          28           1
SMALL
USER_CHARGES
 
@<TRIPOS>ATOM
       1    C1      19.003862   20.085481   19.697093 C.3        1 MOL1        -0.2427
       2    H1      18.345568   20.571935   20.427486 H          1 MOL1         0.0958
       3    H2      19.932219   20.667309   19.628802 H          1 MOL1         0.0958
       4    H3      18.505062   20.133168   18.720436 H          1 MOL1         0.0958
       5    C2      19.295143   18.617928   20.084324 C.3        1 MOL1        -0.1412
       6    H4      19.852911   18.140172   19.266763 H          1 MOL1         0.0947
       7    H5      18.349730   18.065153   20.175750 H          1 MOL1         0.0947
       8    C3      20.112196   18.477195   21.391239 C.3        1 MOL1        -0.1437
       9    H6      20.368048   17.417675   21.529971 H          1 MOL1         0.0947
      10    H7      21.065066   19.014368   21.287744 H          1 MOL1         0.0947
      11    C4      19.360911   18.983850   22.645630 C.3        1 MOL1        -0.1437
      12    H8      18.386105   18.482022   22.716778 H          1 MOL1         0.0947
      13    H9      19.160736   20.059296   22.552315 H          1 MOL1         0.0947
      14    C5      20.168045   18.729823   23.938790 C.3        1 MOL1        -0.1437
      15    H10     20.366825   17.654087   24.042369 H          1 MOL1         0.0947
      16    H11     21.144589   19.228152   23.864635 H          1 MOL1         0.0947
      17    C6      19.421686   19.239141   25.192436 C.3        1 MOL1        -0.1437
      18    H12     18.444682   18.742003   25.258313 H          1 MOL1         0.0947
      19    H13     19.225908   20.315700   25.090765 H          1 MOL1         0.0947
      20    C7      20.230759   18.982880   26.485779 C.3        1 MOL1        -0.1477
      21    H14     20.405328   17.906221   26.613551 H          1 MOL1         0.0947
      22    H15     21.219466   19.452161   26.395185 H          1 MOL1         0.0947
      23    C8      19.537912   19.544338   27.742244 C.3        1 MOL1         0.0145
      24    H16     19.356880   20.615110   27.615465 H          1 MOL1         0.0921
      25    H17     20.191611   19.408915   28.608203 H          1 MOL1         0.0921
      26    N1      18.213485   18.877363   28.057466 N.4        1 MOL1        -0.5969
      27    H18     18.322060   17.869312   28.210308 H          1 MOL1         0.3603
      28    H19     17.537745   18.997780   27.296461 H          1 MOL1         0.3603
      29    H20     17.784247   19.264811   28.904966 H          1 MOL1         0.3603
@<TRIPOS>BOND
    1     1     2    1
    2     1     3    1
    3     1     4    1
    4     1     5    1
    5     5     6    1
    6     5     7    1
    7     5     8    1
    8     8     9    1
    9     8    10    1
   10     8    11    1
   11    11    12    1
   12    11    13    1
   13    11    14    1
   14    14    15    1
   15    14    16    1
   16    14    17    1
   17    17    18    1
   18    17    19    1
   19    17    20    1
   20    20    21    1
   21    20    22    1
   22    20    23    1
   23    23    24    1
   24    23    25    1
   25    23    26    1
   26    26    27    1
   27    26    28    1
   28    26    29    1
@<TRIPOS>SUBSTRUCTURE
       1 MOL1            1 RESIDUE      1      MOL     
@<SCITEGIC>MOL_PROPERTY
VM2 Rank
SciTegic.value.IntegerValue
18

@<SCITEGIC>MOL_PROPERTY
Conf_Id
SciTegic.value.IntegerValue
1033

@<SCITEGIC>MOL_PROPERTY
Probability
SciTegic.value.DoubleValue
1.11

@<SCITEGIC>MOL_PROPERTY
Sum Probability
SciTegic.value.DoubleValue
36.04

@<SCITEGIC>MOL_PROPERTY
Delta G
SciTegic.value.DoubleValue
0.930

@<SCITEGIC>MOL_PROPERTY
G
SciTegic.value.DoubleValue
59.076

@<SCITEGIC>MOL_PROPERTY
E
SciTegic.value.DoubleValue
21.677

@<SCITEGIC>MOL_PROPERTY
-TS
SciTegic.value.DoubleValue
37.399

@<SCITEGIC>MOL_PROPERTY
U+W
SciTegic.value.DoubleValue
-2.468

@<SCITEGIC>MOL_PROPERTY
U
SciTegic.value.DoubleValue
48.927

@<SCITEGIC>MOL_PROPERTY
W
SciTegic.value.DoubleValue
-51.395

@<SCITEGIC>MOL_PROPERTY
W(PB)
SciTegic.value.DoubleValue
-53.928

@<SCITEGIC>MOL_PROPERTY
W(SA)
SciTegic.value.DoubleValue
2.534

@<SCITEGIC>MOL_PROPERTY
Valence
SciTegic.value.DoubleValue
3.189

@<SCITEGIC>MOL_PROPERTY
Coulomb
SciTegic.value.DoubleValue
44.764

@<SCITEGIC>MOL_PROPERTY
VdW
SciTegic.value.DoubleValue
0.974

@<SCITEGIC>MOL_PROPERTY
VdW6
SciTegic.value.DoubleValue
-8.049

@<SCITEGIC>MOL_PROPERTY
VdW12
SciTegic.value.DoubleValue
9.023

@<SCITEGIC>MOL_PROPERTY
Bond
SciTegic.value.DoubleValue
0.200

@<SCITEGIC>MOL_PROPERTY
Angle
SciTegic.value.DoubleValue
0.679

@<SCITEGIC>MOL_PROPERTY
Pdih
SciTegic.value.DoubleValue
2.310

@<SCITEGIC>MOL_PROPERTY
Idih
SciTegic.value.DoubleValue
0.000

@<SCITEGIC>MOL_PROPERTY
Tether
SciTegic.value.DoubleValue
0.000

@<TRIPOS>MOLECULE
guest-3_vm2.mol2 : vm2 ligand conformer 19
          29          28           1
SMALL
USER_CHARGES
 
@<TRIPOS>ATOM
       1    C1      20.472765   20.111092   19.851747 C.3        1 MOL1        -0.2427
       2    H1      20.494054   20.892703   20.621220 H          1 MOL1         0.0958
       3    H2      21.424522   19.565348   19.888535 H          1 MOL1         0.0958
       4    H3      20.409438   20.610338   18.876207 H          1 MOL1         0.0958
       5    C2      19.275449   19.153769   20.047886 C.3        1 MOL1        -0.1412
       6    H4      19.226290   18.468181   19.190382 H          1 MOL1         0.0947
       7    H5      18.338046   19.727256   20.037244 H          1 MOL1         0.0947
       8    C3      19.362820   18.317760   21.347449 C.3        1 MOL1        -0.1437
       9    H6      18.538341   17.591459   21.350736 H          1 MOL1         0.0947
      10    H7      20.291748   17.730982   21.344364 H          1 MOL1         0.0947
      11    C4      19.288991   19.171540   22.635951 C.3        1 MOL1        -0.1437
      12    H8      18.384768   19.795185   22.611311 H          1 MOL1         0.0947
      13    H9      20.147288   19.854634   22.681164 H          1 MOL1         0.0947
      14    C5      19.274799   18.291836   23.906458 C.3        1 MOL1        -0.1437
      15    H10     18.414949   17.608635   23.870153 H          1 MOL1         0.0947
      16    H11     20.177742   17.665991   23.928909 H          1 MOL1         0.0947
      17    C6      19.204200   19.142461   25.194691 C.3        1 MOL1        -0.1437
      18    H12     18.299868   19.766447   25.173075 H          1 MOL1         0.0947
      19    H13     20.063026   19.826257   25.223996 H          1 MOL1         0.0947
      20    C7      19.190742   18.260036   26.465187 C.3        1 MOL1        -0.1477
      21    H14     18.350808   17.554805   26.409229 H          1 MOL1         0.0947
      22    H15     20.105726   17.654612   26.512775 H          1 MOL1         0.0947
      23    C8      19.050644   19.083220   27.760072 C.3        1 MOL1         0.0145
      24    H16     18.962700   18.405195   28.613357 H          1 MOL1         0.0921
      25    H17     18.143683   19.691995   27.713051 H          1 MOL1         0.0921
      26    N1      20.223589   20.006286   28.025560 N.4        1 MOL1        -0.5969
      27    H18     20.341291   20.695018   27.275866 H          1 MOL1         0.3603
      28    H19     21.105173   19.488516   28.103259 H          1 MOL1         0.3603
      29    H20     20.105406   20.530379   28.899619 H          1 MOL1         0.3603
@<TRIPOS>BOND
    1     1     2    1
    2     1     3    1
    3     1     4    1
    4     1     5    1
    5     5     6    1
    6     5     7    1
    7     5     8    1
    8     8     9    1
    9     8    10    1
   10     8    11    1
   11    11    12    1
   12    11    13    1
   13    11    14    1
   14    14    15    1
   15    14    16    1
   16    14    17    1
   17    17    18    1
   18    17    19    1
   19    17    20    1
   20    20    21    1
   21    20    22    1
   22    20    23    1
   23    23    24    1
   24    23    25    1
   25    23    26    1
   26    26    27    1
   27    26    28    1
   28    26    29    1
@<TRIPOS>SUBSTRUCTURE
       1 MOL1            1 RESIDUE      1      MOL     
@<SCITEGIC>MOL_PROPERTY
VM2 Rank
SciTegic.value.IntegerValue
19

@<SCITEGIC>MOL_PROPERTY
Conf_Id
SciTegic.value.IntegerValue
1687

@<SCITEGIC>MOL_PROPERTY
Probability
SciTegic.value.DoubleValue
1.11

@<SCITEGIC>MOL_PROPERTY
Sum Probability
SciTegic.value.DoubleValue
37.14

@<SCITEGIC>MOL_PROPERTY
Delta G
SciTegic.value.DoubleValue
0.930

@<SCITEGIC>MOL_PROPERTY
G
SciTegic.value.DoubleValue
59.077

@<SCITEGIC>MOL_PROPERTY
E
SciTegic.value.DoubleValue
21.678

@<SCITEGIC>MOL_PROPERTY
-TS
SciTegic.value.DoubleValue
37.399

@<SCITEGIC>MOL_PROPERTY
U+W
SciTegic.value.DoubleValue
-2.467

@<SCITEGIC>MOL_PROPERTY
U
SciTegic.value.DoubleValue
48.959

@<SCITEGIC>MOL_PROPERTY
W
SciTegic.value.DoubleValue
-51.426

@<SCITEGIC>MOL_PROPERTY
W(PB)
SciTegic.value.DoubleValue
-53.952

@<SCITEGIC>MOL_PROPERTY
W(SA)
SciTegic.value.DoubleValue
2.526

@<SCITEGIC>MOL_PROPERTY
Valence
SciTegic.value.DoubleValue
3.189

@<SCITEGIC>MOL_PROPERTY
Coulomb
SciTegic.value.DoubleValue
44.796

@<SCITEGIC>MOL_PROPERTY
VdW
SciTegic.value.DoubleValue
0.974

@<SCITEGIC>MOL_PROPERTY
VdW6
SciTegic.value.DoubleValue
-8.049

@<SCITEGIC>MOL_PROPERTY
VdW12
SciTegic.value.DoubleValue
9.023

@<SCITEGIC>MOL_PROPERTY
Bond
SciTegic.value.DoubleValue
0.200

@<SCITEGIC>MOL_PROPERTY
Angle
SciTegic.value.DoubleValue
0.679

@<SCITEGIC>MOL_PROPERTY
Pdih
SciTegic.value.DoubleValue
2.310

@<SCITEGIC>MOL_PROPERTY
Idih
SciTegic.value.DoubleValue
0.000

@<SCITEGIC>MOL_PROPERTY
Tether
SciTegic.value.DoubleValue
0.000

@<TRIPOS>MOLECULE
guest-3_vm2.mol2 : vm2 ligand conformer 20
          29          28           1
SMALL
USER_CHARGES
 
@<TRIPOS>ATOM
       1    C1      19.337757   19.395583   19.104686 C.3        1 MOL1        -0.2427
       2    H1      18.580542   19.813463   18.428632 H          1 MOL1         0.0958
       3    H2      20.264128   19.968864   18.968896 H          1 MOL1         0.0958
       4    H3      19.528847   18.359091   18.797405 H          1 MOL1         0.0958
       5    C2      18.855527   19.459823   20.569316 C.3        1 MOL1        -0.1412
       6    H4      17.911026   18.906378   20.666821 H          1 MOL1         0.0947
       7    H5      18.640447   20.503890   20.836797 H          1 MOL1         0.0947
       8    C3      19.904052   18.877350   21.542631 C.3        1 MOL1        -0.1437
       9    H6      20.117694   17.834781   21.269162 H          1 MOL1         0.0947
      10    H7      20.846871   19.432408   21.440580 H          1 MOL1         0.0947
      11    C4      19.424604   18.939475   23.010425 C.3        1 MOL1        -0.1437
      12    H8      18.483954   18.380924   23.112420 H          1 MOL1         0.0947
      13    H9      19.206978   19.983132   23.272397 H          1 MOL1         0.0947
      14    C5      20.478903   18.359037   23.983273 C.3        1 MOL1        -0.1437
      15    H10     20.739793   17.341047   23.662338 H          1 MOL1         0.0947
      16    H11     21.404298   18.948250   23.921880 H          1 MOL1         0.0947
      17    C6      19.997250   18.301141   25.453608 C.3        1 MOL1        -0.1437
      18    H12     20.758496   17.778166   26.049061 H          1 MOL1         0.0947
      19    H13     19.085410   17.691900   25.512420 H          1 MOL1         0.0947
      20    C7      19.744702   19.697317   26.075297 C.3        1 MOL1        -0.1477
      21    H14     20.632256   20.327073   25.928924 H          1 MOL1         0.0947
      22    H15     18.913376   20.200258   25.565399 H          1 MOL1         0.0947
      23    C8      19.440442   19.625982   27.583918 C.3        1 MOL1         0.0145
      24    H16     19.347540   20.639243   27.984171 H          1 MOL1         0.0921
      25    H17     20.264275   19.128278   28.102543 H          1 MOL1         0.0921
      26    N1      18.160763   18.882290   27.911846 N.4        1 MOL1        -0.5969
      27    H18     18.195553   17.909348   27.591769 H          1 MOL1         0.3603
      28    H19     17.343951   19.317847   27.471022 H          1 MOL1         0.3603
      29    H20     17.981058   18.860589   28.921706 H          1 MOL1         0.3603
@<TRIPOS>BOND
    1     1     2    1
    2     1     3    1
    3     1     4    1
    4     1     5    1
    5     5     6    1
    6     5     7    1
    7     5     8    1
    8     8     9    1
    9     8    10    1
   10     8    11    1
   11    11    12    1
   12    11    13    1
   13    11    14    1
   14    14    15    1
   15    14    16    1
   16    14    17    1
   17    17    18    1
   18    17    19    1
   19    17    20    1
   20    20    21    1
   21    20    22    1
   22    20    23    1
   23    23    24    1
   24    23    25    1
   25    23    26    1
   26    26    27    1
   27    26    28    1
   28    26    29    1
@<TRIPOS>SUBSTRUCTURE
       1 MOL1            1 RESIDUE      1      MOL     
@<SCITEGIC>MOL_PROPERTY
VM2 Rank
SciTegic.value.IntegerValue
20

@<SCITEGIC>MOL_PROPERTY
Conf_Id
SciTegic.value.IntegerValue
2888

@<SCITEGIC>MOL_PROPERTY
Probability
SciTegic.value.DoubleValue
1.11

@<SCITEGIC>MOL_PROPERTY
Sum Probability
SciTegic.value.DoubleValue
38.25

@<SCITEGIC>MOL_PROPERTY
Delta G
SciTegic.value.DoubleValue
0.932

@<SCITEGIC>MOL_PROPERTY
G
SciTegic.value.DoubleValue
59.078

@<SCITEGIC>MOL_PROPERTY
E
SciTegic.value.DoubleValue
21.678

@<SCITEGIC>MOL_PROPERTY
-TS
SciTegic.value.DoubleValue
37.400

@<SCITEGIC>MOL_PROPERTY
U+W
SciTegic.value.DoubleValue
-2.466

@<SCITEGIC>MOL_PROPERTY
U
SciTegic.value.DoubleValue
49.184

@<SCITEGIC>MOL_PROPERTY
W
SciTegic.value.DoubleValue
-51.651

@<SCITEGIC>MOL_PROPERTY
W(PB)
SciTegic.value.DoubleValue
-54.196

@<SCITEGIC>MOL_PROPERTY
W(SA)
SciTegic.value.DoubleValue
2.546

@<SCITEGIC>MOL_PROPERTY
Valence
SciTegic.value.DoubleValue
3.217

@<SCITEGIC>MOL_PROPERTY
Coulomb
SciTegic.value.DoubleValue
45.039

@<SCITEGIC>MOL_PROPERTY
VdW
SciTegic.value.DoubleValue
0.928

@<SCITEGIC>MOL_PROPERTY
VdW6
SciTegic.value.DoubleValue
-8.123

@<SCITEGIC>MOL_PROPERTY
VdW12
SciTegic.value.DoubleValue
9.050

@<SCITEGIC>MOL_PROPERTY
Bond
SciTegic.value.DoubleValue
0.205

@<SCITEGIC>MOL_PROPERTY
Angle
SciTegic.value.DoubleValue
0.676

@<SCITEGIC>MOL_PROPERTY
Pdih
SciTegic.value.DoubleValue
2.337

@<SCITEGIC>MOL_PROPERTY
Idih
SciTegic.value.DoubleValue
0.000

@<SCITEGIC>MOL_PROPERTY
Tether
SciTegic.value.DoubleValue
0.000

@<TRIPOS>MOLECULE
guest-3_vm2.mol2 : vm2 ligand conformer 21
          29          28           1
SMALL
USER_CHARGES
 
@<TRIPOS>ATOM
       1    C1      19.226159   19.082187   19.097666 C.3        1 MOL1        -0.2427
       2    H1      19.583940   18.058561   18.926091 H          1 MOL1         0.0958
       3    H2      18.384836   19.263884   18.416338 H          1 MOL1         0.0958
       4    H3      20.033374   19.776125   18.829137 H          1 MOL1         0.0958
       5    C2      18.791113   19.278874   20.565271 C.3        1 MOL1        -0.1412
       6    H4      17.961082   18.595811   20.794086 H          1 MOL1         0.0947
       7    H5      18.407293   20.300119   20.698049 H          1 MOL1         0.0947
       8    C3      19.958003   19.028783   21.546008 C.3        1 MOL1        -0.1437
       9    H6      20.339553   18.007523   21.408676 H          1 MOL1         0.0947
      10    H7      20.786064   19.711817   21.311150 H          1 MOL1         0.0947
      11    C4      19.526417   19.225287   23.016813 C.3        1 MOL1        -0.1437
      12    H8      18.694731   18.544398   23.240197 H          1 MOL1         0.0947
      13    H9      19.148776   20.247891   23.154200 H          1 MOL1         0.0947
      14    C5      20.696491   18.969965   23.996927 C.3        1 MOL1        -0.1437
      15    H10     21.042259   17.931606   23.899192 H          1 MOL1         0.0947
      16    H11     21.546389   19.605879   23.712929 H          1 MOL1         0.0947
      17    C6      20.339045   19.260850   25.475048 C.3        1 MOL1        -0.1437
      18    H12     20.016666   20.306309   25.570839 H          1 MOL1         0.0947
      19    H13     21.250985   19.160936   26.079983 H          1 MOL1         0.0947
      20    C7      19.252214   18.315188   26.044356 C.3        1 MOL1        -0.1477
      21    H14     18.297398   18.471606   25.526758 H          1 MOL1         0.0947
      22    H15     19.543971   17.272668   25.860507 H          1 MOL1         0.0947
      23    C8      19.040286   18.502753   27.558787 C.3        1 MOL1         0.0145
      24    H16     19.985845   18.346585   28.085008 H          1 MOL1         0.0921
      25    H17     18.322203   17.761417   27.919773 H          1 MOL1         0.0921
      26    N1      18.514273   19.874112   27.934124 N.4        1 MOL1        -0.5969
      27    H18     19.160734   20.617782   27.652488 H          1 MOL1         0.3603
      28    H19     18.374492   19.964357   28.946497 H          1 MOL1         0.3603
      29    H20     17.612352   20.070862   27.487979 H          1 MOL1         0.3603
@<TRIPOS>BOND
    1     1     2    1
    2     1     3    1
    3     1     4    1
    4     1     5    1
    5     5     6    1
    6     5     7    1
    7     5     8    1
    8     8     9    1
    9     8    10    1
   10     8    11    1
   11    11    12    1
   12    11    13    1
   13    11    14    1
   14    14    15    1
   15    14    16    1
   16    14    17    1
   17    17    18    1
   18    17    19    1
   19    17    20    1
   20    20    21    1
   21    20    22    1
   22    20    23    1
   23    23    24    1
   24    23    25    1
   25    23    26    1
   26    26    27    1
   27    26    28    1
   28    26    29    1
@<TRIPOS>SUBSTRUCTURE
       1 MOL1            1 RESIDUE      1      MOL     
@<SCITEGIC>MOL_PROPERTY
VM2 Rank
SciTegic.value.IntegerValue
21

@<SCITEGIC>MOL_PROPERTY
Conf_Id
SciTegic.value.IntegerValue
2538

@<SCITEGIC>MOL_PROPERTY
Probability
SciTegic.value.DoubleValue
1.08

@<SCITEGIC>MOL_PROPERTY
Sum Probability
SciTegic.value.DoubleValue
39.33

@<SCITEGIC>MOL_PROPERTY
Delta G
SciTegic.value.DoubleValue
0.949

@<SCITEGIC>MOL_PROPERTY
G
SciTegic.value.DoubleValue
59.095

@<SCITEGIC>MOL_PROPERTY
E
SciTegic.value.DoubleValue
21.695

@<SCITEGIC>MOL_PROPERTY
-TS
SciTegic.value.DoubleValue
37.400

@<SCITEGIC>MOL_PROPERTY
U+W
SciTegic.value.DoubleValue
-2.450

@<SCITEGIC>MOL_PROPERTY
U
SciTegic.value.DoubleValue
49.184

@<SCITEGIC>MOL_PROPERTY
W
SciTegic.value.DoubleValue
-51.634

@<SCITEGIC>MOL_PROPERTY
W(PB)
SciTegic.value.DoubleValue
-54.178

@<SCITEGIC>MOL_PROPERTY
W(SA)
SciTegic.value.DoubleValue
2.544

@<SCITEGIC>MOL_PROPERTY
Valence
SciTegic.value.DoubleValue
3.217

@<SCITEGIC>MOL_PROPERTY
Coulomb
SciTegic.value.DoubleValue
45.039

@<SCITEGIC>MOL_PROPERTY
VdW
SciTegic.value.DoubleValue
0.928

@<SCITEGIC>MOL_PROPERTY
VdW6
SciTegic.value.DoubleValue
-8.123

@<SCITEGIC>MOL_PROPERTY
VdW12
SciTegic.value.DoubleValue
9.051

@<SCITEGIC>MOL_PROPERTY
Bond
SciTegic.value.DoubleValue
0.205

@<SCITEGIC>MOL_PROPERTY
Angle
SciTegic.value.DoubleValue
0.676

@<SCITEGIC>MOL_PROPERTY
Pdih
SciTegic.value.DoubleValue
2.337

@<SCITEGIC>MOL_PROPERTY
Idih
SciTegic.value.DoubleValue
0.000

@<SCITEGIC>MOL_PROPERTY
Tether
SciTegic.value.DoubleValue
0.000

@<TRIPOS>MOLECULE
guest-3_vm2.mol2 : vm2 ligand conformer 22
          29          28           1
SMALL
USER_CHARGES
 
@<TRIPOS>ATOM
       1    C1      20.408760   19.116151   19.296026 C.3        1 MOL1        -0.2427
       2    H1      20.321408   18.038551   19.105243 H          1 MOL1         0.0958
       3    H2      19.665878   19.634646   18.675926 H          1 MOL1         0.0958
       4    H3      21.405483   19.437212   18.966628 H          1 MOL1         0.0958
       5    C2      20.201227   19.432576   20.792290 C.3        1 MOL1        -0.1412
       6    H4      20.323334   20.512285   20.956566 H          1 MOL1         0.0947
       7    H5      20.985464   18.930658   21.374252 H          1 MOL1         0.0947
       8    C3      18.803512   18.984579   21.280823 C.3        1 MOL1        -0.1437
       9    H6      18.038255   19.435588   20.634080 H          1 MOL1         0.0947
      10    H7      18.701955   17.896624   21.165673 H          1 MOL1         0.0947
      11    C4      18.502319   19.381762   22.746821 C.3        1 MOL1        -0.1437
      12    H8      17.455000   19.131993   22.966024 H          1 MOL1         0.0947
      13    H9      18.589257   20.471449   22.857588 H          1 MOL1         0.0947
      14    C5      19.414802   18.676833   23.779034 C.3        1 MOL1        -0.1437
      15    H10     19.367412   17.589541   23.628024 H          1 MOL1         0.0947
      16    H11     20.459303   18.976262   23.622312 H          1 MOL1         0.0947
      17    C6      19.005541   19.014805   25.230404 C.3        1 MOL1        -0.1437
      18    H12     17.963592   18.708951   25.398977 H          1 MOL1         0.0947
      19    H13     19.045755   20.102973   25.372916 H          1 MOL1         0.0947
      20    C7      19.920544   18.314615   26.262685 C.3        1 MOL1        -0.1477
      21    H14     19.902965   17.230593   26.087866 H          1 MOL1         0.0947
      22    H15     20.960920   18.637675   26.123976 H          1 MOL1         0.0947
      23    C8      19.488951   18.580872   27.717601 C.3        1 MOL1         0.0145
      24    H16     20.117302   17.996477   28.395245 H          1 MOL1         0.0921
      25    H17     18.451358   18.265818   27.857377 H          1 MOL1         0.0921
      26    N1      19.598345   20.035809   28.129316 N.4        1 MOL1        -0.5969
      27    H18     20.558437   20.384855   28.041612 H          1 MOL1         0.3603
      28    H19     19.315494   20.177625   29.105277 H          1 MOL1         0.3603
      29    H20     19.002542   20.638630   27.553225 H          1 MOL1         0.3603
@<TRIPOS>BOND
    1     1     2    1
    2     1     3    1
    3     1     4    1
    4     1     5    1
    5     5     6    1
    6     5     7    1
    7     5     8    1
    8     8     9    1
    9     8    10    1
   10     8    11    1
   11    11    12    1
   12    11    13    1
   13    11    14    1
   14    14    15    1
   15    14    16    1
   16    14    17    1
   17    17    18    1
   18    17    19    1
   19    17    20    1
   20    20    21    1
   21    20    22    1
   22    20    23    1
   23    23    24    1
   24    23    25    1
   25    23    26    1
   26    26    27    1
   27    26    28    1
   28    26    29    1
@<TRIPOS>SUBSTRUCTURE
       1 MOL1            1 RESIDUE      1      MOL     
@<SCITEGIC>MOL_PROPERTY
VM2 Rank
SciTegic.value.IntegerValue
22

@<SCITEGIC>MOL_PROPERTY
Conf_Id
SciTegic.value.IntegerValue
1322

@<SCITEGIC>MOL_PROPERTY
Probability
SciTegic.value.DoubleValue
1.05

@<SCITEGIC>MOL_PROPERTY
Sum Probability
SciTegic.value.DoubleValue
40.37

@<SCITEGIC>MOL_PROPERTY
Delta G
SciTegic.value.DoubleValue
0.965

@<SCITEGIC>MOL_PROPERTY
G
SciTegic.value.DoubleValue
59.111

@<SCITEGIC>MOL_PROPERTY
E
SciTegic.value.DoubleValue
21.723

@<SCITEGIC>MOL_PROPERTY
-TS
SciTegic.value.DoubleValue
37.388

@<SCITEGIC>MOL_PROPERTY
U+W
SciTegic.value.DoubleValue
-2.421

@<SCITEGIC>MOL_PROPERTY
U
SciTegic.value.DoubleValue
49.093

@<SCITEGIC>MOL_PROPERTY
W
SciTegic.value.DoubleValue
-51.514

@<SCITEGIC>MOL_PROPERTY
W(PB)
SciTegic.value.DoubleValue
-54.035

@<SCITEGIC>MOL_PROPERTY
W(SA)
SciTegic.value.DoubleValue
2.521

@<SCITEGIC>MOL_PROPERTY
Valence
SciTegic.value.DoubleValue
3.228

@<SCITEGIC>MOL_PROPERTY
Coulomb
SciTegic.value.DoubleValue
44.904

@<SCITEGIC>MOL_PROPERTY
VdW
SciTegic.value.DoubleValue
0.962

@<SCITEGIC>MOL_PROPERTY
VdW6
SciTegic.value.DoubleValue
-8.094

@<SCITEGIC>MOL_PROPERTY
VdW12
SciTegic.value.DoubleValue
9.056

@<SCITEGIC>MOL_PROPERTY
Bond
SciTegic.value.DoubleValue
0.203

@<SCITEGIC>MOL_PROPERTY
Angle
SciTegic.value.DoubleValue
0.702

@<SCITEGIC>MOL_PROPERTY
Pdih
SciTegic.value.DoubleValue
2.322

@<SCITEGIC>MOL_PROPERTY
Idih
SciTegic.value.DoubleValue
0.000

@<SCITEGIC>MOL_PROPERTY
Tether
SciTegic.value.DoubleValue
0.000

@<TRIPOS>MOLECULE
guest-3_vm2.mol2 : vm2 ligand conformer 23
          29          28           1
SMALL
USER_CHARGES
 
@<TRIPOS>ATOM
       1    C1      20.084271   19.512020   19.224297 C.3        1 MOL1        -0.2427
       2    H1      19.399585   18.912048   18.610722 H          1 MOL1         0.0958
       3    H2      20.169786   20.503813   18.761614 H          1 MOL1         0.0958
       4    H3      21.074557   19.039104   19.193720 H          1 MOL1         0.0958
       5    C2      19.571121   19.630002   20.675077 C.3        1 MOL1        -0.1412
       6    H4      18.593739   20.132388   20.675949 H          1 MOL1         0.0947
       7    H5      20.258702   20.268902   21.244869 H          1 MOL1         0.0947
       8    C3      19.446496   18.243582   21.349824 C.3        1 MOL1        -0.1437
       9    H6      18.819401   17.596251   20.721320 H          1 MOL1         0.0947
      10    H7      20.434053   17.764262   21.396725 H          1 MOL1         0.0947
      11    C4      18.827799   18.297570   22.768252 C.3        1 MOL1        -0.1437
      12    H8      18.668246   17.267814   23.116720 H          1 MOL1         0.0947
      13    H9      17.834102   18.763760   22.718324 H          1 MOL1         0.0947
      14    C5      19.705903   19.047686   23.798448 C.3        1 MOL1        -0.1437
      15    H10     20.715065   18.613159   23.805894 H          1 MOL1         0.0947
      16    H11     19.812898   20.099798   23.503875 H          1 MOL1         0.0947
      17    C6      19.104940   18.979865   25.220586 C.3        1 MOL1        -0.1437
      18    H12     18.998509   17.928352   25.518881 H          1 MOL1         0.0947
      19    H13     18.095151   19.413365   25.212809 H          1 MOL1         0.0947
      20    C7      19.980565   19.732202   26.250344 C.3        1 MOL1        -0.1477
      21    H14     20.983745   19.287003   26.288092 H          1 MOL1         0.0947
      22    H15     20.111508   20.772907   25.925150 H          1 MOL1         0.0947
      23    C8      19.366264   19.736750   27.663346 C.3        1 MOL1         0.0145
      24    H16     18.364615   20.173606   27.627965 H          1 MOL1         0.0921
      25    H17     19.983154   20.350652   28.325250 H          1 MOL1         0.0921
      26    N1      19.256640   18.358322   28.284826 N.4        1 MOL1        -0.5969
      27    H18     18.658754   17.738472   27.729332 H          1 MOL1         0.3603
      28    H19     18.855581   18.396854   29.228371 H          1 MOL1         0.3603
      29    H20     20.172148   17.903910   28.366457 H          1 MOL1         0.3603
@<TRIPOS>BOND
    1     1     2    1
    2     1     3    1
    3     1     4    1
    4     1     5    1
    5     5     6    1
    6     5     7    1
    7     5     8    1
    8     8     9    1
    9     8    10    1
   10     8    11    1
   11    11    12    1
   12    11    13    1
   13    11    14    1
   14    14    15    1
   15    14    16    1
   16    14    17    1
   17    17    18    1
   18    17    19    1
   19    17    20    1
   20    20    21    1
   21    20    22    1
   22    20    23    1
   23    23    24    1
   24    23    25    1
   25    23    26    1
   26    26    27    1
   27    26    28    1
   28    26    29    1
@<TRIPOS>SUBSTRUCTURE
       1 MOL1            1 RESIDUE      1      MOL     
@<SCITEGIC>MOL_PROPERTY
VM2 Rank
SciTegic.value.IntegerValue
23

@<SCITEGIC>MOL_PROPERTY
Conf_Id
SciTegic.value.IntegerValue
1242

@<SCITEGIC>MOL_PROPERTY
Probability
SciTegic.value.DoubleValue
1.05

@<SCITEGIC>MOL_PROPERTY
Sum Probability
SciTegic.value.DoubleValue
41.42

@<SCITEGIC>MOL_PROPERTY
Delta G
SciTegic.value.DoubleValue
0.965

@<SCITEGIC>MOL_PROPERTY
G
SciTegic.value.DoubleValue
59.111

@<SCITEGIC>MOL_PROPERTY
E
SciTegic.value.DoubleValue
21.724

@<SCITEGIC>MOL_PROPERTY
-TS
SciTegic.value.DoubleValue
37.387

@<SCITEGIC>MOL_PROPERTY
U+W
SciTegic.value.DoubleValue
-2.421

@<SCITEGIC>MOL_PROPERTY
U
SciTegic.value.DoubleValue
49.031

@<SCITEGIC>MOL_PROPERTY
W
SciTegic.value.DoubleValue
-51.452

@<SCITEGIC>MOL_PROPERTY
W(PB)
SciTegic.value.DoubleValue
-53.972

@<SCITEGIC>MOL_PROPERTY
W(SA)
SciTegic.value.DoubleValue
2.520

@<SCITEGIC>MOL_PROPERTY
Valence
SciTegic.value.DoubleValue
3.227

@<SCITEGIC>MOL_PROPERTY
Coulomb
SciTegic.value.DoubleValue
44.840

@<SCITEGIC>MOL_PROPERTY
VdW
SciTegic.value.DoubleValue
0.965

@<SCITEGIC>MOL_PROPERTY
VdW6
SciTegic.value.DoubleValue
-8.093

@<SCITEGIC>MOL_PROPERTY
VdW12
SciTegic.value.DoubleValue
9.058

@<SCITEGIC>MOL_PROPERTY
Bond
SciTegic.value.DoubleValue
0.204

@<SCITEGIC>MOL_PROPERTY
Angle
SciTegic.value.DoubleValue
0.702

@<SCITEGIC>MOL_PROPERTY
Pdih
SciTegic.value.DoubleValue
2.321

@<SCITEGIC>MOL_PROPERTY
Idih
SciTegic.value.DoubleValue
0.000

@<SCITEGIC>MOL_PROPERTY
Tether
SciTegic.value.DoubleValue
0.000

@<TRIPOS>MOLECULE
guest-3_vm2.mol2 : vm2 ligand conformer 24
          29          28           1
SMALL
USER_CHARGES
 
@<TRIPOS>ATOM
       1    C1      20.919631   19.421143   19.699691 C.3        1 MOL1        -0.2427
       2    H1      20.857732   19.885367   18.706862 H          1 MOL1         0.0958
       3    H2      21.741474   19.902088   20.246043 H          1 MOL1         0.0958
       4    H3      21.174309   18.362239   19.561445 H          1 MOL1         0.0958
       5    C2      19.584177   19.575841   20.457686 C.3        1 MOL1        -0.1412
       6    H4      18.776866   19.115925   19.870662 H          1 MOL1         0.0947
       7    H5      19.339624   20.643202   20.551663 H          1 MOL1         0.0947
       8    C3      19.643969   18.929612   21.859440 C.3        1 MOL1        -0.1437
       9    H6      19.886451   17.862579   21.760315 H          1 MOL1         0.0947
      10    H7      20.459522   19.391053   22.431304 H          1 MOL1         0.0947
      11    C4      18.306640   19.087999   22.622017 C.3        1 MOL1        -0.1437
      12    H8      17.491884   18.691303   22.000624 H          1 MOL1         0.0947
      13    H9      18.089063   20.154573   22.771424 H          1 MOL1         0.0947
      14    C5      18.281318   18.357326   23.986983 C.3        1 MOL1        -0.1437
      15    H10     17.264887   18.425818   24.398749 H          1 MOL1         0.0947
      16    H11     18.480964   17.287612   23.834818 H          1 MOL1         0.0947
      17    C6      19.281671   18.934740   25.016955 C.3        1 MOL1        -0.1437
      18    H12     19.114883   20.015520   25.116444 H          1 MOL1         0.0947
      19    H13     20.310103   18.800271   24.656876 H          1 MOL1         0.0947
      20    C7      19.138430   18.251371   26.397388 C.3        1 MOL1        -0.1477
      21    H14     18.125555   18.407432   26.791981 H          1 MOL1         0.0947
      22    H15     19.265894   17.166862   26.280854 H          1 MOL1         0.0947
      23    C8      20.172499   18.756809   27.421701 C.3        1 MOL1         0.0145
      24    H16     21.182237   18.607982   27.029695 H          1 MOL1         0.0921
      25    H17     20.077495   18.182140   28.347050 H          1 MOL1         0.0921
      26    N1      20.015663   20.223159   27.773139 N.4        1 MOL1        -0.5969
      27    H18     20.129258   20.824297   26.950975 H          1 MOL1         0.3603
      28    H19     20.710323   20.525261   28.465082 H          1 MOL1         0.3603
      29    H20     19.091289   20.422482   28.169512 H          1 MOL1         0.3603
@<TRIPOS>BOND
    1     1     2    1
    2     1     3    1
    3     1     4    1
    4     1     5    1
    5     5     6    1
    6     5     7    1
    7     5     8    1
    8     8     9    1
    9     8    10    1
   10     8    11    1
   11    11    12    1
   12    11    13    1
   13    11    14    1
   14    14    15    1
   15    14    16    1
   16    14    17    1
   17    17    18    1
   18    17    19    1
   19    17    20    1
   20    20    21    1
   21    20    22    1
   22    20    23    1
   23    23    24    1
   24    23    25    1
   25    23    26    1
   26    26    27    1
   27    26    28    1
   28    26    29    1
@<TRIPOS>SUBSTRUCTURE
       1 MOL1            1 RESIDUE      1      MOL     
@<SCITEGIC>MOL_PROPERTY
VM2 Rank
SciTegic.value.IntegerValue
24

@<SCITEGIC>MOL_PROPERTY
Conf_Id
SciTegic.value.IntegerValue
1049

@<SCITEGIC>MOL_PROPERTY
Probability
SciTegic.value.DoubleValue
0.99

@<SCITEGIC>MOL_PROPERTY
Sum Probability
SciTegic.value.DoubleValue
42.41

@<SCITEGIC>MOL_PROPERTY
Delta G
SciTegic.value.DoubleValue
0.995

@<SCITEGIC>MOL_PROPERTY
G
SciTegic.value.DoubleValue
59.142

@<SCITEGIC>MOL_PROPERTY
E
SciTegic.value.DoubleValue
21.751

@<SCITEGIC>MOL_PROPERTY
-TS
SciTegic.value.DoubleValue
37.391

@<SCITEGIC>MOL_PROPERTY
U+W
SciTegic.value.DoubleValue
-2.394

@<SCITEGIC>MOL_PROPERTY
U
SciTegic.value.DoubleValue
49.240

@<SCITEGIC>MOL_PROPERTY
W
SciTegic.value.DoubleValue
-51.634

@<SCITEGIC>MOL_PROPERTY
W(PB)
SciTegic.value.DoubleValue
-54.159

@<SCITEGIC>MOL_PROPERTY
W(SA)
SciTegic.value.DoubleValue
2.525

@<SCITEGIC>MOL_PROPERTY
Valence
SciTegic.value.DoubleValue
3.225

@<SCITEGIC>MOL_PROPERTY
Coulomb
SciTegic.value.DoubleValue
45.075

@<SCITEGIC>MOL_PROPERTY
VdW
SciTegic.value.DoubleValue
0.940

@<SCITEGIC>MOL_PROPERTY
VdW6
SciTegic.value.DoubleValue
-8.132

@<SCITEGIC>MOL_PROPERTY
VdW12
SciTegic.value.DoubleValue
9.072

@<SCITEGIC>MOL_PROPERTY
Bond
SciTegic.value.DoubleValue
0.204

@<SCITEGIC>MOL_PROPERTY
Angle
SciTegic.value.DoubleValue
0.698

@<SCITEGIC>MOL_PROPERTY
Pdih
SciTegic.value.DoubleValue
2.323

@<SCITEGIC>MOL_PROPERTY
Idih
SciTegic.value.DoubleValue
0.000

@<SCITEGIC>MOL_PROPERTY
Tether
SciTegic.value.DoubleValue
0.000

@<TRIPOS>MOLECULE
guest-3_vm2.mol2 : vm2 ligand conformer 25
          29          28           1
SMALL
USER_CHARGES
 
@<TRIPOS>ATOM
       1    C1      20.404576   17.792635   19.828382 C.3        1 MOL1        -0.2427
       2    H1      21.432287   18.177617   19.857474 H          1 MOL1         0.0958
       3    H2      20.384430   16.831018   20.357646 H          1 MOL1         0.0958
       4    H3      20.144463   17.605052   18.778526 H          1 MOL1         0.0958
       5    C2      19.418461   18.795952   20.463093 C.3        1 MOL1        -0.1412
       6    H4      18.396324   18.398741   20.389877 H          1 MOL1         0.0947
       7    H5      19.435711   19.734575   19.891637 H          1 MOL1         0.0947
       8    C3      19.762923   19.078635   21.942123 C.3        1 MOL1        -0.1437
       9    H6      19.751625   18.132528   22.498659 H          1 MOL1         0.0947
      10    H7      20.784307   19.477831   22.009971 H          1 MOL1         0.0947
      11    C4      18.771676   20.080961   22.580819 C.3        1 MOL1        -0.1437
      12    H8      17.757031   19.659618   22.565890 H          1 MOL1         0.0947
      13    H9      18.736898   20.990299   21.965010 H          1 MOL1         0.0947
      14    C5      19.144296   20.484686   24.028543 C.3        1 MOL1        -0.1437
      15    H10     20.152938   20.920353   24.040728 H          1 MOL1         0.0947
      16    H11     18.460522   21.281161   24.353217 H          1 MOL1         0.0947
      17    C6      19.068982   19.313282   25.037137 C.3        1 MOL1        -0.1437
      18    H12     19.800884   18.543008   24.764160 H          1 MOL1         0.0947
      19    H13     18.075788   18.846241   24.983605 H          1 MOL1         0.0947
      20    C7      19.336992   19.787727   26.485029 C.3        1 MOL1        -0.1477
      21    H14     20.338670   20.232259   26.555943 H          1 MOL1         0.0947
      22    H15     18.623165   20.580206   26.746488 H          1 MOL1         0.0947
      23    C8      19.203425   18.652381   27.518128 C.3        1 MOL1         0.0145
      24    H16     18.209922   18.202006   27.443920 H          1 MOL1         0.0921
      25    H17     19.317520   19.063054   28.525040 H          1 MOL1         0.0921
      26    N1      20.232670   17.551741   27.351745 N.4        1 MOL1        -0.5969
      27    H18     20.156585   17.096518   26.436801 H          1 MOL1         0.3603
      28    H19     20.124732   16.819302   28.062033 H          1 MOL1         0.3603
      29    H20     21.189699   17.910405   27.434034 H          1 MOL1         0.3603
@<TRIPOS>BOND
    1     1     2    1
    2     1     3    1
    3     1     4    1
    4     1     5    1
    5     5     6    1
    6     5     7    1
    7     5     8    1
    8     8     9    1
    9     8    10    1
   10     8    11    1
   11    11    12    1
   12    11    13    1
   13    11    14    1
   14    14    15    1
   15    14    16    1
   16    14    17    1
   17    17    18    1
   18    17    19    1
   19    17    20    1
   20    20    21    1
   21    20    22    1
   22    20    23    1
   23    23    24    1
   24    23    25    1
   25    23    26    1
   26    26    27    1
   27    26    28    1
   28    26    29    1
@<TRIPOS>SUBSTRUCTURE
       1 MOL1            1 RESIDUE      1      MOL     
@<SCITEGIC>MOL_PROPERTY
VM2 Rank
SciTegic.value.IntegerValue
25

@<SCITEGIC>MOL_PROPERTY
Conf_Id
SciTegic.value.IntegerValue
1924

@<SCITEGIC>MOL_PROPERTY
Probability
SciTegic.value.DoubleValue
0.99

@<SCITEGIC>MOL_PROPERTY
Sum Probability
SciTegic.value.DoubleValue
43.40

@<SCITEGIC>MOL_PROPERTY
Delta G
SciTegic.value.DoubleValue
0.999

@<SCITEGIC>MOL_PROPERTY
G
SciTegic.value.DoubleValue
59.145

@<SCITEGIC>MOL_PROPERTY
E
SciTegic.value.DoubleValue
21.761

@<SCITEGIC>MOL_PROPERTY
-TS
SciTegic.value.DoubleValue
37.384

@<SCITEGIC>MOL_PROPERTY
U+W
SciTegic.value.DoubleValue
-2.383

@<SCITEGIC>MOL_PROPERTY
U
SciTegic.value.DoubleValue
49.501

@<SCITEGIC>MOL_PROPERTY
W
SciTegic.value.DoubleValue
-51.885

@<SCITEGIC>MOL_PROPERTY
W(PB)
SciTegic.value.DoubleValue
-54.406

@<SCITEGIC>MOL_PROPERTY
W(SA)
SciTegic.value.DoubleValue
2.522

@<SCITEGIC>MOL_PROPERTY
Valence
SciTegic.value.DoubleValue
3.223

@<SCITEGIC>MOL_PROPERTY
Coulomb
SciTegic.value.DoubleValue
45.341

@<SCITEGIC>MOL_PROPERTY
VdW
SciTegic.value.DoubleValue
0.937

@<SCITEGIC>MOL_PROPERTY
VdW6
SciTegic.value.DoubleValue
-8.143

@<SCITEGIC>MOL_PROPERTY
VdW12
SciTegic.value.DoubleValue
9.080

@<SCITEGIC>MOL_PROPERTY
Bond
SciTegic.value.DoubleValue
0.206

@<SCITEGIC>MOL_PROPERTY
Angle
SciTegic.value.DoubleValue
0.695

@<SCITEGIC>MOL_PROPERTY
Pdih
SciTegic.value.DoubleValue
2.322

@<SCITEGIC>MOL_PROPERTY
Idih
SciTegic.value.DoubleValue
0.000

@<SCITEGIC>MOL_PROPERTY
Tether
SciTegic.value.DoubleValue
0.000

@<TRIPOS>MOLECULE
guest-3_vm2.mol2 : vm2 ligand conformer 26
          29          28           1
SMALL
USER_CHARGES
 
@<TRIPOS>ATOM
       1    C1      20.229973   18.613782   19.284854 C.3        1 MOL1        -0.2427
       2    H1      19.335479   18.706620   18.655175 H          1 MOL1         0.0958
       3    H2      20.846102   19.510517   19.138210 H          1 MOL1         0.0958
       4    H3      20.803975   17.748375   18.929001 H          1 MOL1         0.0958
       5    C2      19.847948   18.440784   20.770160 C.3        1 MOL1        -0.1412
       6    H4      20.764554   18.310524   21.360493 H          1 MOL1         0.0947
       7    H5      19.257839   17.521469   20.889742 H          1 MOL1         0.0947
       8    C3      19.041162   19.651520   21.295696 C.3        1 MOL1        -0.1437
       9    H6      19.651669   20.562303   21.225182 H          1 MOL1         0.0947
      10    H7      18.172317   19.811699   20.642431 H          1 MOL1         0.0947
      11    C4      18.536034   19.476401   22.748904 C.3        1 MOL1        -0.1437
      12    H8      17.913328   18.573580   22.815209 H          1 MOL1         0.0947
      13    H9      17.879105   20.322815   22.992498 H          1 MOL1         0.0947
      14    C5      19.673966   19.404724   23.795325 C.3        1 MOL1        -0.1437
      15    H10     20.296587   18.519297   23.612124 H          1 MOL1         0.0947
      16    H11     20.326243   20.282409   23.688294 H          1 MOL1         0.0947
      17    C6      19.122694   19.344002   25.237758 C.3        1 MOL1        -0.1437
      18    H12     18.464581   18.470393   25.336396 H          1 MOL1         0.0947
      19    H13     18.505774   20.232214   25.432973 H          1 MOL1         0.0947
      20    C7      20.259568   19.267346   26.284059 C.3        1 MOL1        -0.1477
      21    H14     20.864113   18.365729   26.117925 H          1 MOL1         0.0947
      22    H15     20.932946   20.124845   26.152792 H          1 MOL1         0.0947
      23    C8      19.736170   19.275818   27.733172 C.3        1 MOL1         0.0145
      24    H16     19.128641   20.169391   27.899995 H          1 MOL1         0.0921
      25    H17     20.582707   19.304704   28.424609 H          1 MOL1         0.0921
      26    N1      18.896485   18.063624   28.085073 N.4        1 MOL1        -0.5969
      27    H18     18.062119   17.995863   27.493888 H          1 MOL1         0.3603
      28    H19     18.573754   18.093592   29.058500 H          1 MOL1         0.3603
      29    H20     19.421734   17.190593   27.970039 H          1 MOL1         0.3603
@<TRIPOS>BOND
    1     1     2    1
    2     1     3    1
    3     1     4    1
    4     1     5    1
    5     5     6    1
    6     5     7    1
    7     5     8    1
    8     8     9    1
    9     8    10    1
   10     8    11    1
   11    11    12    1
   12    11    13    1
   13    11    14    1
   14    14    15    1
   15    14    16    1
   16    14    17    1
   17    17    18    1
   18    17    19    1
   19    17    20    1
   20    20    21    1
   21    20    22    1
   22    20    23    1
   23    23    24    1
   24    23    25    1
   25    23    26    1
   26    26    27    1
   27    26    28    1
   28    26    29    1
@<TRIPOS>SUBSTRUCTURE
       1 MOL1            1 RESIDUE      1      MOL     
@<SCITEGIC>MOL_PROPERTY
VM2 Rank
SciTegic.value.IntegerValue
26

@<SCITEGIC>MOL_PROPERTY
Conf_Id
SciTegic.value.IntegerValue
538

@<SCITEGIC>MOL_PROPERTY
Probability
SciTegic.value.DoubleValue
0.99

@<SCITEGIC>MOL_PROPERTY
Sum Probability
SciTegic.value.DoubleValue
44.39

@<SCITEGIC>MOL_PROPERTY
Delta G
SciTegic.value.DoubleValue
1.001

@<SCITEGIC>MOL_PROPERTY
G
SciTegic.value.DoubleValue
59.147

@<SCITEGIC>MOL_PROPERTY
E
SciTegic.value.DoubleValue
21.759

@<SCITEGIC>MOL_PROPERTY
-TS
SciTegic.value.DoubleValue
37.388

@<SCITEGIC>MOL_PROPERTY
U+W
SciTegic.value.DoubleValue
-2.385

@<SCITEGIC>MOL_PROPERTY
U
SciTegic.value.DoubleValue
49.093

@<SCITEGIC>MOL_PROPERTY
W
SciTegic.value.DoubleValue
-51.478

@<SCITEGIC>MOL_PROPERTY
W(PB)
SciTegic.value.DoubleValue
-54.001

@<SCITEGIC>MOL_PROPERTY
W(SA)
SciTegic.value.DoubleValue
2.523

@<SCITEGIC>MOL_PROPERTY
Valence
SciTegic.value.DoubleValue
3.228

@<SCITEGIC>MOL_PROPERTY
Coulomb
SciTegic.value.DoubleValue
44.904

@<SCITEGIC>MOL_PROPERTY
VdW
SciTegic.value.DoubleValue
0.961

@<SCITEGIC>MOL_PROPERTY
VdW6
SciTegic.value.DoubleValue
-8.094

@<SCITEGIC>MOL_PROPERTY
VdW12
SciTegic.value.DoubleValue
9.056

@<SCITEGIC>MOL_PROPERTY
Bond
SciTegic.value.DoubleValue
0.204

@<SCITEGIC>MOL_PROPERTY
Angle
SciTegic.value.DoubleValue
0.702

@<SCITEGIC>MOL_PROPERTY
Pdih
SciTegic.value.DoubleValue
2.322

@<SCITEGIC>MOL_PROPERTY
Idih
SciTegic.value.DoubleValue
0.000

@<SCITEGIC>MOL_PROPERTY
Tether
SciTegic.value.DoubleValue
0.000

@<TRIPOS>MOLECULE
guest-3_vm2.mol2 : vm2 ligand conformer 27
          29          28           1
SMALL
USER_CHARGES
 
@<TRIPOS>ATOM
       1    C1      19.789984   19.395851   19.036733 C.3        1 MOL1        -0.2427
       2    H1      20.862135   19.631268   19.018813 H          1 MOL1         0.0958
       3    H2      19.664816   18.347983   18.734145 H          1 MOL1         0.0958
       4    H3      19.294102   20.024995   18.286182 H          1 MOL1         0.0958
       5    C2      19.191105   19.643929   20.437310 C.3        1 MOL1        -0.1412
       6    H4      18.112820   19.432462   20.415465 H          1 MOL1         0.0947
       7    H5      19.300834   20.706007   20.697755 H          1 MOL1         0.0947
       8    C3      19.872188   18.769825   21.513468 C.3        1 MOL1        -0.1437
       9    H6      19.762296   17.709540   21.246819 H          1 MOL1         0.0947
      10    H7      20.949940   18.983292   21.530667 H          1 MOL1         0.0947
      11    C4      19.274827   19.015001   22.917498 C.3        1 MOL1        -0.1437
      12    H8      18.198022   18.797250   22.900375 H          1 MOL1         0.0947
      13    H9      19.382563   20.077510   23.171288 H          1 MOL1         0.0947
      14    C5      19.962349   18.140795   23.993768 C.3        1 MOL1        -0.1437
      15    H10     19.914876   17.088304   23.681687 H          1 MOL1         0.0947
      16    H11     21.029274   18.396525   24.053605 H          1 MOL1         0.0947
      17    C6      19.320003   18.263670   25.397424 C.3        1 MOL1        -0.1437
      18    H12     19.785630   17.515437   26.052333 H          1 MOL1         0.0947
      19    H13     18.254409   18.002026   25.338460 H          1 MOL1         0.0947
      20    C7      19.477898   19.669432   26.029442 C.3        1 MOL1        -0.1477
      21    H14     20.539177   19.948916   26.066285 H          1 MOL1         0.0947
      22    H15     18.976877   20.417519   25.402782 H          1 MOL1         0.0947
      23    C8      18.874418   19.755220   27.444659 C.3        1 MOL1         0.0145
      24    H16     17.822551   19.458411   27.415088 H          1 MOL1         0.0921
      25    H17     18.927468   20.788281   27.798931 H          1 MOL1         0.0921
      26    N1      19.581228   18.884278   28.464698 N.4        1 MOL1        -0.5969
      27    H18     19.163946   18.975443   29.397524 H          1 MOL1         0.3603
      28    H19     20.572350   19.131199   28.554177 H          1 MOL1         0.3603
      29    H20     19.537509   17.892122   28.211931 H          1 MOL1         0.3603
@<TRIPOS>BOND
    1     1     2    1
    2     1     3    1
    3     1     4    1
    4     1     5    1
    5     5     6    1
    6     5     7    1
    7     5     8    1
    8     8     9    1
    9     8    10    1
   10     8    11    1
   11    11    12    1
   12    11    13    1
   13    11    14    1
   14    14    15    1
   15    14    16    1
   16    14    17    1
   17    17    18    1
   18    17    19    1
   19    17    20    1
   20    20    21    1
   21    20    22    1
   22    20    23    1
   23    23    24    1
   24    23    25    1
   25    23    26    1
   26    26    27    1
   27    26    28    1
   28    26    29    1
@<TRIPOS>SUBSTRUCTURE
       1 MOL1            1 RESIDUE      1      MOL     
@<SCITEGIC>MOL_PROPERTY
VM2 Rank
SciTegic.value.IntegerValue
27

@<SCITEGIC>MOL_PROPERTY
Conf_Id
SciTegic.value.IntegerValue
1362

@<SCITEGIC>MOL_PROPERTY
Probability
SciTegic.value.DoubleValue
0.97

@<SCITEGIC>MOL_PROPERTY
Sum Probability
SciTegic.value.DoubleValue
45.36

@<SCITEGIC>MOL_PROPERTY
Delta G
SciTegic.value.DoubleValue
1.008

@<SCITEGIC>MOL_PROPERTY
G
SciTegic.value.DoubleValue
59.154

@<SCITEGIC>MOL_PROPERTY
E
SciTegic.value.DoubleValue
21.788

@<SCITEGIC>MOL_PROPERTY
-TS
SciTegic.value.DoubleValue
37.367

@<SCITEGIC>MOL_PROPERTY
U+W
SciTegic.value.DoubleValue
-2.357

@<SCITEGIC>MOL_PROPERTY
U
SciTegic.value.DoubleValue
49.027

@<SCITEGIC>MOL_PROPERTY
W
SciTegic.value.DoubleValue
-51.384

@<SCITEGIC>MOL_PROPERTY
W(PB)
SciTegic.value.DoubleValue
-53.885

@<SCITEGIC>MOL_PROPERTY
W(SA)
SciTegic.value.DoubleValue
2.502

@<SCITEGIC>MOL_PROPERTY
Valence
SciTegic.value.DoubleValue
3.250

@<SCITEGIC>MOL_PROPERTY
Coulomb
SciTegic.value.DoubleValue
44.791

@<SCITEGIC>MOL_PROPERTY
VdW
SciTegic.value.DoubleValue
0.986

@<SCITEGIC>MOL_PROPERTY
VdW6
SciTegic.value.DoubleValue
-8.078

@<SCITEGIC>MOL_PROPERTY
VdW12
SciTegic.value.DoubleValue
9.063

@<SCITEGIC>MOL_PROPERTY
Bond
SciTegic.value.DoubleValue
0.210

@<SCITEGIC>MOL_PROPERTY
Angle
SciTegic.value.DoubleValue
0.724

@<SCITEGIC>MOL_PROPERTY
Pdih
SciTegic.value.DoubleValue
2.316

@<SCITEGIC>MOL_PROPERTY
Idih
SciTegic.value.DoubleValue
0.000

@<SCITEGIC>MOL_PROPERTY
Tether
SciTegic.value.DoubleValue
0.000

@<TRIPOS>MOLECULE
guest-3_vm2.mol2 : vm2 ligand conformer 28
          29          28           1
SMALL
USER_CHARGES
 
@<TRIPOS>ATOM
       1    C1      19.729863   18.515464   19.202078 C.3        1 MOL1        -0.2427
       2    H1      19.586189   19.436650   18.622416 H          1 MOL1         0.0958
       3    H2      20.796767   18.257970   19.176288 H          1 MOL1         0.0958
       4    H3      19.176696   17.711517   18.699369 H          1 MOL1         0.0958
       5    C2      19.237041   18.690561   20.654137 C.3        1 MOL1        -0.1412
       6    H4      19.358937   17.739101   21.188448 H          1 MOL1         0.0947
       7    H5      18.161977   18.918333   20.648897 H          1 MOL1         0.0947
       8    C3      20.006056   19.816412   21.384926 C.3        1 MOL1        -0.1437
       9    H6      21.073769   19.562428   21.436864 H          1 MOL1         0.0947
      10    H7      19.937256   20.738543   20.791424 H          1 MOL1         0.0947
      11    C4      19.472236   20.109018   22.808677 C.3        1 MOL1        -0.1437
      12    H8      18.408164   20.377446   22.754298 H          1 MOL1         0.0947
      13    H9      19.993844   20.993400   23.199933 H          1 MOL1         0.0947
      14    C5      19.664775   18.932801   23.795839 C.3        1 MOL1        -0.1437
      15    H10     19.087362   18.062238   23.458385 H          1 MOL1         0.0947
      16    H11     20.721401   18.631615   23.806158 H          1 MOL1         0.0947
      17    C6      19.221829   19.308509   25.227930 C.3        1 MOL1        -0.1437
      18    H12     18.165383   19.610940   25.217324 H          1 MOL1         0.0947
      19    H13     19.799276   20.178082   25.569083 H          1 MOL1         0.0947
      20    C7      19.410978   18.132141   26.214597 C.3        1 MOL1        -0.1477
      21    H14     18.859725   17.256524   25.846658 H          1 MOL1         0.0947
      22    H15     20.469268   17.841746   26.255706 H          1 MOL1         0.0947
      23    C8      18.912114   18.460628   27.634877 C.3        1 MOL1         0.0145
      24    H16     18.993212   17.569424   28.263149 H          1 MOL1         0.0921
      25    H17     17.860268   18.756495   27.596424 H          1 MOL1         0.0921
      26    N1      19.689109   19.572466   28.311939 N.4        1 MOL1        -0.5969
      27    H18     19.625075   20.452032   27.789908 H          1 MOL1         0.3603
      28    H19     20.684611   19.342732   28.398598 H          1 MOL1         0.3603
      29    H20     19.340598   19.758615   29.258777 H          1 MOL1         0.3603
@<TRIPOS>BOND
    1     1     2    1
    2     1     3    1
    3     1     4    1
    4     1     5    1
    5     5     6    1
    6     5     7    1
    7     5     8    1
    8     8     9    1
    9     8    10    1
   10     8    11    1
   11    11    12    1
   12    11    13    1
   13    11    14    1
   14    14    15    1
   15    14    16    1
   16    14    17    1
   17    17    18    1
   18    17    19    1
   19    17    20    1
   20    20    21    1
   21    20    22    1
   22    20    23    1
   23    23    24    1
   24    23    25    1
   25    23    26    1
   26    26    27    1
   27    26    28    1
   28    26    29    1
@<TRIPOS>SUBSTRUCTURE
       1 MOL1            1 RESIDUE      1      MOL     
@<SCITEGIC>MOL_PROPERTY
VM2 Rank
SciTegic.value.IntegerValue
28

@<SCITEGIC>MOL_PROPERTY
Conf_Id
SciTegic.value.IntegerValue
2896

@<SCITEGIC>MOL_PROPERTY
Probability
SciTegic.value.DoubleValue
0.95

@<SCITEGIC>MOL_PROPERTY
Sum Probability
SciTegic.value.DoubleValue
46.31

@<SCITEGIC>MOL_PROPERTY
Delta G
SciTegic.value.DoubleValue
1.024

@<SCITEGIC>MOL_PROPERTY
G
SciTegic.value.DoubleValue
59.171

@<SCITEGIC>MOL_PROPERTY
E
SciTegic.value.DoubleValue
21.783

@<SCITEGIC>MOL_PROPERTY
-TS
SciTegic.value.DoubleValue
37.388

@<SCITEGIC>MOL_PROPERTY
U+W
SciTegic.value.DoubleValue
-2.362

@<SCITEGIC>MOL_PROPERTY
U
SciTegic.value.DoubleValue
49.031

@<SCITEGIC>MOL_PROPERTY
W
SciTegic.value.DoubleValue
-51.393

@<SCITEGIC>MOL_PROPERTY
W(PB)
SciTegic.value.DoubleValue
-53.927

@<SCITEGIC>MOL_PROPERTY
W(SA)
SciTegic.value.DoubleValue
2.534

@<SCITEGIC>MOL_PROPERTY
Valence
SciTegic.value.DoubleValue
3.227

@<SCITEGIC>MOL_PROPERTY
Coulomb
SciTegic.value.DoubleValue
44.840

@<SCITEGIC>MOL_PROPERTY
VdW
SciTegic.value.DoubleValue
0.965

@<SCITEGIC>MOL_PROPERTY
VdW6
SciTegic.value.DoubleValue
-8.093

@<SCITEGIC>MOL_PROPERTY
VdW12
SciTegic.value.DoubleValue
9.058

@<SCITEGIC>MOL_PROPERTY
Bond
SciTegic.value.DoubleValue
0.204

@<SCITEGIC>MOL_PROPERTY
Angle
SciTegic.value.DoubleValue
0.702

@<SCITEGIC>MOL_PROPERTY
Pdih
SciTegic.value.DoubleValue
2.321

@<SCITEGIC>MOL_PROPERTY
Idih
SciTegic.value.DoubleValue
0.000

@<SCITEGIC>MOL_PROPERTY
Tether
SciTegic.value.DoubleValue
0.000

@<TRIPOS>MOLECULE
guest-3_vm2.mol2 : vm2 ligand conformer 29
          29          28           1
SMALL
USER_CHARGES
 
@<TRIPOS>ATOM
       1    C1      20.658782   19.155497   19.538821 C.3        1 MOL1        -0.2427
       2    H1      21.075125   19.939544   18.893087 H          1 MOL1         0.0958
       3    H2      21.449108   18.416381   19.724128 H          1 MOL1         0.0958
       4    H3      19.849112   18.659545   18.987713 H          1 MOL1         0.0958
       5    C2      20.141125   19.757441   20.862260 C.3        1 MOL1        -0.1412
       6    H4      19.376821   20.516269   20.643377 H          1 MOL1         0.0947
       7    H5      20.964583   20.275036   21.374015 H          1 MOL1         0.0947
       8    C3      19.549220   18.673855   21.790389 C.3        1 MOL1        -0.1437
       9    H6      18.728538   18.157630   21.273318 H          1 MOL1         0.0947
      10    H7      20.316028   17.916676   22.005050 H          1 MOL1         0.0947
      11    C4      19.029603   19.272959   23.116644 C.3        1 MOL1        -0.1437
      12    H8      18.259661   20.026799   22.901924 H          1 MOL1         0.0947
      13    H9      19.854201   19.792419   23.622208 H          1 MOL1         0.0947
      14    C5      18.442343   18.184623   24.046720 C.3        1 MOL1        -0.1437
      15    H10     17.670220   17.625802   23.500037 H          1 MOL1         0.0947
      16    H11     19.221937   17.453691   24.300093 H          1 MOL1         0.0947
      17    C6      17.807207   18.752824   25.342122 C.3        1 MOL1        -0.1437
      18    H12     17.380907   17.920675   25.919371 H          1 MOL1         0.0947
      19    H13     16.960309   19.399518   25.074214 H          1 MOL1         0.0947
      20    C7      18.778078   19.546933   26.251028 C.3        1 MOL1        -0.1477
      21    H14     19.109495   20.460076   25.740431 H          1 MOL1         0.0947
      22    H15     18.234645   19.875981   27.146702 H          1 MOL1         0.0947
      23    C8      20.002891   18.718757   26.681332 C.3        1 MOL1         0.0145
      24    H16     20.574840   18.420327   25.798847 H          1 MOL1         0.0921
      25    H17     19.672207   17.815008   27.200180 H          1 MOL1         0.0921
      26    N1      20.934752   19.475112   27.605684 N.4        1 MOL1        -0.5969
      27    H18     20.464246   19.762027   28.470413 H          1 MOL1         0.3603
      28    H19     21.302437   20.325034   27.165491 H          1 MOL1         0.3603
      29    H20     21.743348   18.906356   27.880089 H          1 MOL1         0.3603
@<TRIPOS>BOND
    1     1     2    1
    2     1     3    1
    3     1     4    1
    4     1     5    1
    5     5     6    1
    6     5     7    1
    7     5     8    1
    8     8     9    1
    9     8    10    1
   10     8    11    1
   11    11    12    1
   12    11    13    1
   13    11    14    1
   14    14    15    1
   15    14    16    1
   16    14    17    1
   17    17    18    1
   18    17    19    1
   19    17    20    1
   20    20    21    1
   21    20    22    1
   22    20    23    1
   23    23    24    1
   24    23    25    1
   25    23    26    1
   26    26    27    1
   27    26    28    1
   28    26    29    1
@<TRIPOS>SUBSTRUCTURE
       1 MOL1            1 RESIDUE      1      MOL     
@<SCITEGIC>MOL_PROPERTY
VM2 Rank
SciTegic.value.IntegerValue
29

@<SCITEGIC>MOL_PROPERTY
Conf_Id
SciTegic.value.IntegerValue
1774

@<SCITEGIC>MOL_PROPERTY
Probability
SciTegic.value.DoubleValue
0.87

@<SCITEGIC>MOL_PROPERTY
Sum Probability
SciTegic.value.DoubleValue
47.18

@<SCITEGIC>MOL_PROPERTY
Delta G
SciTegic.value.DoubleValue
1.076

@<SCITEGIC>MOL_PROPERTY
G
SciTegic.value.DoubleValue
59.223

@<SCITEGIC>MOL_PROPERTY
E
SciTegic.value.DoubleValue
21.699

@<SCITEGIC>MOL_PROPERTY
-TS
SciTegic.value.DoubleValue
37.524

@<SCITEGIC>MOL_PROPERTY
U+W
SciTegic.value.DoubleValue
-2.446

@<SCITEGIC>MOL_PROPERTY
U
SciTegic.value.DoubleValue
49.533

@<SCITEGIC>MOL_PROPERTY
W
SciTegic.value.DoubleValue
-51.978

@<SCITEGIC>MOL_PROPERTY
W(PB)
SciTegic.value.DoubleValue
-54.508

@<SCITEGIC>MOL_PROPERTY
W(SA)
SciTegic.value.DoubleValue
2.530

@<SCITEGIC>MOL_PROPERTY
Valence
SciTegic.value.DoubleValue
3.341

@<SCITEGIC>MOL_PROPERTY
Coulomb
SciTegic.value.DoubleValue
45.459

@<SCITEGIC>MOL_PROPERTY
VdW
SciTegic.value.DoubleValue
0.732

@<SCITEGIC>MOL_PROPERTY
VdW6
SciTegic.value.DoubleValue
-8.519

@<SCITEGIC>MOL_PROPERTY
VdW12
SciTegic.value.DoubleValue
9.251

@<SCITEGIC>MOL_PROPERTY
Bond
SciTegic.value.DoubleValue
0.212

@<SCITEGIC>MOL_PROPERTY
Angle
SciTegic.value.DoubleValue
0.893

@<SCITEGIC>MOL_PROPERTY
Pdih
SciTegic.value.DoubleValue
2.236

@<SCITEGIC>MOL_PROPERTY
Idih
SciTegic.value.DoubleValue
0.000

@<SCITEGIC>MOL_PROPERTY
Tether
SciTegic.value.DoubleValue
0.000

@<TRIPOS>MOLECULE
guest-3_vm2.mol2 : vm2 ligand conformer 30
          29          28           1
SMALL
USER_CHARGES
 
@<TRIPOS>ATOM
       1    C1      19.577441   18.798693   19.023383 C.3        1 MOL1        -0.2427
       2    H1      20.146355   19.701170   18.764292 H          1 MOL1         0.0958
       3    H2      20.260248   17.940069   18.981058 H          1 MOL1         0.0958
       4    H3      18.806282   18.654324   18.255582 H          1 MOL1         0.0958
       5    C2      18.936766   18.929319   20.421342 C.3        1 MOL1        -0.1412
       6    H4      18.347516   18.027245   20.637974 H          1 MOL1         0.0947
       7    H5      18.234626   19.774831   20.423074 H          1 MOL1         0.0947
       8    C3      20.001597   19.133562   21.521557 C.3        1 MOL1        -0.1437
       9    H6      20.702181   18.287066   21.515049 H          1 MOL1         0.0947
      10    H7      20.589617   20.034645   21.298705 H          1 MOL1         0.0947
      11    C4      19.363885   19.265200   22.923077 C.3        1 MOL1        -0.1437
      12    H8      18.772942   18.364280   23.133005 H          1 MOL1         0.0947
      13    H9      18.666763   20.114430   22.929823 H          1 MOL1         0.0947
      14    C5      20.433768   19.465400   24.023330 C.3        1 MOL1        -0.1437
      15    H10     21.098626   18.591286   24.057913 H          1 MOL1         0.0947
      16    H11     21.065948   20.322803   23.753896 H          1 MOL1         0.0947
      17    C6      19.838411   19.720221   25.429952 C.3        1 MOL1        -0.1437
      18    H12     19.178290   20.598026   25.396444 H          1 MOL1         0.0947
      19    H13     20.662650   19.979711   26.107344 H          1 MOL1         0.0947
      20    C7      19.064287   18.506832   26.003516 C.3        1 MOL1        -0.1477
      21    H14     18.212354   18.268638   25.354801 H          1 MOL1         0.0947
      22    H15     19.710130   17.618828   26.014358 H          1 MOL1         0.0947
      23    C8      18.522191   18.765424   27.422551 C.3        1 MOL1         0.0145
      24    H16     17.906068   17.917839   27.734854 H          1 MOL1         0.0921
      25    H17     17.894432   19.660578   27.419503 H          1 MOL1         0.0921
      26    N1      19.605654   18.953350   28.466292 N.4        1 MOL1        -0.5969
      27    H18     20.216928   18.132792   28.532096 H          1 MOL1         0.3603
      28    H19     19.211335   19.109380   29.400511 H          1 MOL1         0.3603
      29    H20     20.201783   19.759315   28.253622 H          1 MOL1         0.3603
@<TRIPOS>BOND
    1     1     2    1
    2     1     3    1
    3     1     4    1
    4     1     5    1
    5     5     6    1
    6     5     7    1
    7     5     8    1
    8     8     9    1
    9     8    10    1
   10     8    11    1
   11    11    12    1
   12    11    13    1
   13    11    14    1
   14    14    15    1
   15    14    16    1
   16    14    17    1
   17    17    18    1
   18    17    19    1
   19    17    20    1
   20    20    21    1
   21    20    22    1
   22    20    23    1
   23    23    24    1
   24    23    25    1
   25    23    26    1
   26    26    27    1
   27    26    28    1
   28    26    29    1
@<TRIPOS>SUBSTRUCTURE
       1 MOL1            1 RESIDUE      1      MOL     
@<SCITEGIC>MOL_PROPERTY
VM2 Rank
SciTegic.value.IntegerValue
30

@<SCITEGIC>MOL_PROPERTY
Conf_Id
SciTegic.value.IntegerValue
1654

@<SCITEGIC>MOL_PROPERTY
Probability
SciTegic.value.DoubleValue
0.85

@<SCITEGIC>MOL_PROPERTY
Sum Probability
SciTegic.value.DoubleValue
48.02

@<SCITEGIC>MOL_PROPERTY
Delta G
SciTegic.value.DoubleValue
1.090

@<SCITEGIC>MOL_PROPERTY
G
SciTegic.value.DoubleValue
59.236

@<SCITEGIC>MOL_PROPERTY
E
SciTegic.value.DoubleValue
21.869

@<SCITEGIC>MOL_PROPERTY
-TS
SciTegic.value.DoubleValue
37.367

@<SCITEGIC>MOL_PROPERTY
U+W
SciTegic.value.DoubleValue
-2.276

@<SCITEGIC>MOL_PROPERTY
U
SciTegic.value.DoubleValue
49.027

@<SCITEGIC>MOL_PROPERTY
W
SciTegic.value.DoubleValue
-51.302

@<SCITEGIC>MOL_PROPERTY
W(PB)
SciTegic.value.DoubleValue
-53.849

@<SCITEGIC>MOL_PROPERTY
W(SA)
SciTegic.value.DoubleValue
2.547

@<SCITEGIC>MOL_PROPERTY
Valence
SciTegic.value.DoubleValue
3.250

@<SCITEGIC>MOL_PROPERTY
Coulomb
SciTegic.value.DoubleValue
44.791

@<SCITEGIC>MOL_PROPERTY
VdW
SciTegic.value.DoubleValue
0.986

@<SCITEGIC>MOL_PROPERTY
VdW6
SciTegic.value.DoubleValue
-8.077

@<SCITEGIC>MOL_PROPERTY
VdW12
SciTegic.value.DoubleValue
9.063

@<SCITEGIC>MOL_PROPERTY
Bond
SciTegic.value.DoubleValue
0.210

@<SCITEGIC>MOL_PROPERTY
Angle
SciTegic.value.DoubleValue
0.724

@<SCITEGIC>MOL_PROPERTY
Pdih
SciTegic.value.DoubleValue
2.316

@<SCITEGIC>MOL_PROPERTY
Idih
SciTegic.value.DoubleValue
0.000

@<SCITEGIC>MOL_PROPERTY
Tether
SciTegic.value.DoubleValue
0.000

@<TRIPOS>MOLECULE
guest-3_vm2.mol2 : vm2 ligand conformer 31
          29          28           1
SMALL
USER_CHARGES
 
@<TRIPOS>ATOM
       1    C1      19.546148   18.489699   19.497731 C.3        1 MOL1        -0.2427
       2    H1      20.535614   18.014821   19.519596 H          1 MOL1         0.0958
       3    H2      18.826295   17.807334   19.966400 H          1 MOL1         0.0958
       4    H3      19.253093   18.606915   18.446393 H          1 MOL1         0.0958
       5    C2      19.572727   19.862134   20.207816 C.3        1 MOL1        -0.1412
       6    H4      18.565857   20.302431   20.198982 H          1 MOL1         0.0947
       7    H5      20.212465   20.545923   19.632553 H          1 MOL1         0.0947
       8    C3      20.100880   19.792736   21.660964 C.3        1 MOL1        -0.1437
       9    H6      21.115264   19.370540   21.662784 H          1 MOL1         0.0947
      10    H7      20.191610   20.817056   22.048023 H          1 MOL1         0.0947
      11    C4      19.192645   18.973079   22.608590 C.3        1 MOL1        -0.1437
      12    H8      19.149095   17.928608   22.273144 H          1 MOL1         0.0947
      13    H9      18.167538   19.366046   22.564973 H          1 MOL1         0.0947
      14    C5      19.699778   19.015654   24.067782 C.3        1 MOL1        -0.1437
      15    H10     20.725321   18.623390   24.110024 H          1 MOL1         0.0947
      16    H11     19.743755   20.060111   24.404202 H          1 MOL1         0.0947
      17    C6      18.792761   18.193705   25.014581 C.3        1 MOL1        -0.1437
      18    H12     18.718861   17.163409   24.639844 H          1 MOL1         0.0947
      19    H13     17.773261   18.603591   24.999866 H          1 MOL1         0.0947
      20    C7      19.312143   18.155380   26.470951 C.3        1 MOL1        -0.1477
      21    H14     18.671294   17.486102   27.060293 H          1 MOL1         0.0947
      22    H15     20.321496   17.723190   26.491538 H          1 MOL1         0.0947
      23    C8      19.330594   19.545939   27.132741 C.3        1 MOL1         0.0145
      24    H16     18.325571   19.975974   27.113493 H          1 MOL1         0.0921
      25    H17     20.000538   20.210072   26.580688 H          1 MOL1         0.0921
      26    N1      19.796325   19.509674   28.573844 N.4        1 MOL1        -0.5969
      27    H18     19.801397   20.444652   28.996305 H          1 MOL1         0.3603
      28    H19     20.748450   19.138401   28.658161 H          1 MOL1         0.3603
      29    H20     19.190424   18.922095   29.156204 H          1 MOL1         0.3603
@<TRIPOS>BOND
    1     1     2    1
    2     1     3    1
    3     1     4    1
    4     1     5    1
    5     5     6    1
    6     5     7    1
    7     5     8    1
    8     8     9    1
    9     8    10    1
   10     8    11    1
   11    11    12    1
   12    11    13    1
   13    11    14    1
   14    14    15    1
   15    14    16    1
   16    14    17    1
   17    17    18    1
   18    17    19    1
   19    17    20    1
   20    20    21    1
   21    20    22    1
   22    20    23    1
   23    23    24    1
   24    23    25    1
   25    23    26    1
   26    26    27    1
   27    26    28    1
   28    26    29    1
@<TRIPOS>SUBSTRUCTURE
       1 MOL1            1 RESIDUE      1      MOL     
@<SCITEGIC>MOL_PROPERTY
VM2 Rank
SciTegic.value.IntegerValue
31

@<SCITEGIC>MOL_PROPERTY
Conf_Id
SciTegic.value.IntegerValue
1003

@<SCITEGIC>MOL_PROPERTY
Probability
SciTegic.value.DoubleValue
0.84

@<SCITEGIC>MOL_PROPERTY
Sum Probability
SciTegic.value.DoubleValue
48.86

@<SCITEGIC>MOL_PROPERTY
Delta G
SciTegic.value.DoubleValue
1.098

@<SCITEGIC>MOL_PROPERTY
G
SciTegic.value.DoubleValue
59.244

@<SCITEGIC>MOL_PROPERTY
E
SciTegic.value.DoubleValue
21.850

@<SCITEGIC>MOL_PROPERTY
-TS
SciTegic.value.DoubleValue
37.394

@<SCITEGIC>MOL_PROPERTY
U+W
SciTegic.value.DoubleValue
-2.294

@<SCITEGIC>MOL_PROPERTY
U
SciTegic.value.DoubleValue
49.086

@<SCITEGIC>MOL_PROPERTY
W
SciTegic.value.DoubleValue
-51.380

@<SCITEGIC>MOL_PROPERTY
W(PB)
SciTegic.value.DoubleValue
-53.930

@<SCITEGIC>MOL_PROPERTY
W(SA)
SciTegic.value.DoubleValue
2.550

@<SCITEGIC>MOL_PROPERTY
Valence
SciTegic.value.DoubleValue
3.390

@<SCITEGIC>MOL_PROPERTY
Coulomb
SciTegic.value.DoubleValue
44.772

@<SCITEGIC>MOL_PROPERTY
VdW
SciTegic.value.DoubleValue
0.923

@<SCITEGIC>MOL_PROPERTY
VdW6
SciTegic.value.DoubleValue
-8.126

@<SCITEGIC>MOL_PROPERTY
VdW12
SciTegic.value.DoubleValue
9.049

@<SCITEGIC>MOL_PROPERTY
Bond
SciTegic.value.DoubleValue
0.202

@<SCITEGIC>MOL_PROPERTY
Angle
SciTegic.value.DoubleValue
0.764

@<SCITEGIC>MOL_PROPERTY
Pdih
SciTegic.value.DoubleValue
2.424

@<SCITEGIC>MOL_PROPERTY
Idih
SciTegic.value.DoubleValue
0.000

@<SCITEGIC>MOL_PROPERTY
Tether
SciTegic.value.DoubleValue
0.000

@<TRIPOS>MOLECULE
guest-3_vm2.mol2 : vm2 ligand conformer 32
          29          28           1
SMALL
USER_CHARGES
 
@<TRIPOS>ATOM
       1    C1      19.273325   18.104467   19.684403 C.3        1 MOL1        -0.2427
       2    H1      19.895568   17.227151   19.903857 H          1 MOL1         0.0958
       3    H2      18.303297   17.971046   20.179083 H          1 MOL1         0.0958
       4    H3      19.091506   18.124948   18.602064 H          1 MOL1         0.0958
       5    C2      19.968828   19.407050   20.140534 C.3        1 MOL1        -0.1412
       6    H4      19.314150   20.266142   19.937839 H          1 MOL1         0.0947
       7    H5      20.871541   19.558029   19.532199 H          1 MOL1         0.0947
       8    C3      20.372826   19.397892   21.634550 C.3        1 MOL1        -0.1437
       9    H6      21.043179   18.549104   21.827964 H          1 MOL1         0.0947
      10    H7      20.955249   20.305814   21.843724 H          1 MOL1         0.0947
      11    C4      19.164520   19.339411   22.599572 C.3        1 MOL1        -0.1437
      12    H8      18.612315   18.402244   22.450704 H          1 MOL1         0.0947
      13    H9      18.470908   20.159545   22.368418 H          1 MOL1         0.0947
      14    C5      19.605832   19.436926   24.077384 C.3        1 MOL1        -0.1437
      15    H10     20.306174   18.620421   24.298515 H          1 MOL1         0.0947
      16    H11     20.151838   20.377247   24.235587 H          1 MOL1         0.0947
      17    C6      18.397673   19.373104   25.042248 C.3        1 MOL1        -0.1437
      18    H12     17.868157   18.419164   24.911035 H          1 MOL1         0.0947
      19    H13     17.682435   20.164386   24.778229 H          1 MOL1         0.0947
      20    C7      18.797136   19.540993   26.526994 C.3        1 MOL1        -0.1477
      21    H14     19.304493   20.504989   26.665939 H          1 MOL1         0.0947
      22    H15     17.886285   19.573730   27.139547 H          1 MOL1         0.0947
      23    C8      19.702322   18.401833   27.031877 C.3        1 MOL1         0.0145
      24    H16     20.632924   18.386491   26.458807 H          1 MOL1         0.0921
      25    H17     19.196933   17.442050   26.894879 H          1 MOL1         0.0921
      26    N1      20.061537   18.536324   28.497439 N.4        1 MOL1        -0.5969
      27    H18     19.229432   18.529434   29.096657 H          1 MOL1         0.3603
      28    H19     20.564206   19.409369   28.688779 H          1 MOL1         0.3603
      29    H20     20.664162   17.768683   28.814066 H          1 MOL1         0.3603
@<TRIPOS>BOND
    1     1     2    1
    2     1     3    1
    3     1     4    1
    4     1     5    1
    5     5     6    1
    6     5     7    1
    7     5     8    1
    8     8     9    1
    9     8    10    1
   10     8    11    1
   11    11    12    1
   12    11    13    1
   13    11    14    1
   14    14    15    1
   15    14    16    1
   16    14    17    1
   17    17    18    1
   18    17    19    1
   19    17    20    1
   20    20    21    1
   21    20    22    1
   22    20    23    1
   23    23    24    1
   24    23    25    1
   25    23    26    1
   26    26    27    1
   27    26    28    1
   28    26    29    1
@<TRIPOS>SUBSTRUCTURE
       1 MOL1            1 RESIDUE      1      MOL     
@<SCITEGIC>MOL_PROPERTY
VM2 Rank
SciTegic.value.IntegerValue
32

@<SCITEGIC>MOL_PROPERTY
Conf_Id
SciTegic.value.IntegerValue
1807

@<SCITEGIC>MOL_PROPERTY
Probability
SciTegic.value.DoubleValue
0.83

@<SCITEGIC>MOL_PROPERTY
Sum Probability
SciTegic.value.DoubleValue
49.69

@<SCITEGIC>MOL_PROPERTY
Delta G
SciTegic.value.DoubleValue
1.102

@<SCITEGIC>MOL_PROPERTY
G
SciTegic.value.DoubleValue
59.249

@<SCITEGIC>MOL_PROPERTY
E
SciTegic.value.DoubleValue
21.854

@<SCITEGIC>MOL_PROPERTY
-TS
SciTegic.value.DoubleValue
37.394

@<SCITEGIC>MOL_PROPERTY
U+W
SciTegic.value.DoubleValue
-2.290

@<SCITEGIC>MOL_PROPERTY
U
SciTegic.value.DoubleValue
49.098

@<SCITEGIC>MOL_PROPERTY
W
SciTegic.value.DoubleValue
-51.388

@<SCITEGIC>MOL_PROPERTY
W(PB)
SciTegic.value.DoubleValue
-53.927

@<SCITEGIC>MOL_PROPERTY
W(SA)
SciTegic.value.DoubleValue
2.539

@<SCITEGIC>MOL_PROPERTY
Valence
SciTegic.value.DoubleValue
3.391

@<SCITEGIC>MOL_PROPERTY
Coulomb
SciTegic.value.DoubleValue
44.787

@<SCITEGIC>MOL_PROPERTY
VdW
SciTegic.value.DoubleValue
0.920

@<SCITEGIC>MOL_PROPERTY
VdW6
SciTegic.value.DoubleValue
-8.127

@<SCITEGIC>MOL_PROPERTY
VdW12
SciTegic.value.DoubleValue
9.047

@<SCITEGIC>MOL_PROPERTY
Bond
SciTegic.value.DoubleValue
0.202

@<SCITEGIC>MOL_PROPERTY
Angle
SciTegic.value.DoubleValue
0.764

@<SCITEGIC>MOL_PROPERTY
Pdih
SciTegic.value.DoubleValue
2.425

@<SCITEGIC>MOL_PROPERTY
Idih
SciTegic.value.DoubleValue
0.000

@<SCITEGIC>MOL_PROPERTY
Tether
SciTegic.value.DoubleValue
0.000

@<TRIPOS>MOLECULE
guest-3_vm2.mol2 : vm2 ligand conformer 33
          29          28           1
SMALL
USER_CHARGES
 
@<TRIPOS>ATOM
       1    C1      20.793338   18.904100   19.580652 C.3        1 MOL1        -0.2427
       2    H1      21.502387   19.690357   19.870979 H          1 MOL1         0.0958
       3    H2      21.261435   17.931093   19.779118 H          1 MOL1         0.0958
       4    H3      20.626516   18.983484   18.498564 H          1 MOL1         0.0958
       5    C2      19.462383   19.046128   20.348966 C.3        1 MOL1        -0.1412
       6    H4      18.762781   18.268210   20.012407 H          1 MOL1         0.0947
       7    H5      19.001954   20.013838   20.105158 H          1 MOL1         0.0947
       8    C3      19.669056   18.937419   21.875900 C.3        1 MOL1        -0.1437
       9    H6      20.127623   17.968001   22.114913 H          1 MOL1         0.0947
      10    H7      20.375973   19.713366   22.197398 H          1 MOL1         0.0947
      11    C4      18.335605   19.083742   22.647551 C.3        1 MOL1        -0.1437
      12    H8      17.615954   18.349117   22.260567 H          1 MOL1         0.0947
      13    H9      17.900785   20.073698   22.452167 H          1 MOL1         0.0947
      14    C5      18.478675   18.872076   24.174635 C.3        1 MOL1        -0.1437
      15    H10     17.475281   18.882592   24.622262 H          1 MOL1         0.0947
      16    H11     18.891420   17.872024   24.363646 H          1 MOL1         0.0947
      17    C6      19.351456   19.949056   24.867192 C.3        1 MOL1        -0.1437
      18    H12     18.987149   20.946493   24.585079 H          1 MOL1         0.0947
      19    H13     20.388003   19.882288   24.511177 H          1 MOL1         0.0947
      20    C7      19.340018   19.834110   26.409477 C.3        1 MOL1        -0.1477
      21    H14     19.911210   20.670516   26.833857 H          1 MOL1         0.0947
      22    H15     18.311213   19.935878   26.779872 H          1 MOL1         0.0947
      23    C8      19.941619   18.507632   26.909794 C.3        1 MOL1         0.0145
      24    H16     20.966998   18.407424   26.543847 H          1 MOL1         0.0921
      25    H17     19.355461   17.667955   26.527550 H          1 MOL1         0.0921
      26    N1      19.971850   18.403736   28.420832 N.4        1 MOL1        -0.5969
      27    H18     20.532227   19.151138   28.843753 H          1 MOL1         0.3603
      28    H19     20.375668   17.513923   28.733613 H          1 MOL1         0.3603
      29    H20     19.032066   18.464515   28.826540 H          1 MOL1         0.3603
@<TRIPOS>BOND
    1     1     2    1
    2     1     3    1
    3     1     4    1
    4     1     5    1
    5     5     6    1
    6     5     7    1
    7     5     8    1
    8     8     9    1
    9     8    10    1
   10     8    11    1
   11    11    12    1
   12    11    13    1
   13    11    14    1
   14    14    15    1
   15    14    16    1
   16    14    17    1
   17    17    18    1
   18    17    19    1
   19    17    20    1
   20    20    21    1
   21    20    22    1
   22    20    23    1
   23    23    24    1
   24    23    25    1
   25    23    26    1
   26    26    27    1
   27    26    28    1
   28    26    29    1
@<TRIPOS>SUBSTRUCTURE
       1 MOL1            1 RESIDUE      1      MOL     
@<SCITEGIC>MOL_PROPERTY
VM2 Rank
SciTegic.value.IntegerValue
33

@<SCITEGIC>MOL_PROPERTY
Conf_Id
SciTegic.value.IntegerValue
1580

@<SCITEGIC>MOL_PROPERTY
Probability
SciTegic.value.DoubleValue
0.81

@<SCITEGIC>MOL_PROPERTY
Sum Probability
SciTegic.value.DoubleValue
50.50

@<SCITEGIC>MOL_PROPERTY
Delta G
SciTegic.value.DoubleValue
1.121

@<SCITEGIC>MOL_PROPERTY
G
SciTegic.value.DoubleValue
59.267

@<SCITEGIC>MOL_PROPERTY
E
SciTegic.value.DoubleValue
21.871

@<SCITEGIC>MOL_PROPERTY
-TS
SciTegic.value.DoubleValue
37.396

@<SCITEGIC>MOL_PROPERTY
U+W
SciTegic.value.DoubleValue
-2.274

@<SCITEGIC>MOL_PROPERTY
U
SciTegic.value.DoubleValue
49.224

@<SCITEGIC>MOL_PROPERTY
W
SciTegic.value.DoubleValue
-51.497

@<SCITEGIC>MOL_PROPERTY
W(PB)
SciTegic.value.DoubleValue
-54.014

@<SCITEGIC>MOL_PROPERTY
W(SA)
SciTegic.value.DoubleValue
2.516

@<SCITEGIC>MOL_PROPERTY
Valence
SciTegic.value.DoubleValue
3.410

@<SCITEGIC>MOL_PROPERTY
Coulomb
SciTegic.value.DoubleValue
44.942

@<SCITEGIC>MOL_PROPERTY
VdW
SciTegic.value.DoubleValue
0.872

@<SCITEGIC>MOL_PROPERTY
VdW6
SciTegic.value.DoubleValue
-8.213

@<SCITEGIC>MOL_PROPERTY
VdW12
SciTegic.value.DoubleValue
9.085

@<SCITEGIC>MOL_PROPERTY
Bond
SciTegic.value.DoubleValue
0.208

@<SCITEGIC>MOL_PROPERTY
Angle
SciTegic.value.DoubleValue
0.753

@<SCITEGIC>MOL_PROPERTY
Pdih
SciTegic.value.DoubleValue
2.449

@<SCITEGIC>MOL_PROPERTY
Idih
SciTegic.value.DoubleValue
0.000

@<SCITEGIC>MOL_PROPERTY
Tether
SciTegic.value.DoubleValue
0.000

@<TRIPOS>MOLECULE
guest-3_vm2.mol2 : vm2 ligand conformer 34
          29          28           1
SMALL
USER_CHARGES
 
@<TRIPOS>ATOM
       1    C1      20.657858   18.524135   19.572036 C.3        1 MOL1        -0.2427
       2    H1      21.632651   18.973494   19.802471 H          1 MOL1         0.0958
       3    H2      20.706290   17.455922   19.820660 H          1 MOL1         0.0958
       4    H3      20.493783   18.611286   18.490126 H          1 MOL1         0.0958
       5    C2      19.525868   19.224651   20.352927 C.3        1 MOL1        -0.1412
       6    H4      18.561018   18.776278   20.077381 H          1 MOL1         0.0947
       7    H5      19.480070   20.282255   20.057558 H          1 MOL1         0.0947
       8    C3      19.733125   19.117429   21.879886 C.3        1 MOL1        -0.1437
       9    H6      19.786112   18.057333   22.160198 H          1 MOL1         0.0947
      10    H7      20.697651   19.568550   22.150732 H          1 MOL1         0.0947
      11    C4      18.596391   19.816011   22.663954 C.3        1 MOL1        -0.1437
      12    H8      17.636709   19.332110   22.435683 H          1 MOL1         0.0947
      13    H9      18.508213   20.854716   22.316618 H          1 MOL1         0.0947
      14    C5      18.819525   19.828923   24.196042 C.3        1 MOL1        -0.1437
      15    H10     19.768480   20.334999   24.418665 H          1 MOL1         0.0947
      16    H11     18.028832   20.436809   24.657086 H          1 MOL1         0.0947
      17    C6      18.806054   18.416311   24.832918 C.3        1 MOL1        -0.1437
      18    H12     19.656780   17.827474   24.465263 H          1 MOL1         0.0947
      19    H13     17.897686   17.885292   24.516576 H          1 MOL1         0.0947
      20    C7      18.847924   18.451335   26.378559 C.3        1 MOL1        -0.1477
      21    H14     17.980804   19.007484   26.759070 H          1 MOL1         0.0947
      22    H15     18.756582   17.426103   26.761300 H          1 MOL1         0.0947
      23    C8      20.144858   19.078810   26.922638 C.3        1 MOL1         0.0145
      24    H16     20.226121   20.114310   26.582223 H          1 MOL1         0.0921
      25    H17     21.008275   18.523368   26.546665 H          1 MOL1         0.0921
      26    N1      20.212398   19.080395   28.436038 N.4        1 MOL1        -0.5969
      27    H18     20.168874   18.131022   28.821120 H          1 MOL1         0.3603
      28    H19     19.439648   19.610719   28.852094 H          1 MOL1         0.3603
      29    H20     21.082897   19.502094   28.778190 H          1 MOL1         0.3603
@<TRIPOS>BOND
    1     1     2    1
    2     1     3    1
    3     1     4    1
    4     1     5    1
    5     5     6    1
    6     5     7    1
    7     5     8    1
    8     8     9    1
    9     8    10    1
   10     8    11    1
   11    11    12    1
   12    11    13    1
   13    11    14    1
   14    14    15    1
   15    14    16    1
   16    14    17    1
   17    17    18    1
   18    17    19    1
   19    17    20    1
   20    20    21    1
   21    20    22    1
   22    20    23    1
   23    23    24    1
   24    23    25    1
   25    23    26    1
   26    26    27    1
   27    26    28    1
   28    26    29    1
@<TRIPOS>SUBSTRUCTURE
       1 MOL1            1 RESIDUE      1      MOL     
@<SCITEGIC>MOL_PROPERTY
VM2 Rank
SciTegic.value.IntegerValue
34

@<SCITEGIC>MOL_PROPERTY
Conf_Id
SciTegic.value.IntegerValue
1499

@<SCITEGIC>MOL_PROPERTY
Probability
SciTegic.value.DoubleValue
0.79

@<SCITEGIC>MOL_PROPERTY
Sum Probability
SciTegic.value.DoubleValue
51.29

@<SCITEGIC>MOL_PROPERTY
Delta G
SciTegic.value.DoubleValue
1.129

@<SCITEGIC>MOL_PROPERTY
G
SciTegic.value.DoubleValue
59.275

@<SCITEGIC>MOL_PROPERTY
E
SciTegic.value.DoubleValue
21.880

@<SCITEGIC>MOL_PROPERTY
-TS
SciTegic.value.DoubleValue
37.396

@<SCITEGIC>MOL_PROPERTY
U+W
SciTegic.value.DoubleValue
-2.265

@<SCITEGIC>MOL_PROPERTY
U
SciTegic.value.DoubleValue
49.224

@<SCITEGIC>MOL_PROPERTY
W
SciTegic.value.DoubleValue
-51.489

@<SCITEGIC>MOL_PROPERTY
W(PB)
SciTegic.value.DoubleValue
-54.003

@<SCITEGIC>MOL_PROPERTY
W(SA)
SciTegic.value.DoubleValue
2.514

@<SCITEGIC>MOL_PROPERTY
Valence
SciTegic.value.DoubleValue
3.410

@<SCITEGIC>MOL_PROPERTY
Coulomb
SciTegic.value.DoubleValue
44.942

@<SCITEGIC>MOL_PROPERTY
VdW
SciTegic.value.DoubleValue
0.872

@<SCITEGIC>MOL_PROPERTY
VdW6
SciTegic.value.DoubleValue
-8.213

@<SCITEGIC>MOL_PROPERTY
VdW12
SciTegic.value.DoubleValue
9.085

@<SCITEGIC>MOL_PROPERTY
Bond
SciTegic.value.DoubleValue
0.208

@<SCITEGIC>MOL_PROPERTY
Angle
SciTegic.value.DoubleValue
0.753

@<SCITEGIC>MOL_PROPERTY
Pdih
SciTegic.value.DoubleValue
2.449

@<SCITEGIC>MOL_PROPERTY
Idih
SciTegic.value.DoubleValue
0.000

@<SCITEGIC>MOL_PROPERTY
Tether
SciTegic.value.DoubleValue
0.000

@<TRIPOS>MOLECULE
guest-3_vm2.mol2 : vm2 ligand conformer 35
          29          28           1
SMALL
USER_CHARGES
 
@<TRIPOS>ATOM
       1    C1      19.982071   20.099103   19.728524 C.3        1 MOL1        -0.2427
       2    H1      19.306663   20.794851   20.241576 H          1 MOL1         0.0958
       3    H2      21.015128   20.377971   19.973584 H          1 MOL1         0.0958
       4    H3      19.843189   20.240458   18.648864 H          1 MOL1         0.0958
       5    C2      19.693799   18.632978   20.123331 C.3        1 MOL1        -0.1412
       6    H4      20.307481   17.970526   19.496985 H          1 MOL1         0.0947
       7    H5      18.646833   18.388043   19.896179 H          1 MOL1         0.0947
       8    C3      19.992141   18.326532   21.610765 C.3        1 MOL1        -0.1437
       9    H6      19.868182   17.247352   21.775978 H          1 MOL1         0.0947
      10    H7      21.044972   18.553673   21.827965 H          1 MOL1         0.0947
      11    C4      19.078301   19.096331   22.594126 C.3        1 MOL1        -0.1437
      12    H8      18.026027   18.907907   22.340422 H          1 MOL1         0.0947
      13    H9      19.243642   20.176715   22.490170 H          1 MOL1         0.0947
      14    C5      19.338097   18.683870   24.060608 C.3        1 MOL1        -0.1437
      15    H10     19.165663   17.604614   24.173844 H          1 MOL1         0.0947
      16    H11     20.393477   18.865465   24.304034 H          1 MOL1         0.0947
      17    C6      18.427911   19.457862   25.044060 C.3        1 MOL1        -0.1437
      18    H12     17.377518   19.307176   24.758808 H          1 MOL1         0.0947
      19    H13     18.621585   20.536169   24.958329 H          1 MOL1         0.0947
      20    C7      18.610394   19.016667   26.515208 C.3        1 MOL1        -0.1477
      21    H14     17.874901   19.542270   27.138694 H          1 MOL1         0.0947
      22    H15     18.392886   17.944296   26.608568 H          1 MOL1         0.0947
      23    C8      20.024344   19.306964   27.052265 C.3        1 MOL1         0.0145
      24    H16     20.240699   20.374755   26.960714 H          1 MOL1         0.0921
      25    H17     20.763597   18.753873   26.467235 H          1 MOL1         0.0921
      26    N1      20.196943   18.917693   28.506113 N.4        1 MOL1        -0.5969
      27    H18     20.032481   17.916617   28.655436 H          1 MOL1         0.3603
      28    H19     19.547700   19.424740   29.116766 H          1 MOL1         0.3603
      29    H20     21.144388   19.118882   28.844571 H          1 MOL1         0.3603
@<TRIPOS>BOND
    1     1     2    1
    2     1     3    1
    3     1     4    1
    4     1     5    1
    5     5     6    1
    6     5     7    1
    7     5     8    1
    8     8     9    1
    9     8    10    1
   10     8    11    1
   11    11    12    1
   12    11    13    1
   13    11    14    1
   14    14    15    1
   15    14    16    1
   16    14    17    1
   17    17    18    1
   18    17    19    1
   19    17    20    1
   20    20    21    1
   21    20    22    1
   22    20    23    1
   23    23    24    1
   24    23    25    1
   25    23    26    1
   26    26    27    1
   27    26    28    1
   28    26    29    1
@<TRIPOS>SUBSTRUCTURE
       1 MOL1            1 RESIDUE      1      MOL     
@<SCITEGIC>MOL_PROPERTY
VM2 Rank
SciTegic.value.IntegerValue
35

@<SCITEGIC>MOL_PROPERTY
Conf_Id
SciTegic.value.IntegerValue
1163

@<SCITEGIC>MOL_PROPERTY
Probability
SciTegic.value.DoubleValue
0.78

@<SCITEGIC>MOL_PROPERTY
Sum Probability
SciTegic.value.DoubleValue
52.08

@<SCITEGIC>MOL_PROPERTY
Delta G
SciTegic.value.DoubleValue
1.137

@<SCITEGIC>MOL_PROPERTY
G
SciTegic.value.DoubleValue
59.284

@<SCITEGIC>MOL_PROPERTY
E
SciTegic.value.DoubleValue
21.889

@<SCITEGIC>MOL_PROPERTY
-TS
SciTegic.value.DoubleValue
37.395

@<SCITEGIC>MOL_PROPERTY
U+W
SciTegic.value.DoubleValue
-2.256

@<SCITEGIC>MOL_PROPERTY
U
SciTegic.value.DoubleValue
49.098

@<SCITEGIC>MOL_PROPERTY
W
SciTegic.value.DoubleValue
-51.353

@<SCITEGIC>MOL_PROPERTY
W(PB)
SciTegic.value.DoubleValue
-53.874

@<SCITEGIC>MOL_PROPERTY
W(SA)
SciTegic.value.DoubleValue
2.520

@<SCITEGIC>MOL_PROPERTY
Valence
SciTegic.value.DoubleValue
3.391

@<SCITEGIC>MOL_PROPERTY
Coulomb
SciTegic.value.DoubleValue
44.787

@<SCITEGIC>MOL_PROPERTY
VdW
SciTegic.value.DoubleValue
0.920

@<SCITEGIC>MOL_PROPERTY
VdW6
SciTegic.value.DoubleValue
-8.128

@<SCITEGIC>MOL_PROPERTY
VdW12
SciTegic.value.DoubleValue
9.048

@<SCITEGIC>MOL_PROPERTY
Bond
SciTegic.value.DoubleValue
0.202

@<SCITEGIC>MOL_PROPERTY
Angle
SciTegic.value.DoubleValue
0.764

@<SCITEGIC>MOL_PROPERTY
Pdih
SciTegic.value.DoubleValue
2.425

@<SCITEGIC>MOL_PROPERTY
Idih
SciTegic.value.DoubleValue
0.000

@<SCITEGIC>MOL_PROPERTY
Tether
SciTegic.value.DoubleValue
0.000

@<TRIPOS>MOLECULE
guest-3_vm2.mol2 : vm2 ligand conformer 36
          29          28           1
SMALL
USER_CHARGES
 
@<TRIPOS>ATOM
       1    C1      19.954490   19.636027   19.523389 C.3        1 MOL1        -0.2427
       2    H1      21.021111   19.377900   19.550228 H          1 MOL1         0.0958
       3    H2      19.668244   19.772002   18.472434 H          1 MOL1         0.0958
       4    H3      19.820800   20.600466   20.028804 H          1 MOL1         0.0958
       5    C2      19.098172   18.528467   20.178015 C.3        1 MOL1        -0.1412
       6    H4      19.170387   17.617739   19.567180 H          1 MOL1         0.0947
       7    H5      18.039713   18.823832   20.165807 H          1 MOL1         0.0947
       8    C3      19.530744   18.191093   21.625238 C.3        1 MOL1        -0.1437
       9    H6      18.948650   17.325323   21.970040 H          1 MOL1         0.0947
      10    H7      20.583706   17.877280   21.629616 H          1 MOL1         0.0947
      11    C4      19.330863   19.361854   22.617251 C.3        1 MOL1        -0.1437
      12    H8      18.288621   19.706669   22.572483 H          1 MOL1         0.0947
      13    H9      19.961460   20.211414   22.324112 H          1 MOL1         0.0947
      14    C5      19.676470   18.950849   24.066341 C.3        1 MOL1        -0.1437
      15    H10     19.046265   18.100935   24.360430 H          1 MOL1         0.0947
      16    H11     20.718652   18.605347   24.109690 H          1 MOL1         0.0947
      17    C6      19.478901   20.122597   25.057644 C.3        1 MOL1        -0.1437
      18    H12     18.429844   20.449419   25.041148 H          1 MOL1         0.0947
      19    H13     20.077360   20.982026   24.725042 H          1 MOL1         0.0947
      20    C7      19.885397   19.766671   26.506893 C.3        1 MOL1        -0.1477
      21    H14     20.940612   19.463388   26.530273 H          1 MOL1         0.0947
      22    H15     19.802734   20.666253   27.131282 H          1 MOL1         0.0947
      23    C8      19.012565   18.651761   27.112786 C.3        1 MOL1         0.0145
      24    H16     19.120519   17.736329   26.525426 H          1 MOL1         0.0921
      25    H17     17.962048   18.953915   27.090775 H          1 MOL1         0.0921
      26    N1      19.376397   18.328683   28.547444 N.4        1 MOL1        -0.5969
      27    H18     19.269327   19.143178   29.161157 H          1 MOL1         0.3603
      28    H19     20.347897   18.011848   28.632888 H          1 MOL1         0.3603
      29    H20     18.784173   17.584542   28.932425 H          1 MOL1         0.3603
@<TRIPOS>BOND
    1     1     2    1
    2     1     3    1
    3     1     4    1
    4     1     5    1
    5     5     6    1
    6     5     7    1
    7     5     8    1
    8     8     9    1
    9     8    10    1
   10     8    11    1
   11    11    12    1
   12    11    13    1
   13    11    14    1
   14    14    15    1
   15    14    16    1
   16    14    17    1
   17    17    18    1
   18    17    19    1
   19    17    20    1
   20    20    21    1
   21    20    22    1
   22    20    23    1
   23    23    24    1
   24    23    25    1
   25    23    26    1
   26    26    27    1
   27    26    28    1
   28    26    29    1
@<TRIPOS>SUBSTRUCTURE
       1 MOL1            1 RESIDUE      1      MOL     
@<SCITEGIC>MOL_PROPERTY
VM2 Rank
SciTegic.value.IntegerValue
36

@<SCITEGIC>MOL_PROPERTY
Conf_Id
SciTegic.value.IntegerValue
2263

@<SCITEGIC>MOL_PROPERTY
Probability
SciTegic.value.DoubleValue
0.78

@<SCITEGIC>MOL_PROPERTY
Sum Probability
SciTegic.value.DoubleValue
52.85

@<SCITEGIC>MOL_PROPERTY
Delta G
SciTegic.value.DoubleValue
1.143

@<SCITEGIC>MOL_PROPERTY
G
SciTegic.value.DoubleValue
59.289

@<SCITEGIC>MOL_PROPERTY
E
SciTegic.value.DoubleValue
21.894

@<SCITEGIC>MOL_PROPERTY
-TS
SciTegic.value.DoubleValue
37.395

@<SCITEGIC>MOL_PROPERTY
U+W
SciTegic.value.DoubleValue
-2.250

@<SCITEGIC>MOL_PROPERTY
U
SciTegic.value.DoubleValue
49.086

@<SCITEGIC>MOL_PROPERTY
W
SciTegic.value.DoubleValue
-51.336

@<SCITEGIC>MOL_PROPERTY
W(PB)
SciTegic.value.DoubleValue
-53.921

@<SCITEGIC>MOL_PROPERTY
W(SA)
SciTegic.value.DoubleValue
2.584

@<SCITEGIC>MOL_PROPERTY
Valence
SciTegic.value.DoubleValue
3.390

@<SCITEGIC>MOL_PROPERTY
Coulomb
SciTegic.value.DoubleValue
44.772

@<SCITEGIC>MOL_PROPERTY
VdW
SciTegic.value.DoubleValue
0.924

@<SCITEGIC>MOL_PROPERTY
VdW6
SciTegic.value.DoubleValue
-8.126

@<SCITEGIC>MOL_PROPERTY
VdW12
SciTegic.value.DoubleValue
9.049

@<SCITEGIC>MOL_PROPERTY
Bond
SciTegic.value.DoubleValue
0.202

@<SCITEGIC>MOL_PROPERTY
Angle
SciTegic.value.DoubleValue
0.764

@<SCITEGIC>MOL_PROPERTY
Pdih
SciTegic.value.DoubleValue
2.424

@<SCITEGIC>MOL_PROPERTY
Idih
SciTegic.value.DoubleValue
0.000

@<SCITEGIC>MOL_PROPERTY
Tether
SciTegic.value.DoubleValue
0.000

@<TRIPOS>MOLECULE
guest-3_vm2.mol2 : vm2 ligand conformer 37
          29          28           1
SMALL
USER_CHARGES
 
@<TRIPOS>ATOM
       1    C1      20.772286   18.629957   19.641231 C.3        1 MOL1        -0.2427
       2    H1      21.667521   19.234462   19.837128 H          1 MOL1         0.0958
       3    H2      21.101520   17.647083   19.279840 H          1 MOL1         0.0958
       4    H3      20.203680   19.111981   18.835267 H          1 MOL1         0.0958
       5    C2      19.913599   18.482451   20.915158 C.3        1 MOL1        -0.1412
       6    H4      20.501433   17.961044   21.682119 H          1 MOL1         0.0947
       7    H5      19.042229   17.849783   20.695801 H          1 MOL1         0.0947
       8    C3      19.441178   19.856469   21.446046 C.3        1 MOL1        -0.1437
       9    H6      20.312629   20.469056   21.715345 H          1 MOL1         0.0947
      10    H7      18.925455   20.393016   20.637682 H          1 MOL1         0.0947
      11    C4      18.482279   19.756714   22.657760 C.3        1 MOL1        -0.1437
      12    H8      17.602910   19.158443   22.382007 H          1 MOL1         0.0947
      13    H9      18.109689   20.764050   22.889665 H          1 MOL1         0.0947
      14    C5      19.144141   19.161081   23.923478 C.3        1 MOL1        -0.1437
      15    H10     19.450472   18.124295   23.732784 H          1 MOL1         0.0947
      16    H11     20.055985   19.727812   24.154153 H          1 MOL1         0.0947
      17    C6      18.183949   19.188956   25.136731 C.3        1 MOL1        -0.1437
      18    H12     17.254691   18.664828   24.873694 H          1 MOL1         0.0947
      19    H13     17.902084   20.226625   25.363413 H          1 MOL1         0.0947
      20    C7      18.784154   18.530378   26.400986 C.3        1 MOL1        -0.1477
      21    H14     18.019762   18.509893   27.189165 H          1 MOL1         0.0947
      22    H15     19.041907   17.484840   26.185551 H          1 MOL1         0.0947
      23    C8      20.027580   19.272819   26.925012 C.3        1 MOL1         0.0145
      24    H16     19.770996   20.313469   27.140845 H          1 MOL1         0.0921
      25    H17     20.813198   19.261763   26.165173 H          1 MOL1         0.0921
      26    N1      20.594835   18.659176   28.188598 N.4        1 MOL1        -0.5969
      27    H18     21.421500   19.167721   28.521286 H          1 MOL1         0.3603
      28    H19     20.880936   17.685028   28.044850 H          1 MOL1         0.3603
      29    H20     19.913081   18.663786   28.954560 H          1 MOL1         0.3603
@<TRIPOS>BOND
    1     1     2    1
    2     1     3    1
    3     1     4    1
    4     1     5    1
    5     5     6    1
    6     5     7    1
    7     5     8    1
    8     8     9    1
    9     8    10    1
   10     8    11    1
   11    11    12    1
   12    11    13    1
   13    11    14    1
   14    14    15    1
   15    14    16    1
   16    14    17    1
   17    17    18    1
   18    17    19    1
   19    17    20    1
   20    20    21    1
   21    20    22    1
   22    20    23    1
   23    23    24    1
   24    23    25    1
   25    23    26    1
   26    26    27    1
   27    26    28    1
   28    26    29    1
@<TRIPOS>SUBSTRUCTURE
       1 MOL1            1 RESIDUE      1      MOL     
@<SCITEGIC>MOL_PROPERTY
VM2 Rank
SciTegic.value.IntegerValue
37

@<SCITEGIC>MOL_PROPERTY
Conf_Id
SciTegic.value.IntegerValue
2540

@<SCITEGIC>MOL_PROPERTY
Probability
SciTegic.value.DoubleValue
0.72

@<SCITEGIC>MOL_PROPERTY
Sum Probability
SciTegic.value.DoubleValue
53.57

@<SCITEGIC>MOL_PROPERTY
Delta G
SciTegic.value.DoubleValue
1.186

@<SCITEGIC>MOL_PROPERTY
G
SciTegic.value.DoubleValue
59.333

@<SCITEGIC>MOL_PROPERTY
E
SciTegic.value.DoubleValue
21.948

@<SCITEGIC>MOL_PROPERTY
-TS
SciTegic.value.DoubleValue
37.385

@<SCITEGIC>MOL_PROPERTY
U+W
SciTegic.value.DoubleValue
-2.197

@<SCITEGIC>MOL_PROPERTY
U
SciTegic.value.DoubleValue
49.333

@<SCITEGIC>MOL_PROPERTY
W
SciTegic.value.DoubleValue
-51.530

@<SCITEGIC>MOL_PROPERTY
W(PB)
SciTegic.value.DoubleValue
-54.060

@<SCITEGIC>MOL_PROPERTY
W(SA)
SciTegic.value.DoubleValue
2.530

@<SCITEGIC>MOL_PROPERTY
Valence
SciTegic.value.DoubleValue
3.429

@<SCITEGIC>MOL_PROPERTY
Coulomb
SciTegic.value.DoubleValue
45.008

@<SCITEGIC>MOL_PROPERTY
VdW
SciTegic.value.DoubleValue
0.896

@<SCITEGIC>MOL_PROPERTY
VdW6
SciTegic.value.DoubleValue
-8.187

@<SCITEGIC>MOL_PROPERTY
VdW12
SciTegic.value.DoubleValue
9.083

@<SCITEGIC>MOL_PROPERTY
Bond
SciTegic.value.DoubleValue
0.206

@<SCITEGIC>MOL_PROPERTY
Angle
SciTegic.value.DoubleValue
0.786

@<SCITEGIC>MOL_PROPERTY
Pdih
SciTegic.value.DoubleValue
2.437

@<SCITEGIC>MOL_PROPERTY
Idih
SciTegic.value.DoubleValue
0.000

@<SCITEGIC>MOL_PROPERTY
Tether
SciTegic.value.DoubleValue
0.000

@<TRIPOS>MOLECULE
guest-3_vm2.mol2 : vm2 ligand conformer 38
          29          28           1
SMALL
USER_CHARGES
 
@<TRIPOS>ATOM
       1    C1      20.363832   19.318336   19.277829 C.3        1 MOL1        -0.2427
       2    H1      20.969591   18.402870   19.262770 H          1 MOL1         0.0958
       3    H2      19.984015   19.487979   18.261952 H          1 MOL1         0.0958
       4    H3      21.020762   20.158934   19.536822 H          1 MOL1         0.0958
       5    C2      19.198175   19.195457   20.281865 C.3        1 MOL1        -0.1412
       6    H4      18.540533   18.369378   19.976952 H          1 MOL1         0.0947
       7    H5      18.591895   20.111624   20.250776 H          1 MOL1         0.0947
       8    C3      19.705699   18.955120   21.720906 C.3        1 MOL1        -0.1437
       9    H6      20.309023   18.037254   21.747356 H          1 MOL1         0.0947
      10    H7      20.368227   19.781720   22.008402 H          1 MOL1         0.0947
      11    C4      18.537361   18.836185   22.728996 C.3        1 MOL1        -0.1437
      12    H8      17.843057   18.059636   22.379333 H          1 MOL1         0.0947
      13    H9      17.966029   19.774535   22.747425 H          1 MOL1         0.0947
      14    C5      18.989564   18.475847   24.165571 C.3        1 MOL1        -0.1437
      15    H10     18.090950   18.281056   24.765565 H          1 MOL1         0.0947
      16    H11     19.557624   17.535557   24.146529 H          1 MOL1         0.0947
      17    C6      19.834360   19.583714   24.844707 C.3        1 MOL1        -0.1437
      18    H12     19.276624   20.530448   24.841651 H          1 MOL1         0.0947
      19    H13     20.749271   19.758722   24.264214 H          1 MOL1         0.0947
      20    C7      20.243106   19.231134   26.294361 C.3        1 MOL1        -0.1477
      21    H14     20.807293   18.288973   26.300060 H          1 MOL1         0.0947
      22    H15     20.923154   20.007020   26.670522 H          1 MOL1         0.0947
      23    C8      19.036316   19.118910   27.244807 C.3        1 MOL1         0.0145
      24    H16     18.373457   18.317083   26.909882 H          1 MOL1         0.0921
      25    H17     18.474246   20.056672   27.238102 H          1 MOL1         0.0921
      26    N1      19.435587   18.823297   28.675959 N.4        1 MOL1        -0.5969
      27    H18     19.946902   17.937929   28.754553 H          1 MOL1         0.3603
      28    H19     18.618628   18.752619   29.292615 H          1 MOL1         0.3603
      29    H20     20.039428   19.556147   29.063004 H          1 MOL1         0.3603
@<TRIPOS>BOND
    1     1     2    1
    2     1     3    1
    3     1     4    1
    4     1     5    1
    5     5     6    1
    6     5     7    1
    7     5     8    1
    8     8     9    1
    9     8    10    1
   10     8    11    1
   11    11    12    1
   12    11    13    1
   13    11    14    1
   14    14    15    1
   15    14    16    1
   16    14    17    1
   17    17    18    1
   18    17    19    1
   19    17    20    1
   20    20    21    1
   21    20    22    1
   22    20    23    1
   23    23    24    1
   24    23    25    1
   25    23    26    1
   26    26    27    1
   27    26    28    1
   28    26    29    1
@<TRIPOS>SUBSTRUCTURE
       1 MOL1            1 RESIDUE      1      MOL     
@<SCITEGIC>MOL_PROPERTY
VM2 Rank
SciTegic.value.IntegerValue
38

@<SCITEGIC>MOL_PROPERTY
Conf_Id
SciTegic.value.IntegerValue
1608

@<SCITEGIC>MOL_PROPERTY
Probability
SciTegic.value.DoubleValue
0.71

@<SCITEGIC>MOL_PROPERTY
Sum Probability
SciTegic.value.DoubleValue
54.28

@<SCITEGIC>MOL_PROPERTY
Delta G
SciTegic.value.DoubleValue
1.200

@<SCITEGIC>MOL_PROPERTY
G
SciTegic.value.DoubleValue
59.346

@<SCITEGIC>MOL_PROPERTY
E
SciTegic.value.DoubleValue
21.991

@<SCITEGIC>MOL_PROPERTY
-TS
SciTegic.value.DoubleValue
37.355

@<SCITEGIC>MOL_PROPERTY
U+W
SciTegic.value.DoubleValue
-2.154

@<SCITEGIC>MOL_PROPERTY
U
SciTegic.value.DoubleValue
49.234

@<SCITEGIC>MOL_PROPERTY
W
SciTegic.value.DoubleValue
-51.388

@<SCITEGIC>MOL_PROPERTY
W(PB)
SciTegic.value.DoubleValue
-53.937

@<SCITEGIC>MOL_PROPERTY
W(SA)
SciTegic.value.DoubleValue
2.550

@<SCITEGIC>MOL_PROPERTY
Valence
SciTegic.value.DoubleValue
3.474

@<SCITEGIC>MOL_PROPERTY
Coulomb
SciTegic.value.DoubleValue
44.816

@<SCITEGIC>MOL_PROPERTY
VdW
SciTegic.value.DoubleValue
0.944

@<SCITEGIC>MOL_PROPERTY
VdW6
SciTegic.value.DoubleValue
-8.147

@<SCITEGIC>MOL_PROPERTY
VdW12
SciTegic.value.DoubleValue
9.090

@<SCITEGIC>MOL_PROPERTY
Bond
SciTegic.value.DoubleValue
0.214

@<SCITEGIC>MOL_PROPERTY
Angle
SciTegic.value.DoubleValue
0.815

@<SCITEGIC>MOL_PROPERTY
Pdih
SciTegic.value.DoubleValue
2.445

@<SCITEGIC>MOL_PROPERTY
Idih
SciTegic.value.DoubleValue
0.000

@<SCITEGIC>MOL_PROPERTY
Tether
SciTegic.value.DoubleValue
0.000

@<TRIPOS>MOLECULE
guest-3_vm2.mol2 : vm2 ligand conformer 39
          29          28           1
SMALL
USER_CHARGES
 
@<TRIPOS>ATOM
       1    C1      20.395343   18.416157   19.522103 C.3        1 MOL1        -0.2427
       2    H1      21.472222   18.481475   19.725357 H          1 MOL1         0.0958
       3    H2      20.231620   17.571861   18.839898 H          1 MOL1         0.0958
       4    H3      20.089078   19.333575   19.002681 H          1 MOL1         0.0958
       5    C2      19.595184   18.224752   20.827822 C.3        1 MOL1        -0.1412
       6    H4      19.899001   17.283430   21.306873 H          1 MOL1         0.0947
       7    H5      18.526488   18.129071   20.589864 H          1 MOL1         0.0947
       8    C3      19.808162   19.400612   21.806559 C.3        1 MOL1        -0.1437
       9    H6      20.877808   19.493552   22.040261 H          1 MOL1         0.0947
      10    H7      19.505774   20.339338   21.322074 H          1 MOL1         0.0947
      11    C4      19.008144   19.212580   23.115182 C.3        1 MOL1        -0.1437
      12    H8      19.311739   18.269373   23.588030 H          1 MOL1         0.0947
      13    H9      17.938191   19.124122   22.881585 H          1 MOL1         0.0947
      14    C5      19.227582   20.389161   24.095942 C.3        1 MOL1        -0.1437
      15    H10     20.289991   20.452280   24.367103 H          1 MOL1         0.0947
      16    H11     18.990074   21.331303   23.582836 H          1 MOL1         0.0947
      17    C6      18.358002   20.299248   25.376590 C.3        1 MOL1        -0.1437
      18    H12     17.296868   20.344278   25.095177 H          1 MOL1         0.0947
      19    H13     18.545159   21.189909   25.992314 H          1 MOL1         0.0947
      20    C7      18.595875   19.035134   26.239579 C.3        1 MOL1        -0.1477
      21    H14     17.954066   19.088246   27.129009 H          1 MOL1         0.0947
      22    H15     18.283147   18.139051   25.688568 H          1 MOL1         0.0947
      23    C8      20.062235   18.885495   26.685224 C.3        1 MOL1         0.0145
      24    H16     20.369537   19.773627   27.243886 H          1 MOL1         0.0921
      25    H17     20.706592   18.789914   25.807365 H          1 MOL1         0.0921
      26    N1      20.293472   17.674862   27.566000 N.4        1 MOL1        -0.5969
      27    H18     19.735264   17.715977   28.425166 H          1 MOL1         0.3603
      28    H19     21.275577   17.593524   27.851418 H          1 MOL1         0.3603
      29    H20     20.047743   16.801916   27.087552 H          1 MOL1         0.3603
@<TRIPOS>BOND
    1     1     2    1
    2     1     3    1
    3     1     4    1
    4     1     5    1
    5     5     6    1
    6     5     7    1
    7     5     8    1
    8     8     9    1
    9     8    10    1
   10     8    11    1
   11    11    12    1
   12    11    13    1
   13    11    14    1
   14    14    15    1
   15    14    16    1
   16    14    17    1
   17    17    18    1
   18    17    19    1
   19    17    20    1
   20    20    21    1
   21    20    22    1
   22    20    23    1
   23    23    24    1
   24    23    25    1
   25    23    26    1
   26    26    27    1
   27    26    28    1
   28    26    29    1
@<TRIPOS>SUBSTRUCTURE
       1 MOL1            1 RESIDUE      1      MOL     
@<SCITEGIC>MOL_PROPERTY
VM2 Rank
SciTegic.value.IntegerValue
39

@<SCITEGIC>MOL_PROPERTY
Conf_Id
SciTegic.value.IntegerValue
1980

@<SCITEGIC>MOL_PROPERTY
Probability
SciTegic.value.DoubleValue
0.70

@<SCITEGIC>MOL_PROPERTY
Sum Probability
SciTegic.value.DoubleValue
54.98

@<SCITEGIC>MOL_PROPERTY
Delta G
SciTegic.value.DoubleValue
1.202

@<SCITEGIC>MOL_PROPERTY
G
SciTegic.value.DoubleValue
59.348

@<SCITEGIC>MOL_PROPERTY
E
SciTegic.value.DoubleValue
21.824

@<SCITEGIC>MOL_PROPERTY
-TS
SciTegic.value.DoubleValue
37.524

@<SCITEGIC>MOL_PROPERTY
U+W
SciTegic.value.DoubleValue
-2.321

@<SCITEGIC>MOL_PROPERTY
U
SciTegic.value.DoubleValue
49.532

@<SCITEGIC>MOL_PROPERTY
W
SciTegic.value.DoubleValue
-51.853

@<SCITEGIC>MOL_PROPERTY
W(PB)
SciTegic.value.DoubleValue
-54.379

@<SCITEGIC>MOL_PROPERTY
W(SA)
SciTegic.value.DoubleValue
2.526

@<SCITEGIC>MOL_PROPERTY
Valence
SciTegic.value.DoubleValue
3.341

@<SCITEGIC>MOL_PROPERTY
Coulomb
SciTegic.value.DoubleValue
45.459

@<SCITEGIC>MOL_PROPERTY
VdW
SciTegic.value.DoubleValue
0.732

@<SCITEGIC>MOL_PROPERTY
VdW6
SciTegic.value.DoubleValue
-8.518

@<SCITEGIC>MOL_PROPERTY
VdW12
SciTegic.value.DoubleValue
9.251

@<SCITEGIC>MOL_PROPERTY
Bond
SciTegic.value.DoubleValue
0.212

@<SCITEGIC>MOL_PROPERTY
Angle
SciTegic.value.DoubleValue
0.893

@<SCITEGIC>MOL_PROPERTY
Pdih
SciTegic.value.DoubleValue
2.236

@<SCITEGIC>MOL_PROPERTY
Idih
SciTegic.value.DoubleValue
0.000

@<SCITEGIC>MOL_PROPERTY
Tether
SciTegic.value.DoubleValue
0.000

@<TRIPOS>MOLECULE
guest-3_vm2.mol2 : vm2 ligand conformer 40
          29          28           1
SMALL
USER_CHARGES
 
@<TRIPOS>ATOM
       1    C1      20.814055   18.747161   19.643906 C.3        1 MOL1        -0.2427
       2    H1      21.122857   17.705690   19.802739 H          1 MOL1         0.0958
       3    H2      20.080253   18.765667   18.827555 H          1 MOL1         0.0958
       4    H3      21.695471   19.314171   19.317342 H          1 MOL1         0.0958
       5    C2      20.223909   19.353175   20.934823 C.3        1 MOL1        -0.1412
       6    H4      19.951731   20.402294   20.753326 H          1 MOL1         0.0947
       7    H5      20.998051   19.354558   21.713506 H          1 MOL1         0.0947
       8    C3      18.981933   18.567188   21.417180 C.3        1 MOL1        -0.1437
       9    H6      18.254739   18.510044   20.595458 H          1 MOL1         0.0947
      10    H7      19.266189   17.531603   21.649507 H          1 MOL1         0.0947
      11    C4      18.284724   19.202182   22.645339 C.3        1 MOL1        -0.1437
      12    H8      17.356196   18.648672   22.842294 H          1 MOL1         0.0947
      13    H9      17.985201   20.231877   22.406020 H          1 MOL1         0.0947
      14    C5      19.156068   19.194778   23.924239 C.3        1 MOL1        -0.1437
      15    H10     19.501314   18.170770   24.119350 H          1 MOL1         0.0947
      16    H11     20.051281   19.811302   23.770554 H          1 MOL1         0.0947
      17    C6      18.377182   19.731792   25.148855 C.3        1 MOL1        -0.1437
      18    H12     17.499962   19.097591   25.338230 H          1 MOL1         0.0947
      19    H13     17.991827   20.735039   24.919911 H          1 MOL1         0.0947
      20    C7      19.240616   19.812379   26.429595 C.3        1 MOL1        -0.1477
      21    H14     20.103949   20.467472   26.252097 H          1 MOL1         0.0947
      22    H15     18.650034   20.279945   27.228679 H          1 MOL1         0.0947
      23    C8      19.727883   18.431322   26.906226 C.3        1 MOL1         0.0145
      24    H16     20.354292   17.973551   26.136337 H          1 MOL1         0.0921
      25    H17     18.868531   17.779321   27.084484 H          1 MOL1         0.0921
      26    N1      20.537630   18.498023   28.184836 N.4        1 MOL1        -0.5969
      27    H18     20.852358   17.568909   28.485450 H          1 MOL1         0.3603
      28    H19     19.995705   18.894928   28.959620 H          1 MOL1         0.3603
      29    H20     21.376835   19.077049   28.075542 H          1 MOL1         0.3603
@<TRIPOS>BOND
    1     1     2    1
    2     1     3    1
    3     1     4    1
    4     1     5    1
    5     5     6    1
    6     5     7    1
    7     5     8    1
    8     8     9    1
    9     8    10    1
   10     8    11    1
   11    11    12    1
   12    11    13    1
   13    11    14    1
   14    14    15    1
   15    14    16    1
   16    14    17    1
   17    17    18    1
   18    17    19    1
   19    17    20    1
   20    20    21    1
   21    20    22    1
   22    20    23    1
   23    23    24    1
   24    23    25    1
   25    23    26    1
   26    26    27    1
   27    26    28    1
   28    26    29    1
@<TRIPOS>SUBSTRUCTURE
       1 MOL1            1 RESIDUE      1      MOL     
@<SCITEGIC>MOL_PROPERTY
VM2 Rank
SciTegic.value.IntegerValue
40

@<SCITEGIC>MOL_PROPERTY
Conf_Id
SciTegic.value.IntegerValue
2279

@<SCITEGIC>MOL_PROPERTY
Probability
SciTegic.value.DoubleValue
0.69

@<SCITEGIC>MOL_PROPERTY
Sum Probability
SciTegic.value.DoubleValue
55.68

@<SCITEGIC>MOL_PROPERTY
Delta G
SciTegic.value.DoubleValue
1.210

@<SCITEGIC>MOL_PROPERTY
G
SciTegic.value.DoubleValue
59.357

@<SCITEGIC>MOL_PROPERTY
E
SciTegic.value.DoubleValue
21.972

@<SCITEGIC>MOL_PROPERTY
-TS
SciTegic.value.DoubleValue
37.385

@<SCITEGIC>MOL_PROPERTY
U+W
SciTegic.value.DoubleValue
-2.172

@<SCITEGIC>MOL_PROPERTY
U
SciTegic.value.DoubleValue
49.333

@<SCITEGIC>MOL_PROPERTY
W
SciTegic.value.DoubleValue
-51.506

@<SCITEGIC>MOL_PROPERTY
W(PB)
SciTegic.value.DoubleValue
-54.050

@<SCITEGIC>MOL_PROPERTY
W(SA)
SciTegic.value.DoubleValue
2.544

@<SCITEGIC>MOL_PROPERTY
Valence
SciTegic.value.DoubleValue
3.429

@<SCITEGIC>MOL_PROPERTY
Coulomb
SciTegic.value.DoubleValue
45.008

@<SCITEGIC>MOL_PROPERTY
VdW
SciTegic.value.DoubleValue
0.896

@<SCITEGIC>MOL_PROPERTY
VdW6
SciTegic.value.DoubleValue
-8.187

@<SCITEGIC>MOL_PROPERTY
VdW12
SciTegic.value.DoubleValue
9.084

@<SCITEGIC>MOL_PROPERTY
Bond
SciTegic.value.DoubleValue
0.206

@<SCITEGIC>MOL_PROPERTY
Angle
SciTegic.value.DoubleValue
0.786

@<SCITEGIC>MOL_PROPERTY
Pdih
SciTegic.value.DoubleValue
2.437

@<SCITEGIC>MOL_PROPERTY
Idih
SciTegic.value.DoubleValue
0.000

@<SCITEGIC>MOL_PROPERTY
Tether
SciTegic.value.DoubleValue
0.000

@<TRIPOS>MOLECULE
guest-3_vm2.mol2 : vm2 ligand conformer 41
          29          28           1
SMALL
USER_CHARGES
 
@<TRIPOS>ATOM
       1    C1      20.230604   17.878080   19.740576 C.3        1 MOL1        -0.2427
       2    H1      19.709282   18.364274   18.905664 H          1 MOL1         0.0958
       3    H2      21.281291   18.195654   19.719231 H          1 MOL1         0.0958
       4    H3      20.202421   16.794081   19.569728 H          1 MOL1         0.0958
       5    C2      19.571358   18.234358   21.089816 C.3        1 MOL1        -0.1412
       6    H4      20.093586   17.698388   21.893310 H          1 MOL1         0.0947
       7    H5      18.531490   17.878915   21.092161 H          1 MOL1         0.0947
       8    C3      19.603264   19.758148   21.354653 C.3        1 MOL1        -0.1437
       9    H6      20.645045   20.103427   21.406526 H          1 MOL1         0.0947
      10    H7      19.148676   20.278040   20.500036 H          1 MOL1         0.0947
      11    C4      18.851732   20.180410   22.640996 C.3        1 MOL1        -0.1437
      12    H8      17.806350   19.847268   22.582156 H          1 MOL1         0.0947
      13    H9      18.823793   21.278065   22.681725 H          1 MOL1         0.0947
      14    C5      19.498679   19.643934   23.940492 C.3        1 MOL1        -0.1437
      15    H10     19.467828   18.547325   23.941744 H          1 MOL1         0.0947
      16    H11     20.557665   19.935277   23.969581 H          1 MOL1         0.0947
      17    C6      18.780409   20.182751   25.200923 C.3        1 MOL1        -0.1437
      18    H12     17.727360   19.868773   25.190101 H          1 MOL1         0.0947
      19    H13     18.777439   21.281212   25.173782 H          1 MOL1         0.0947
      20    C7      19.442490   19.722078   26.520725 C.3        1 MOL1        -0.1477
      21    H14     20.488827   20.054676   26.544411 H          1 MOL1         0.0947
      22    H15     18.937219   20.213213   27.363002 H          1 MOL1         0.0947
      23    C8      19.379577   18.195824   26.717326 C.3        1 MOL1         0.0145
      24    H16     19.918502   17.695528   25.908685 H          1 MOL1         0.0921
      25    H17     18.337903   17.864512   26.694462 H          1 MOL1         0.0921
      26    N1      19.985887   17.742418   28.029494 N.4        1 MOL1        -0.5969
      27    H18     20.975395   18.001309   28.102540 H          1 MOL1         0.3603
      28    H19     19.934149   16.723855   28.141407 H          1 MOL1         0.3603
      29    H20     19.505251   18.156193   28.835275 H          1 MOL1         0.3603
@<TRIPOS>BOND
    1     1     2    1
    2     1     3    1
    3     1     4    1
    4     1     5    1
    5     5     6    1
    6     5     7    1
    7     5     8    1
    8     8     9    1
    9     8    10    1
   10     8    11    1
   11    11    12    1
   12    11    13    1
   13    11    14    1
   14    14    15    1
   15    14    16    1
   16    14    17    1
   17    17    18    1
   18    17    19    1
   19    17    20    1
   20    20    21    1
   21    20    22    1
   22    20    23    1
   23    23    24    1
   24    23    25    1
   25    23    26    1
   26    26    27    1
   27    26    28    1
   28    26    29    1
@<TRIPOS>SUBSTRUCTURE
       1 MOL1            1 RESIDUE      1      MOL     
@<SCITEGIC>MOL_PROPERTY
VM2 Rank
SciTegic.value.IntegerValue
41

@<SCITEGIC>MOL_PROPERTY
Conf_Id
SciTegic.value.IntegerValue
2601

@<SCITEGIC>MOL_PROPERTY
Probability
SciTegic.value.DoubleValue
0.68

@<SCITEGIC>MOL_PROPERTY
Sum Probability
SciTegic.value.DoubleValue
56.35

@<SCITEGIC>MOL_PROPERTY
Delta G
SciTegic.value.DoubleValue
1.224

@<SCITEGIC>MOL_PROPERTY
G
SciTegic.value.DoubleValue
59.371

@<SCITEGIC>MOL_PROPERTY
E
SciTegic.value.DoubleValue
21.989

@<SCITEGIC>MOL_PROPERTY
-TS
SciTegic.value.DoubleValue
37.381

@<SCITEGIC>MOL_PROPERTY
U+W
SciTegic.value.DoubleValue
-2.155

@<SCITEGIC>MOL_PROPERTY
U
SciTegic.value.DoubleValue
49.444

@<SCITEGIC>MOL_PROPERTY
W
SciTegic.value.DoubleValue
-51.599

@<SCITEGIC>MOL_PROPERTY
W(PB)
SciTegic.value.DoubleValue
-54.122

@<SCITEGIC>MOL_PROPERTY
W(SA)
SciTegic.value.DoubleValue
2.523

@<SCITEGIC>MOL_PROPERTY
Valence
SciTegic.value.DoubleValue
3.428

@<SCITEGIC>MOL_PROPERTY
Coulomb
SciTegic.value.DoubleValue
45.119

@<SCITEGIC>MOL_PROPERTY
VdW
SciTegic.value.DoubleValue
0.896

@<SCITEGIC>MOL_PROPERTY
VdW6
SciTegic.value.DoubleValue
-8.201

@<SCITEGIC>MOL_PROPERTY
VdW12
SciTegic.value.DoubleValue
9.097

@<SCITEGIC>MOL_PROPERTY
Bond
SciTegic.value.DoubleValue
0.208

@<SCITEGIC>MOL_PROPERTY
Angle
SciTegic.value.DoubleValue
0.785

@<SCITEGIC>MOL_PROPERTY
Pdih
SciTegic.value.DoubleValue
2.436

@<SCITEGIC>MOL_PROPERTY
Idih
SciTegic.value.DoubleValue
0.000

@<SCITEGIC>MOL_PROPERTY
Tether
SciTegic.value.DoubleValue
0.000

@<TRIPOS>MOLECULE
guest-3_vm2.mol2 : vm2 ligand conformer 42
          29          28           1
SMALL
USER_CHARGES
 
@<TRIPOS>ATOM
       1    C1      20.867766   19.667640   19.780594 C.3        1 MOL1        -0.2427
       2    H1      21.481972   18.758993   19.731979 H          1 MOL1         0.0958
       3    H2      20.168418   19.653462   18.934458 H          1 MOL1         0.0958
       4    H3      21.532975   20.531535   19.653237 H          1 MOL1         0.0958
       5    C2      20.112581   19.754779   21.123758 C.3        1 MOL1        -0.1412
       6    H4      19.530945   20.686665   21.154735 H          1 MOL1         0.0947
       7    H5      20.844522   19.808182   21.940457 H          1 MOL1         0.0947
       8    C3      19.171168   18.544284   21.327566 C.3        1 MOL1        -0.1437
       9    H6      18.502509   18.462659   20.459499 H          1 MOL1         0.0947
      10    H7      19.759928   17.616910   21.351093 H          1 MOL1         0.0947
      11    C4      18.303722   18.641087   22.606611 C.3        1 MOL1        -0.1437
      12    H8      17.588226   17.807213   22.604236 H          1 MOL1         0.0947
      13    H9      17.704602   19.561612   22.575704 H          1 MOL1         0.0947
      14    C5      19.125703   18.596456   23.917104 C.3        1 MOL1        -0.1437
      15    H10     19.762193   17.700883   23.919740 H          1 MOL1         0.0947
      16    H11     19.794369   19.464994   23.962205 H          1 MOL1         0.0947
      17    C6      18.210830   18.583024   25.165200 C.3        1 MOL1        -0.1437
      18    H12     17.515062   17.735507   25.094596 H          1 MOL1         0.0947
      19    H13     17.593067   19.491709   25.181699 H          1 MOL1         0.0947
      20    C7      18.996402   18.469172   26.492737 C.3        1 MOL1        -0.1477
      21    H14     18.282650   18.374765   27.321948 H          1 MOL1         0.0947
      22    H15     19.596962   17.549763   26.488473 H          1 MOL1         0.0947
      23    C8      19.909015   19.682745   26.750492 C.3        1 MOL1         0.0145
      24    H16     19.311261   20.598190   26.755408 H          1 MOL1         0.0921
      25    H17     20.654201   19.761621   25.954808 H          1 MOL1         0.0921
      26    N1      20.646813   19.598812   28.070938 N.4        1 MOL1        -0.5969
      27    H18     20.001496   19.550272   28.866372 H          1 MOL1         0.3603
      28    H19     21.248622   20.415593   28.223798 H          1 MOL1         0.3603
      29    H20     21.249120   18.770363   28.119786 H          1 MOL1         0.3603
@<TRIPOS>BOND
    1     1     2    1
    2     1     3    1
    3     1     4    1
    4     1     5    1
    5     5     6    1
    6     5     7    1
    7     5     8    1
    8     8     9    1
    9     8    10    1
   10     8    11    1
   11    11    12    1
   12    11    13    1
   13    11    14    1
   14    14    15    1
   15    14    16    1
   16    14    17    1
   17    17    18    1
   18    17    19    1
   19    17    20    1
   20    20    21    1
   21    20    22    1
   22    20    23    1
   23    23    24    1
   24    23    25    1
   25    23    26    1
   26    26    27    1
   27    26    28    1
   28    26    29    1
@<TRIPOS>SUBSTRUCTURE
       1 MOL1            1 RESIDUE      1      MOL     
@<SCITEGIC>MOL_PROPERTY
VM2 Rank
SciTegic.value.IntegerValue
42

@<SCITEGIC>MOL_PROPERTY
Conf_Id
SciTegic.value.IntegerValue
1920

@<SCITEGIC>MOL_PROPERTY
Probability
SciTegic.value.DoubleValue
0.67

@<SCITEGIC>MOL_PROPERTY
Sum Probability
SciTegic.value.DoubleValue
57.03

@<SCITEGIC>MOL_PROPERTY
Delta G
SciTegic.value.DoubleValue
1.230

@<SCITEGIC>MOL_PROPERTY
G
SciTegic.value.DoubleValue
59.376

@<SCITEGIC>MOL_PROPERTY
E
SciTegic.value.DoubleValue
21.995

@<SCITEGIC>MOL_PROPERTY
-TS
SciTegic.value.DoubleValue
37.381

@<SCITEGIC>MOL_PROPERTY
U+W
SciTegic.value.DoubleValue
-2.149

@<SCITEGIC>MOL_PROPERTY
U
SciTegic.value.DoubleValue
49.444

@<SCITEGIC>MOL_PROPERTY
W
SciTegic.value.DoubleValue
-51.593

@<SCITEGIC>MOL_PROPERTY
W(PB)
SciTegic.value.DoubleValue
-54.118

@<SCITEGIC>MOL_PROPERTY
W(SA)
SciTegic.value.DoubleValue
2.525

@<SCITEGIC>MOL_PROPERTY
Valence
SciTegic.value.DoubleValue
3.428

@<SCITEGIC>MOL_PROPERTY
Coulomb
SciTegic.value.DoubleValue
45.119

@<SCITEGIC>MOL_PROPERTY
VdW
SciTegic.value.DoubleValue
0.897

@<SCITEGIC>MOL_PROPERTY
VdW6
SciTegic.value.DoubleValue
-8.201

@<SCITEGIC>MOL_PROPERTY
VdW12
SciTegic.value.DoubleValue
9.098

@<SCITEGIC>MOL_PROPERTY
Bond
SciTegic.value.DoubleValue
0.208

@<SCITEGIC>MOL_PROPERTY
Angle
SciTegic.value.DoubleValue
0.784

@<SCITEGIC>MOL_PROPERTY
Pdih
SciTegic.value.DoubleValue
2.436

@<SCITEGIC>MOL_PROPERTY
Idih
SciTegic.value.DoubleValue
0.000

@<SCITEGIC>MOL_PROPERTY
Tether
SciTegic.value.DoubleValue
0.000

@<TRIPOS>MOLECULE
guest-3_vm2.mol2 : vm2 ligand conformer 43
          29          28           1
SMALL
USER_CHARGES
 
@<TRIPOS>ATOM
       1    C1      18.480342   18.677986   19.809170 C.3        1 MOL1        -0.2427
       2    H1      18.811906   17.660502   20.050794 H          1 MOL1         0.0958
       3    H2      17.508176   18.846690   20.290260 H          1 MOL1         0.0958
       4    H3      18.330699   18.727355   18.722852 H          1 MOL1         0.0958
       5    C2      19.514528   19.733630   20.261323 C.3        1 MOL1        -0.1412
       6    H4      19.196908   20.720407   19.896455 H          1 MOL1         0.0947
       7    H5      20.484201   19.527850   19.786874 H          1 MOL1         0.0947
       8    C3      19.687486   19.803537   21.797648 C.3        1 MOL1        -0.1437
       9    H6      20.357568   20.640934   22.036033 H          1 MOL1         0.0947
      10    H7      18.718542   20.039416   22.256818 H          1 MOL1         0.0947
      11    C4      20.264783   18.502211   22.409575 C.3        1 MOL1        -0.1437
      12    H8      21.166899   18.214333   21.852466 H          1 MOL1         0.0947
      13    H9      19.548855   17.678712   22.287488 H          1 MOL1         0.0947
      14    C5      20.634492   18.636653   23.907107 C.3        1 MOL1        -0.1437
      15    H10     21.132647   17.710890   24.226710 H          1 MOL1         0.0947
      16    H11     21.370780   19.442399   24.033360 H          1 MOL1         0.0947
      17    C6      19.414235   18.895294   24.823104 C.3        1 MOL1        -0.1437
      18    H12     18.657124   18.116687   24.655476 H          1 MOL1         0.0947
      19    H13     18.947891   19.855250   24.564946 H          1 MOL1         0.0947
      20    C7      19.811458   18.913596   26.315519 C.3        1 MOL1        -0.1477
      21    H14     20.269049   17.953397   26.588842 H          1 MOL1         0.0947
      22    H15     20.567219   19.691695   26.487278 H          1 MOL1         0.0947
      23    C8      18.593508   19.174801   27.218863 C.3        1 MOL1         0.0145
      24    H16     17.845079   18.393111   27.063071 H          1 MOL1         0.0921
      25    H17     18.144188   20.137900   26.961948 H          1 MOL1         0.0921
      26    N1      18.943168   19.200292   28.692692 N.4        1 MOL1        -0.5969
      27    H18     19.625100   19.934429   28.910753 H          1 MOL1         0.3603
      28    H19     19.346773   18.310790   29.004837 H          1 MOL1         0.3603
      29    H20     18.118152   19.375559   29.276960 H          1 MOL1         0.3603
@<TRIPOS>BOND
    1     1     2    1
    2     1     3    1
    3     1     4    1
    4     1     5    1
    5     5     6    1
    6     5     7    1
    7     5     8    1
    8     8     9    1
    9     8    10    1
   10     8    11    1
   11    11    12    1
   12    11    13    1
   13    11    14    1
   14    14    15    1
   15    14    16    1
   16    14    17    1
   17    17    18    1
   18    17    19    1
   19    17    20    1
   20    20    21    1
   21    20    22    1
   22    20    23    1
   23    23    24    1
   24    23    25    1
   25    23    26    1
   26    26    27    1
   27    26    28    1
   28    26    29    1
@<TRIPOS>SUBSTRUCTURE
       1 MOL1            1 RESIDUE      1      MOL     
@<SCITEGIC>MOL_PROPERTY
VM2 Rank
SciTegic.value.IntegerValue
43

@<SCITEGIC>MOL_PROPERTY
Conf_Id
SciTegic.value.IntegerValue
1193

@<SCITEGIC>MOL_PROPERTY
Probability
SciTegic.value.DoubleValue
0.67

@<SCITEGIC>MOL_PROPERTY
Sum Probability
SciTegic.value.DoubleValue
57.69

@<SCITEGIC>MOL_PROPERTY
Delta G
SciTegic.value.DoubleValue
1.231

@<SCITEGIC>MOL_PROPERTY
G
SciTegic.value.DoubleValue
59.378

@<SCITEGIC>MOL_PROPERTY
E
SciTegic.value.DoubleValue
21.956

@<SCITEGIC>MOL_PROPERTY
-TS
SciTegic.value.DoubleValue
37.421

@<SCITEGIC>MOL_PROPERTY
U+W
SciTegic.value.DoubleValue
-2.188

@<SCITEGIC>MOL_PROPERTY
U
SciTegic.value.DoubleValue
49.092

@<SCITEGIC>MOL_PROPERTY
W
SciTegic.value.DoubleValue
-51.280

@<SCITEGIC>MOL_PROPERTY
W(PB)
SciTegic.value.DoubleValue
-53.790

@<SCITEGIC>MOL_PROPERTY
W(SA)
SciTegic.value.DoubleValue
2.510

@<SCITEGIC>MOL_PROPERTY
Valence
SciTegic.value.DoubleValue
3.601

@<SCITEGIC>MOL_PROPERTY
Coulomb
SciTegic.value.DoubleValue
44.542

@<SCITEGIC>MOL_PROPERTY
VdW
SciTegic.value.DoubleValue
0.948

@<SCITEGIC>MOL_PROPERTY
VdW6
SciTegic.value.DoubleValue
-8.237

@<SCITEGIC>MOL_PROPERTY
VdW12
SciTegic.value.DoubleValue
9.185

@<SCITEGIC>MOL_PROPERTY
Bond
SciTegic.value.DoubleValue
0.219

@<SCITEGIC>MOL_PROPERTY
Angle
SciTegic.value.DoubleValue
0.852

@<SCITEGIC>MOL_PROPERTY
Pdih
SciTegic.value.DoubleValue
2.529

@<SCITEGIC>MOL_PROPERTY
Idih
SciTegic.value.DoubleValue
0.000

@<SCITEGIC>MOL_PROPERTY
Tether
SciTegic.value.DoubleValue
0.000

@<TRIPOS>MOLECULE
guest-3_vm2.mol2 : vm2 ligand conformer 44
          29          28           1
SMALL
USER_CHARGES
 
@<TRIPOS>ATOM
       1    C1      21.193354   18.917613   20.163518 C.3        1 MOL1        -0.2427
       2    H1      22.045031   18.980302   20.853405 H          1 MOL1         0.0958
       3    H2      21.471658   18.241184   19.344968 H          1 MOL1         0.0958
       4    H3      21.026163   19.914458   19.735042 H          1 MOL1         0.0958
       5    C2      19.929801   18.406198   20.887196 C.3        1 MOL1        -0.1412
       6    H4      20.116278   17.395368   21.276182 H          1 MOL1         0.0947
       7    H5      19.105640   18.321278   20.165115 H          1 MOL1         0.0947
       8    C3      19.515734   19.341637   22.044461 C.3        1 MOL1        -0.1437
       9    H6      20.350243   19.425136   22.752957 H          1 MOL1         0.0947
      10    H7      19.327512   20.350134   21.651231 H          1 MOL1         0.0947
      11    C4      18.252405   18.827035   22.774953 C.3        1 MOL1        -0.1437
      12    H8      18.449812   17.836957   23.206617 H          1 MOL1         0.0947
      13    H9      17.449694   18.679769   22.039305 H          1 MOL1         0.0947
      14    C5      17.734322   19.791178   23.873380 C.3        1 MOL1        -0.1437
      15    H10     17.424983   20.734080   23.401743 H          1 MOL1         0.0947
      16    H11     16.823624   19.364310   24.315644 H          1 MOL1         0.0947
      17    C6      18.741835   20.109857   25.008259 C.3        1 MOL1        -0.1437
      18    H12     18.259210   20.798884   25.715274 H          1 MOL1         0.0947
      19    H13     19.606139   20.652341   24.602577 H          1 MOL1         0.0947
      20    C7      19.224108   18.858175   25.777886 C.3        1 MOL1        -0.1477
      21    H14     18.357106   18.295417   26.148610 H          1 MOL1         0.0947
      22    H15     19.779551   18.192702   25.104923 H          1 MOL1         0.0947
      23    C8      20.129074   19.242747   26.961291 C.3        1 MOL1         0.0145
      24    H16     19.580021   19.891513   27.649096 H          1 MOL1         0.0921
      25    H17     21.001954   19.789686   26.594724 H          1 MOL1         0.0921
      26    N1      20.623368   18.043560   27.744057 N.4        1 MOL1        -0.5969
      27    H18     19.848781   17.500130   28.139272 H          1 MOL1         0.3603
      28    H19     21.223793   18.321857   28.528112 H          1 MOL1         0.3603
      29    H20     21.172654   17.405409   27.158843 H          1 MOL1         0.3603
@<TRIPOS>BOND
    1     1     2    1
    2     1     3    1
    3     1     4    1
    4     1     5    1
    5     5     6    1
    6     5     7    1
    7     5     8    1
    8     8     9    1
    9     8    10    1
   10     8    11    1
   11    11    12    1
   12    11    13    1
   13    11    14    1
   14    14    15    1
   15    14    16    1
   16    14    17    1
   17    17    18    1
   18    17    19    1
   19    17    20    1
   20    20    21    1
   21    20    22    1
   22    20    23    1
   23    23    24    1
   24    23    25    1
   25    23    26    1
   26    26    27    1
   27    26    28    1
   28    26    29    1
@<TRIPOS>SUBSTRUCTURE
       1 MOL1            1 RESIDUE      1      MOL     
@<SCITEGIC>MOL_PROPERTY
VM2 Rank
SciTegic.value.IntegerValue
44

@<SCITEGIC>MOL_PROPERTY
Conf_Id
SciTegic.value.IntegerValue
1671

@<SCITEGIC>MOL_PROPERTY
Probability
SciTegic.value.DoubleValue
0.64

@<SCITEGIC>MOL_PROPERTY
Sum Probability
SciTegic.value.DoubleValue
58.34

@<SCITEGIC>MOL_PROPERTY
Delta G
SciTegic.value.DoubleValue
1.255

@<SCITEGIC>MOL_PROPERTY
G
SciTegic.value.DoubleValue
59.401

@<SCITEGIC>MOL_PROPERTY
E
SciTegic.value.DoubleValue
21.765

@<SCITEGIC>MOL_PROPERTY
-TS
SciTegic.value.DoubleValue
37.636

@<SCITEGIC>MOL_PROPERTY
U+W
SciTegic.value.DoubleValue
-2.379

@<SCITEGIC>MOL_PROPERTY
U
SciTegic.value.DoubleValue
49.533

@<SCITEGIC>MOL_PROPERTY
W
SciTegic.value.DoubleValue
-51.913

@<SCITEGIC>MOL_PROPERTY
W(PB)
SciTegic.value.DoubleValue
-54.419

@<SCITEGIC>MOL_PROPERTY
W(SA)
SciTegic.value.DoubleValue
2.506

@<SCITEGIC>MOL_PROPERTY
Valence
SciTegic.value.DoubleValue
3.571

@<SCITEGIC>MOL_PROPERTY
Coulomb
SciTegic.value.DoubleValue
45.223

@<SCITEGIC>MOL_PROPERTY
VdW
SciTegic.value.DoubleValue
0.739

@<SCITEGIC>MOL_PROPERTY
VdW6
SciTegic.value.DoubleValue
-8.664

@<SCITEGIC>MOL_PROPERTY
VdW12
SciTegic.value.DoubleValue
9.403

@<SCITEGIC>MOL_PROPERTY
Bond
SciTegic.value.DoubleValue
0.229

@<SCITEGIC>MOL_PROPERTY
Angle
SciTegic.value.DoubleValue
1.076

@<SCITEGIC>MOL_PROPERTY
Pdih
SciTegic.value.DoubleValue
2.266

@<SCITEGIC>MOL_PROPERTY
Idih
SciTegic.value.DoubleValue
0.000

@<SCITEGIC>MOL_PROPERTY
Tether
SciTegic.value.DoubleValue
0.000

@<TRIPOS>MOLECULE
guest-3_vm2.mol2 : vm2 ligand conformer 45
          29          28           1
SMALL
USER_CHARGES
 
@<TRIPOS>ATOM
       1    C1      20.950627   18.237155   20.147924 C.3        1 MOL1        -0.2427
       2    H1      20.196957   17.588385   19.682817 H          1 MOL1         0.0958
       3    H2      21.605249   18.617130   19.352864 H          1 MOL1         0.0958
       4    H3      21.561208   17.622958   20.822596 H          1 MOL1         0.0958
       5    C2      20.284853   19.402947   20.909171 C.3        1 MOL1        -0.1412
       6    H4      19.710079   20.018219   20.202822 H          1 MOL1         0.0947
       7    H5      21.062848   20.051923   21.335100 H          1 MOL1         0.0947
       8    C3      19.356604   18.894903   22.034342 C.3        1 MOL1        -0.1437
       9    H6      18.578777   18.249042   21.604260 H          1 MOL1         0.0947
      10    H7      19.940464   18.274687   22.727006 H          1 MOL1         0.0947
      11    C4      18.692940   20.062719   22.802579 C.3        1 MOL1        -0.1437
      12    H8      18.174529   20.713348   22.084845 H          1 MOL1         0.0947
      13    H9      19.465691   20.686908   23.270341 H          1 MOL1         0.0947
      14    C5      17.666603   19.600510   23.869126 C.3        1 MOL1        -0.1437
      15    H10     17.224592   20.488956   24.340799 H          1 MOL1         0.0947
      16    H11     16.837605   19.085057   23.364879 H          1 MOL1         0.0947
      17    C6      18.229711   18.672034   24.976117 C.3        1 MOL1        -0.1437
      18    H12     18.562367   17.722063   24.537044 H          1 MOL1         0.0947
      19    H13     17.410217   18.415673   25.661875 H          1 MOL1         0.0947
      20    C7      19.383453   19.305426   25.788094 C.3        1 MOL1        -0.1477
      21    H14     20.243986   19.496243   25.134395 H          1 MOL1         0.0947
      22    H15     19.061984   20.274151   26.193134 H          1 MOL1         0.0947
      23    C8      19.824798   18.388805   26.942360 C.3        1 MOL1         0.0145
      24    H16     20.160839   17.428476   26.542015 H          1 MOL1         0.0921
      25    H17     18.979541   18.206214   27.611415 H          1 MOL1         0.0921
      26    N1      20.954410   18.973500   27.765286 N.4        1 MOL1        -0.5969
      27    H18     20.691882   19.867820   28.192804 H          1 MOL1         0.3603
      28    H19     21.791646   19.143724   27.198288 H          1 MOL1         0.3603
      29    H20     21.232680   18.347434   28.529032 H          1 MOL1         0.3603
@<TRIPOS>BOND
    1     1     2    1
    2     1     3    1
    3     1     4    1
    4     1     5    1
    5     5     6    1
    6     5     7    1
    7     5     8    1
    8     8     9    1
    9     8    10    1
   10     8    11    1
   11    11    12    1
   12    11    13    1
   13    11    14    1
   14    14    15    1
   15    14    16    1
   16    14    17    1
   17    17    18    1
   18    17    19    1
   19    17    20    1
   20    20    21    1
   21    20    22    1
   22    20    23    1
   23    23    24    1
   24    23    25    1
   25    23    26    1
   26    26    27    1
   27    26    28    1
   28    26    29    1
@<TRIPOS>SUBSTRUCTURE
       1 MOL1            1 RESIDUE      1      MOL     
@<SCITEGIC>MOL_PROPERTY
VM2 Rank
SciTegic.value.IntegerValue
45

@<SCITEGIC>MOL_PROPERTY
Conf_Id
SciTegic.value.IntegerValue
2631

@<SCITEGIC>MOL_PROPERTY
Probability
SciTegic.value.DoubleValue
0.64

@<SCITEGIC>MOL_PROPERTY
Sum Probability
SciTegic.value.DoubleValue
58.98

@<SCITEGIC>MOL_PROPERTY
Delta G
SciTegic.value.DoubleValue
1.256

@<SCITEGIC>MOL_PROPERTY
G
SciTegic.value.DoubleValue
59.402

@<SCITEGIC>MOL_PROPERTY
E
SciTegic.value.DoubleValue
21.767

@<SCITEGIC>MOL_PROPERTY
-TS
SciTegic.value.DoubleValue
37.635

@<SCITEGIC>MOL_PROPERTY
U+W
SciTegic.value.DoubleValue
-2.378

@<SCITEGIC>MOL_PROPERTY
U
SciTegic.value.DoubleValue
49.533

@<SCITEGIC>MOL_PROPERTY
W
SciTegic.value.DoubleValue
-51.911

@<SCITEGIC>MOL_PROPERTY
W(PB)
SciTegic.value.DoubleValue
-54.430

@<SCITEGIC>MOL_PROPERTY
W(SA)
SciTegic.value.DoubleValue
2.519

@<SCITEGIC>MOL_PROPERTY
Valence
SciTegic.value.DoubleValue
3.571

@<SCITEGIC>MOL_PROPERTY
Coulomb
SciTegic.value.DoubleValue
45.223

@<SCITEGIC>MOL_PROPERTY
VdW
SciTegic.value.DoubleValue
0.739

@<SCITEGIC>MOL_PROPERTY
VdW6
SciTegic.value.DoubleValue
-8.663

@<SCITEGIC>MOL_PROPERTY
VdW12
SciTegic.value.DoubleValue
9.402

@<SCITEGIC>MOL_PROPERTY
Bond
SciTegic.value.DoubleValue
0.229

@<SCITEGIC>MOL_PROPERTY
Angle
SciTegic.value.DoubleValue
1.076

@<SCITEGIC>MOL_PROPERTY
Pdih
SciTegic.value.DoubleValue
2.267

@<SCITEGIC>MOL_PROPERTY
Idih
SciTegic.value.DoubleValue
0.000

@<SCITEGIC>MOL_PROPERTY
Tether
SciTegic.value.DoubleValue
0.000

@<TRIPOS>MOLECULE
guest-3_vm2.mol2 : vm2 ligand conformer 46
          29          28           1
SMALL
USER_CHARGES
 
@<TRIPOS>ATOM
       1    C1      19.003767   20.150514   19.842024 C.3        1 MOL1        -0.2427
       2    H1      18.871695   20.249653   18.756829 H          1 MOL1         0.0958
       3    H2      18.136493   20.614127   20.329789 H          1 MOL1         0.0958
       4    H3      19.899559   20.720143   20.118920 H          1 MOL1         0.0958
       5    C2      19.133660   18.662179   20.237448 C.3        1 MOL1        -0.1412
       6    H4      20.022348   18.228641   19.757877 H          1 MOL1         0.0947
       7    H5      18.269828   18.112400   19.838352 H          1 MOL1         0.0947
       8    C3      19.202184   18.438075   21.767213 C.3        1 MOL1        -0.1437
       9    H6      18.295211   18.848303   22.230296 H          1 MOL1         0.0947
      10    H7      19.190486   17.357021   21.962811 H          1 MOL1         0.0947
      11    C4      20.462335   19.058164   22.421958 C.3        1 MOL1        -0.1437
      12    H8      20.428055   20.152760   22.342635 H          1 MOL1         0.0947
      13    H9      21.351640   18.734268   21.864027 H          1 MOL1         0.0947
      14    C5      20.643347   18.661523   23.907649 C.3        1 MOL1        -0.1437
      15    H10     20.704740   17.567687   23.991537 H          1 MOL1         0.0947
      16    H11     21.609224   19.052230   24.256610 H          1 MOL1         0.0947
      17    C6      19.520501   19.194348   24.829762 C.3        1 MOL1        -0.1437
      18    H12     18.556900   18.754567   24.540446 H          1 MOL1         0.0947
      19    H13     19.426344   20.281907   24.703686 H          1 MOL1         0.0947
      20    C7      19.796246   18.870686   26.314564 C.3        1 MOL1        -0.1477
      21    H14     19.889697   17.784214   26.444796 H          1 MOL1         0.0947
      22    H15     20.752958   19.315640   26.619189 H          1 MOL1         0.0947
      23    C8      18.673685   19.400470   27.223877 C.3        1 MOL1         0.0145
      24    H16     17.721347   18.947355   26.935446 H          1 MOL1         0.0921
      25    H17     18.587923   20.484464   27.109592 H          1 MOL1         0.0921
      26    N1      18.908274   19.102041   28.690505 N.4        1 MOL1        -0.5969
      27    H18     19.777932   19.524784   29.031865 H          1 MOL1         0.3603
      28    H19     18.971581   18.094380   28.869815 H          1 MOL1         0.3603
      29    H20     18.149290   19.463258   29.278897 H          1 MOL1         0.3603
@<TRIPOS>BOND
    1     1     2    1
    2     1     3    1
    3     1     4    1
    4     1     5    1
    5     5     6    1
    6     5     7    1
    7     5     8    1
    8     8     9    1
    9     8    10    1
   10     8    11    1
   11    11    12    1
   12    11    13    1
   13    11    14    1
   14    14    15    1
   15    14    16    1
   16    14    17    1
   17    17    18    1
   18    17    19    1
   19    17    20    1
   20    20    21    1
   21    20    22    1
   22    20    23    1
   23    23    24    1
   24    23    25    1
   25    23    26    1
   26    26    27    1
   27    26    28    1
   28    26    29    1
@<TRIPOS>SUBSTRUCTURE
       1 MOL1            1 RESIDUE      1      MOL     
@<SCITEGIC>MOL_PROPERTY
VM2 Rank
SciTegic.value.IntegerValue
46

@<SCITEGIC>MOL_PROPERTY
Conf_Id
SciTegic.value.IntegerValue
2632

@<SCITEGIC>MOL_PROPERTY
Probability
SciTegic.value.DoubleValue
0.64

@<SCITEGIC>MOL_PROPERTY
Sum Probability
SciTegic.value.DoubleValue
59.62

@<SCITEGIC>MOL_PROPERTY
Delta G
SciTegic.value.DoubleValue
1.258

@<SCITEGIC>MOL_PROPERTY
G
SciTegic.value.DoubleValue
59.404

@<SCITEGIC>MOL_PROPERTY
E
SciTegic.value.DoubleValue
21.982

@<SCITEGIC>MOL_PROPERTY
-TS
SciTegic.value.DoubleValue
37.422

@<SCITEGIC>MOL_PROPERTY
U+W
SciTegic.value.DoubleValue
-2.163

@<SCITEGIC>MOL_PROPERTY
U
SciTegic.value.DoubleValue
49.092

@<SCITEGIC>MOL_PROPERTY
W
SciTegic.value.DoubleValue
-51.254

@<SCITEGIC>MOL_PROPERTY
W(PB)
SciTegic.value.DoubleValue
-53.762

@<SCITEGIC>MOL_PROPERTY
W(SA)
SciTegic.value.DoubleValue
2.507

@<SCITEGIC>MOL_PROPERTY
Valence
SciTegic.value.DoubleValue
3.601

@<SCITEGIC>MOL_PROPERTY
Coulomb
SciTegic.value.DoubleValue
44.542

@<SCITEGIC>MOL_PROPERTY
VdW
SciTegic.value.DoubleValue
0.949

@<SCITEGIC>MOL_PROPERTY
VdW6
SciTegic.value.DoubleValue
-8.237

@<SCITEGIC>MOL_PROPERTY
VdW12
SciTegic.value.DoubleValue
9.186

@<SCITEGIC>MOL_PROPERTY
Bond
SciTegic.value.DoubleValue
0.220

@<SCITEGIC>MOL_PROPERTY
Angle
SciTegic.value.DoubleValue
0.852

@<SCITEGIC>MOL_PROPERTY
Pdih
SciTegic.value.DoubleValue
2.529

@<SCITEGIC>MOL_PROPERTY
Idih
SciTegic.value.DoubleValue
0.000

@<SCITEGIC>MOL_PROPERTY
Tether
SciTegic.value.DoubleValue
0.000

@<TRIPOS>MOLECULE
guest-3_vm2.mol2 : vm2 ligand conformer 47
          29          28           1
SMALL
USER_CHARGES
 
@<TRIPOS>ATOM
       1    C1      20.068032   18.486880   19.259274 C.3        1 MOL1        -0.2427
       2    H1      21.115995   18.813769   19.272059 H          1 MOL1         0.0958
       3    H2      20.042732   17.410833   19.475429 H          1 MOL1         0.0958
       4    H3      19.680869   18.635691   18.242906 H          1 MOL1         0.0958
       5    C2      19.227780   19.278386   20.283693 C.3        1 MOL1        -0.1412
       6    H4      18.179614   18.953149   20.224773 H          1 MOL1         0.0947
       7    H5      19.244043   20.345465   20.021115 H          1 MOL1         0.0947
       8    C3      19.752582   19.086839   21.723855 C.3        1 MOL1        -0.1437
       9    H6      19.739986   18.016964   21.968957 H          1 MOL1         0.0947
      10    H7      20.799609   19.415401   21.778221 H          1 MOL1         0.0947
      11    C4      18.907771   19.876878   22.752219 C.3        1 MOL1        -0.1437
      12    H8      17.871974   19.510452   22.741456 H          1 MOL1         0.0947
      13    H9      18.864984   20.930531   22.443454 H          1 MOL1         0.0947
      14    C5      19.465587   19.813305   24.195434 C.3        1 MOL1        -0.1437
      15    H10     20.500153   20.183131   24.205660 H          1 MOL1         0.0947
      16    H11     18.883696   20.508050   24.815253 H          1 MOL1         0.0947
      17    C6      19.410849   18.395055   24.818205 C.3        1 MOL1        -0.1437
      18    H12     20.017441   17.704503   24.218336 H          1 MOL1         0.0947
      19    H13     18.380489   18.014681   24.785654 H          1 MOL1         0.0947
      20    C7      19.930113   18.352361   26.274715 C.3        1 MOL1        -0.1477
      21    H14     19.961613   17.307195   26.610266 H          1 MOL1         0.0947
      22    H15     20.962565   18.724957   26.309626 H          1 MOL1         0.0947
      23    C8      19.052521   19.164150   27.245856 C.3        1 MOL1         0.0145
      24    H16     18.024513   18.793629   27.210130 H          1 MOL1         0.0921
      25    H17     19.050118   20.216896   26.952250 H          1 MOL1         0.0921
      26    N1      19.528766   19.084146   28.681748 N.4        1 MOL1        -0.5969
      27    H18     20.483332   19.443340   28.787947 H          1 MOL1         0.3603
      28    H19     19.528294   18.120025   29.030987 H          1 MOL1         0.3603
      29    H20     18.931696   19.630663   29.312231 H          1 MOL1         0.3603
@<TRIPOS>BOND
    1     1     2    1
    2     1     3    1
    3     1     4    1
    4     1     5    1
    5     5     6    1
    6     5     7    1
    7     5     8    1
    8     8     9    1
    9     8    10    1
   10     8    11    1
   11    11    12    1
   12    11    13    1
   13    11    14    1
   14    14    15    1
   15    14    16    1
   16    14    17    1
   17    17    18    1
   18    17    19    1
   19    17    20    1
   20    20    21    1
   21    20    22    1
   22    20    23    1
   23    23    24    1
   24    23    25    1
   25    23    26    1
   26    26    27    1
   27    26    28    1
   28    26    29    1
@<TRIPOS>SUBSTRUCTURE
       1 MOL1            1 RESIDUE      1      MOL     
@<SCITEGIC>MOL_PROPERTY
VM2 Rank
SciTegic.value.IntegerValue
47

@<SCITEGIC>MOL_PROPERTY
Conf_Id
SciTegic.value.IntegerValue
1184

@<SCITEGIC>MOL_PROPERTY
Probability
SciTegic.value.DoubleValue
0.64

@<SCITEGIC>MOL_PROPERTY
Sum Probability
SciTegic.value.DoubleValue
60.26

@<SCITEGIC>MOL_PROPERTY
Delta G
SciTegic.value.DoubleValue
1.260

@<SCITEGIC>MOL_PROPERTY
G
SciTegic.value.DoubleValue
59.406

@<SCITEGIC>MOL_PROPERTY
E
SciTegic.value.DoubleValue
22.052

@<SCITEGIC>MOL_PROPERTY
-TS
SciTegic.value.DoubleValue
37.354

@<SCITEGIC>MOL_PROPERTY
U+W
SciTegic.value.DoubleValue
-2.093

@<SCITEGIC>MOL_PROPERTY
U
SciTegic.value.DoubleValue
49.234

@<SCITEGIC>MOL_PROPERTY
W
SciTegic.value.DoubleValue
-51.327

@<SCITEGIC>MOL_PROPERTY
W(PB)
SciTegic.value.DoubleValue
-53.865

@<SCITEGIC>MOL_PROPERTY
W(SA)
SciTegic.value.DoubleValue
2.538

@<SCITEGIC>MOL_PROPERTY
Valence
SciTegic.value.DoubleValue
3.474

@<SCITEGIC>MOL_PROPERTY
Coulomb
SciTegic.value.DoubleValue
44.816

@<SCITEGIC>MOL_PROPERTY
VdW
SciTegic.value.DoubleValue
0.944

@<SCITEGIC>MOL_PROPERTY
VdW6
SciTegic.value.DoubleValue
-8.147

@<SCITEGIC>MOL_PROPERTY
VdW12
SciTegic.value.DoubleValue
9.091

@<SCITEGIC>MOL_PROPERTY
Bond
SciTegic.value.DoubleValue
0.214

@<SCITEGIC>MOL_PROPERTY
Angle
SciTegic.value.DoubleValue
0.815

@<SCITEGIC>MOL_PROPERTY
Pdih
SciTegic.value.DoubleValue
2.445

@<SCITEGIC>MOL_PROPERTY
Idih
SciTegic.value.DoubleValue
0.000

@<SCITEGIC>MOL_PROPERTY
Tether
SciTegic.value.DoubleValue
0.000

@<TRIPOS>MOLECULE
guest-3_vm2.mol2 : vm2 ligand conformer 48
          29          28           1
SMALL
USER_CHARGES
 
@<TRIPOS>ATOM
       1    C1      19.870389   17.721208   20.311352 C.3        1 MOL1        -0.2427
       2    H1      19.571598   17.212283   21.236261 H          1 MOL1         0.0958
       3    H2      19.012437   17.723302   19.626617 H          1 MOL1         0.0958
       4    H3      20.668204   17.125595   19.849216 H          1 MOL1         0.0958
       5    C2      20.361173   19.159654   20.590627 C.3        1 MOL1        -0.1412
       6    H4      20.759179   19.584661   19.658646 H          1 MOL1         0.0947
       7    H5      21.205176   19.133618   21.292751 H          1 MOL1         0.0947
       8    C3      19.248708   20.097731   21.124368 C.3        1 MOL1        -0.1437
       9    H6      19.671138   21.101868   21.267067 H          1 MOL1         0.0947
      10    H7      18.474332   20.204498   20.352333 H          1 MOL1         0.0947
      11    C4      18.574498   19.642682   22.444442 C.3        1 MOL1        -0.1437
      12    H8      18.050781   18.690286   22.288395 H          1 MOL1         0.0947
      13    H9      17.798029   20.374898   22.705357 H          1 MOL1         0.0947
      14    C5      19.560694   19.510371   23.629411 C.3        1 MOL1        -0.1437
      15    H10     20.301058   18.728968   23.413141 H          1 MOL1         0.0947
      16    H11     20.114568   20.451249   23.752447 H          1 MOL1         0.0947
      17    C6      18.830712   19.164048   24.946678 C.3        1 MOL1        -0.1437
      18    H12     18.273131   18.225322   24.821619 H          1 MOL1         0.0947
      19    H13     18.091766   19.944969   25.174331 H          1 MOL1         0.0947
      20    C7      19.813440   19.025309   26.130022 C.3        1 MOL1        -0.1477
      21    H14     20.550343   18.241580   25.909013 H          1 MOL1         0.0947
      22    H15     20.369474   19.963282   26.260913 H          1 MOL1         0.0947
      23    C8      19.076445   18.680864   27.436075 C.3        1 MOL1         0.0145
      24    H16     18.534496   17.738920   27.315712 H          1 MOL1         0.0921
      25    H17     18.353117   19.466973   27.669072 H          1 MOL1         0.0921
      26    N1      20.007942   18.536134   28.622025 N.4        1 MOL1        -0.5969
      27    H18     20.529355   19.399808   28.805705 H          1 MOL1         0.3603
      28    H19     20.698074   17.791678   28.476972 H          1 MOL1         0.3603
      29    H20     19.497133   18.306795   29.481807 H          1 MOL1         0.3603
@<TRIPOS>BOND
    1     1     2    1
    2     1     3    1
    3     1     4    1
    4     1     5    1
    5     5     6    1
    6     5     7    1
    7     5     8    1
    8     8     9    1
    9     8    10    1
   10     8    11    1
   11    11    12    1
   12    11    13    1
   13    11    14    1
   14    14    15    1
   15    14    16    1
   16    14    17    1
   17    17    18    1
   18    17    19    1
   19    17    20    1
   20    20    21    1
   21    20    22    1
   22    20    23    1
   23    23    24    1
   24    23    25    1
   25    23    26    1
   26    26    27    1
   27    26    28    1
   28    26    29    1
@<TRIPOS>SUBSTRUCTURE
       1 MOL1            1 RESIDUE      1      MOL     
@<SCITEGIC>MOL_PROPERTY
VM2 Rank
SciTegic.value.IntegerValue
48

@<SCITEGIC>MOL_PROPERTY
Conf_Id
SciTegic.value.IntegerValue
2460

@<SCITEGIC>MOL_PROPERTY
Probability
SciTegic.value.DoubleValue
0.61

@<SCITEGIC>MOL_PROPERTY
Sum Probability
SciTegic.value.DoubleValue
60.86

@<SCITEGIC>MOL_PROPERTY
Delta G
SciTegic.value.DoubleValue
1.291

@<SCITEGIC>MOL_PROPERTY
G
SciTegic.value.DoubleValue
59.437

@<SCITEGIC>MOL_PROPERTY
E
SciTegic.value.DoubleValue
21.821

@<SCITEGIC>MOL_PROPERTY
-TS
SciTegic.value.DoubleValue
37.616

@<SCITEGIC>MOL_PROPERTY
U+W
SciTegic.value.DoubleValue
-2.323

@<SCITEGIC>MOL_PROPERTY
U
SciTegic.value.DoubleValue
48.920

@<SCITEGIC>MOL_PROPERTY
W
SciTegic.value.DoubleValue
-51.243

@<SCITEGIC>MOL_PROPERTY
W(PB)
SciTegic.value.DoubleValue
-53.748

@<SCITEGIC>MOL_PROPERTY
W(SA)
SciTegic.value.DoubleValue
2.505

@<SCITEGIC>MOL_PROPERTY
Valence
SciTegic.value.DoubleValue
3.544

@<SCITEGIC>MOL_PROPERTY
Coulomb
SciTegic.value.DoubleValue
44.554

@<SCITEGIC>MOL_PROPERTY
VdW
SciTegic.value.DoubleValue
0.823

@<SCITEGIC>MOL_PROPERTY
VdW6
SciTegic.value.DoubleValue
-8.502

@<SCITEGIC>MOL_PROPERTY
VdW12
SciTegic.value.DoubleValue
9.325

@<SCITEGIC>MOL_PROPERTY
Bond
SciTegic.value.DoubleValue
0.224

@<SCITEGIC>MOL_PROPERTY
Angle
SciTegic.value.DoubleValue
1.044

@<SCITEGIC>MOL_PROPERTY
Pdih
SciTegic.value.DoubleValue
2.276

@<SCITEGIC>MOL_PROPERTY
Idih
SciTegic.value.DoubleValue
0.000

@<SCITEGIC>MOL_PROPERTY
Tether
SciTegic.value.DoubleValue
0.000

@<TRIPOS>MOLECULE
guest-3_vm2.mol2 : vm2 ligand conformer 49
          29          28           1
SMALL
USER_CHARGES
 
@<TRIPOS>ATOM
       1    C1      20.558749   17.818859   20.202580 C.3        1 MOL1        -0.2427
       2    H1      20.316148   16.856025   20.670882 H          1 MOL1         0.0958
       3    H2      19.976755   17.904786   19.275697 H          1 MOL1         0.0958
       4    H3      21.622542   17.803822   19.932161 H          1 MOL1         0.0958
       5    C2      20.256253   18.991870   21.158760 C.3        1 MOL1        -0.1412
       6    H4      20.536127   19.938252   20.675403 H          1 MOL1         0.0947
       7    H5      20.884418   18.892673   22.054021 H          1 MOL1         0.0947
       8    C3      18.762422   19.031375   21.557819 C.3        1 MOL1        -0.1437
       9    H6      18.150317   19.054133   20.645683 H          1 MOL1         0.0947
      10    H7      18.492123   18.102842   22.077674 H          1 MOL1         0.0947
      11    C4      18.384080   20.257408   22.428640 C.3        1 MOL1        -0.1437
      12    H8      17.306142   20.221452   22.638124 H          1 MOL1         0.0947
      13    H9      18.545272   21.172728   21.842679 H          1 MOL1         0.0947
      14    C5      19.152164   20.383931   23.769737 C.3        1 MOL1        -0.1437
      15    H10     20.220741   20.546304   23.576342 H          1 MOL1         0.0947
      16    H11     18.798916   21.287793   24.284996 H          1 MOL1         0.0947
      17    C6      18.967896   19.165865   24.706147 C.3        1 MOL1        -0.1437
      18    H12     19.383703   18.265226   24.235197 H          1 MOL1         0.0947
      19    H13     17.895991   18.980271   24.861178 H          1 MOL1         0.0947
      20    C7      19.656005   19.383047   26.071611 C.3        1 MOL1        -0.1477
      21    H14     20.727865   19.568026   25.919978 H          1 MOL1         0.0947
      22    H15     19.240148   20.275440   26.558188 H          1 MOL1         0.0947
      23    C8      19.472310   18.165349   26.994120 C.3        1 MOL1         0.0145
      24    H16     19.900163   17.277194   26.521283 H          1 MOL1         0.0921
      25    H17     18.406522   17.987139   27.160829 H          1 MOL1         0.0921
      26    N1      20.134121   18.340297   28.345587 N.4        1 MOL1        -0.5969
      27    H18     21.145590   18.485375   28.259583 H          1 MOL1         0.3603
      28    H19     19.999876   17.518273   28.944737 H          1 MOL1         0.3603
      29    H20     19.755613   19.145994   28.854622 H          1 MOL1         0.3603
@<TRIPOS>BOND
    1     1     2    1
    2     1     3    1
    3     1     4    1
    4     1     5    1
    5     5     6    1
    6     5     7    1
    7     5     8    1
    8     8     9    1
    9     8    10    1
   10     8    11    1
   11    11    12    1
   12    11    13    1
   13    11    14    1
   14    14    15    1
   15    14    16    1
   16    14    17    1
   17    17    18    1
   18    17    19    1
   19    17    20    1
   20    20    21    1
   21    20    22    1
   22    20    23    1
   23    23    24    1
   24    23    25    1
   25    23    26    1
   26    26    27    1
   27    26    28    1
   28    26    29    1
@<TRIPOS>SUBSTRUCTURE
       1 MOL1            1 RESIDUE      1      MOL     
@<SCITEGIC>MOL_PROPERTY
VM2 Rank
SciTegic.value.IntegerValue
49

@<SCITEGIC>MOL_PROPERTY
Conf_Id
SciTegic.value.IntegerValue
2862

@<SCITEGIC>MOL_PROPERTY
Probability
SciTegic.value.DoubleValue
0.61

@<SCITEGIC>MOL_PROPERTY
Sum Probability
SciTegic.value.DoubleValue
61.47

@<SCITEGIC>MOL_PROPERTY
Delta G
SciTegic.value.DoubleValue
1.291

@<SCITEGIC>MOL_PROPERTY
G
SciTegic.value.DoubleValue
59.438

@<SCITEGIC>MOL_PROPERTY
E
SciTegic.value.DoubleValue
21.804

@<SCITEGIC>MOL_PROPERTY
-TS
SciTegic.value.DoubleValue
37.633

@<SCITEGIC>MOL_PROPERTY
U+W
SciTegic.value.DoubleValue
-2.340

@<SCITEGIC>MOL_PROPERTY
U
SciTegic.value.DoubleValue
49.175

@<SCITEGIC>MOL_PROPERTY
W
SciTegic.value.DoubleValue
-51.515

@<SCITEGIC>MOL_PROPERTY
W(PB)
SciTegic.value.DoubleValue
-54.021

@<SCITEGIC>MOL_PROPERTY
W(SA)
SciTegic.value.DoubleValue
2.506

@<SCITEGIC>MOL_PROPERTY
Valence
SciTegic.value.DoubleValue
3.575

@<SCITEGIC>MOL_PROPERTY
Coulomb
SciTegic.value.DoubleValue
44.838

@<SCITEGIC>MOL_PROPERTY
VdW
SciTegic.value.DoubleValue
0.762

@<SCITEGIC>MOL_PROPERTY
VdW6
SciTegic.value.DoubleValue
-8.633

@<SCITEGIC>MOL_PROPERTY
VdW12
SciTegic.value.DoubleValue
9.396

@<SCITEGIC>MOL_PROPERTY
Bond
SciTegic.value.DoubleValue
0.229

@<SCITEGIC>MOL_PROPERTY
Angle
SciTegic.value.DoubleValue
1.080

@<SCITEGIC>MOL_PROPERTY
Pdih
SciTegic.value.DoubleValue
2.266

@<SCITEGIC>MOL_PROPERTY
Idih
SciTegic.value.DoubleValue
0.000

@<SCITEGIC>MOL_PROPERTY
Tether
SciTegic.value.DoubleValue
0.000

@<TRIPOS>MOLECULE
guest-3_vm2.mol2 : vm2 ligand conformer 50
          29          28           1
SMALL
USER_CHARGES
 
@<TRIPOS>ATOM
       1    C1      21.153206   19.487256   20.240041 C.3        1 MOL1        -0.2427
       2    H1      21.990845   18.837327   19.955504 H          1 MOL1         0.0958
       3    H2      20.661102   19.825293   19.318749 H          1 MOL1         0.0958
       4    H3      21.567053   20.367225   20.749549 H          1 MOL1         0.0958
       5    C2      20.163924   18.732646   21.153071 C.3        1 MOL1        -0.1412
       6    H4      20.700638   18.376949   22.042645 H          1 MOL1         0.0947
       7    H5      19.789558   17.842459   20.628650 H          1 MOL1         0.0947
       8    C3      18.975791   19.630332   21.571205 C.3        1 MOL1        -0.1437
       9    H6      19.345788   20.499232   22.131206 H          1 MOL1         0.0947
      10    H7      18.500042   20.035671   20.667576 H          1 MOL1         0.0947
      11    C4      17.895463   18.886046   22.397979 C.3        1 MOL1        -0.1437
      12    H8      17.450174   18.098966   21.773987 H          1 MOL1         0.0947
      13    H9      17.079994   19.586837   22.623877 H          1 MOL1         0.0947
      14    C5      18.391649   18.249575   23.722066 C.3        1 MOL1        -0.1437
      15    H10     17.539362   17.753021   24.206094 H          1 MOL1         0.0947
      16    H11     19.119617   17.456107   23.507359 H          1 MOL1         0.0947
      17    C6      19.005656   19.271626   24.708426 C.3        1 MOL1        -0.1437
      18    H12     18.290413   20.086784   24.885647 H          1 MOL1         0.0947
      19    H13     19.903846   19.724250   24.267713 H          1 MOL1         0.0947
      20    C7      19.382016   18.614625   26.054476 C.3        1 MOL1        -0.1477
      21    H14     18.488747   18.167925   26.511196 H          1 MOL1         0.0947
      22    H15     20.097453   17.799742   25.880668 H          1 MOL1         0.0947
      23    C8      19.996630   19.636535   27.026844 C.3        1 MOL1         0.0145
      24    H16     19.281362   20.441690   27.215451 H          1 MOL1         0.0921
      25    H17     20.896252   20.071907   26.583470 H          1 MOL1         0.0921
      26    N1      20.379665   19.029358   28.360891 N.4        1 MOL1        -0.5969
      27    H18     19.569897   18.625144   28.842988 H          1 MOL1         0.3603
      28    H19     20.786967   19.726616   28.993870 H          1 MOL1         0.3603
      29    H20     21.072674   18.281003   28.254982 H          1 MOL1         0.3603
@<TRIPOS>BOND
    1     1     2    1
    2     1     3    1
    3     1     4    1
    4     1     5    1
    5     5     6    1
    6     5     7    1
    7     5     8    1
    8     8     9    1
    9     8    10    1
   10     8    11    1
   11    11    12    1
   12    11    13    1
   13    11    14    1
   14    14    15    1
   15    14    16    1
   16    14    17    1
   17    17    18    1
   18    17    19    1
   19    17    20    1
   20    20    21    1
   21    20    22    1
   22    20    23    1
   23    23    24    1
   24    23    25    1
   25    23    26    1
   26    26    27    1
   27    26    28    1
   28    26    29    1
@<TRIPOS>SUBSTRUCTURE
       1 MOL1            1 RESIDUE      1      MOL     
@<SCITEGIC>MOL_PROPERTY
VM2 Rank
SciTegic.value.IntegerValue
50

@<SCITEGIC>MOL_PROPERTY
Conf_Id
SciTegic.value.IntegerValue
2322

@<SCITEGIC>MOL_PROPERTY
Probability
SciTegic.value.DoubleValue
0.60

@<SCITEGIC>MOL_PROPERTY
Sum Probability
SciTegic.value.DoubleValue
62.07

@<SCITEGIC>MOL_PROPERTY
Delta G
SciTegic.value.DoubleValue
1.294

@<SCITEGIC>MOL_PROPERTY
G
SciTegic.value.DoubleValue
59.440

@<SCITEGIC>MOL_PROPERTY
E
SciTegic.value.DoubleValue
21.807

@<SCITEGIC>MOL_PROPERTY
-TS
SciTegic.value.DoubleValue
37.633

@<SCITEGIC>MOL_PROPERTY
U+W
SciTegic.value.DoubleValue
-2.337

@<SCITEGIC>MOL_PROPERTY
U
SciTegic.value.DoubleValue
49.175

@<SCITEGIC>MOL_PROPERTY
W
SciTegic.value.DoubleValue
-51.513

@<SCITEGIC>MOL_PROPERTY
W(PB)
SciTegic.value.DoubleValue
-54.032

@<SCITEGIC>MOL_PROPERTY
W(SA)
SciTegic.value.DoubleValue
2.519

@<SCITEGIC>MOL_PROPERTY
Valence
SciTegic.value.DoubleValue
3.575

@<SCITEGIC>MOL_PROPERTY
Coulomb
SciTegic.value.DoubleValue
44.838

@<SCITEGIC>MOL_PROPERTY
VdW
SciTegic.value.DoubleValue
0.762

@<SCITEGIC>MOL_PROPERTY
VdW6
SciTegic.value.DoubleValue
-8.634

@<SCITEGIC>MOL_PROPERTY
VdW12
SciTegic.value.DoubleValue
9.396

@<SCITEGIC>MOL_PROPERTY
Bond
SciTegic.value.DoubleValue
0.229

@<SCITEGIC>MOL_PROPERTY
Angle
SciTegic.value.DoubleValue
1.080

@<SCITEGIC>MOL_PROPERTY
Pdih
SciTegic.value.DoubleValue
2.266

@<SCITEGIC>MOL_PROPERTY
Idih
SciTegic.value.DoubleValue
0.000

@<SCITEGIC>MOL_PROPERTY
Tether
SciTegic.value.DoubleValue
0.000

@<TRIPOS>MOLECULE
guest-3_vm2.mol2 : vm2 ligand conformer 51
          29          28           1
SMALL
USER_CHARGES
 
@<TRIPOS>ATOM
       1    C1      20.415271   20.225456   20.100962 C.3        1 MOL1        -0.2427
       2    H1      19.461856   20.590580   19.697582 H          1 MOL1         0.0958
       3    H2      20.665763   20.822629   20.986465 H          1 MOL1         0.0958
       4    H3      21.191740   20.410983   19.347567 H          1 MOL1         0.0958
       5    C2      20.336118   18.718853   20.436144 C.3        1 MOL1        -0.1412
       6    H4      21.291104   18.385141   20.865501 H          1 MOL1         0.0947
       7    H5      20.205056   18.154745   19.502142 H          1 MOL1         0.0947
       8    C3      19.176928   18.362864   21.397930 C.3        1 MOL1        -0.1437
       9    H6      18.222517   18.677492   20.953717 H          1 MOL1         0.0947
      10    H7      19.127435   17.269493   21.494872 H          1 MOL1         0.0947
      11    C4      19.329461   18.988013   22.805274 C.3        1 MOL1        -0.1437
      12    H8      19.303519   20.083063   22.731974 H          1 MOL1         0.0947
      13    H9      20.311447   18.715989   23.213439 H          1 MOL1         0.0947
      14    C5      18.209357   18.517312   23.763876 C.3        1 MOL1        -0.1437
      15    H10     17.233968   18.723303   23.301737 H          1 MOL1         0.0947
      16    H11     18.265308   17.427642   23.893382 H          1 MOL1         0.0947
      17    C6      18.250144   19.206629   25.149835 C.3        1 MOL1        -0.1437
      18    H12     17.360634   18.900005   25.717664 H          1 MOL1         0.0947
      19    H13     18.174016   20.295410   25.022133 H          1 MOL1         0.0947
      20    C7      19.513712   18.865542   25.974015 C.3        1 MOL1        -0.1477
      21    H14     19.617296   17.775547   26.058146 H          1 MOL1         0.0947
      22    H15     20.410458   19.238243   25.463259 H          1 MOL1         0.0947
      23    C8      19.446802   19.482735   27.381934 C.3        1 MOL1         0.0145
      24    H16     18.566693   19.103984   27.908620 H          1 MOL1         0.0921
      25    H17     19.359883   20.569824   27.303622 H          1 MOL1         0.0921
      26    N1      20.666207   19.170596   28.225031 N.4        1 MOL1        -0.5969
      27    H18     21.527642   19.525939   27.797085 H          1 MOL1         0.3603
      28    H19     20.789402   18.161479   28.359295 H          1 MOL1         0.3603
      29    H20     20.601083   19.590574   29.158901 H          1 MOL1         0.3603
@<TRIPOS>BOND
    1     1     2    1
    2     1     3    1
    3     1     4    1
    4     1     5    1
    5     5     6    1
    6     5     7    1
    7     5     8    1
    8     8     9    1
    9     8    10    1
   10     8    11    1
   11    11    12    1
   12    11    13    1
   13    11    14    1
   14    14    15    1
   15    14    16    1
   16    14    17    1
   17    17    18    1
   18    17    19    1
   19    17    20    1
   20    20    21    1
   21    20    22    1
   22    20    23    1
   23    23    24    1
   24    23    25    1
   25    23    26    1
   26    26    27    1
   27    26    28    1
   28    26    29    1
@<TRIPOS>SUBSTRUCTURE
       1 MOL1            1 RESIDUE      1      MOL     
@<SCITEGIC>MOL_PROPERTY
VM2 Rank
SciTegic.value.IntegerValue
51

@<SCITEGIC>MOL_PROPERTY
Conf_Id
SciTegic.value.IntegerValue
1811

@<SCITEGIC>MOL_PROPERTY
Probability
SciTegic.value.DoubleValue
0.58

@<SCITEGIC>MOL_PROPERTY
Sum Probability
SciTegic.value.DoubleValue
62.66

@<SCITEGIC>MOL_PROPERTY
Delta G
SciTegic.value.DoubleValue
1.313

@<SCITEGIC>MOL_PROPERTY
G
SciTegic.value.DoubleValue
59.460

@<SCITEGIC>MOL_PROPERTY
E
SciTegic.value.DoubleValue
22.060

@<SCITEGIC>MOL_PROPERTY
-TS
SciTegic.value.DoubleValue
37.400

@<SCITEGIC>MOL_PROPERTY
U+W
SciTegic.value.DoubleValue
-2.084

@<SCITEGIC>MOL_PROPERTY
U
SciTegic.value.DoubleValue
49.389

@<SCITEGIC>MOL_PROPERTY
W
SciTegic.value.DoubleValue
-51.474

@<SCITEGIC>MOL_PROPERTY
W(PB)
SciTegic.value.DoubleValue
-53.992

@<SCITEGIC>MOL_PROPERTY
W(SA)
SciTegic.value.DoubleValue
2.519

@<SCITEGIC>MOL_PROPERTY
Valence
SciTegic.value.DoubleValue
3.628

@<SCITEGIC>MOL_PROPERTY
Coulomb
SciTegic.value.DoubleValue
44.800

@<SCITEGIC>MOL_PROPERTY
VdW
SciTegic.value.DoubleValue
0.961

@<SCITEGIC>MOL_PROPERTY
VdW6
SciTegic.value.DoubleValue
-8.223

@<SCITEGIC>MOL_PROPERTY
VdW12
SciTegic.value.DoubleValue
9.184

@<SCITEGIC>MOL_PROPERTY
Bond
SciTegic.value.DoubleValue
0.219

@<SCITEGIC>MOL_PROPERTY
Angle
SciTegic.value.DoubleValue
0.899

@<SCITEGIC>MOL_PROPERTY
Pdih
SciTegic.value.DoubleValue
2.510

@<SCITEGIC>MOL_PROPERTY
Idih
SciTegic.value.DoubleValue
0.000

@<SCITEGIC>MOL_PROPERTY
Tether
SciTegic.value.DoubleValue
0.000

@<TRIPOS>MOLECULE
guest-3_vm2.mol2 : vm2 ligand conformer 52
          29          28           1
SMALL
USER_CHARGES
 
@<TRIPOS>ATOM
       1    C1      19.520715   17.719949   20.044355 C.3        1 MOL1        -0.2427
       2    H1      19.323782   17.064335   20.901599 H          1 MOL1         0.0958
       3    H2      18.557469   18.057463   19.640282 H          1 MOL1         0.0958
       4    H3      20.014980   17.115047   19.273172 H          1 MOL1         0.0958
       5    C2      20.408514   18.921291   20.440658 C.3        1 MOL1        -0.1412
       6    H4      20.677674   19.477643   19.531934 H          1 MOL1         0.0947
       7    H5      21.352694   18.557477   20.869461 H          1 MOL1         0.0947
       8    C3      19.722926   19.891966   21.432238 C.3        1 MOL1        -0.1437
       9    H6      20.375344   20.764739   21.573395 H          1 MOL1         0.0947
      10    H7      18.791368   20.270572   20.989435 H          1 MOL1         0.0947
      11    C4      19.425218   19.256007   22.811230 C.3        1 MOL1        -0.1437
      12    H8      20.351727   18.828684   23.216036 H          1 MOL1         0.0947
      13    H9      18.713220   18.428567   22.694688 H          1 MOL1         0.0947
      14    C5      18.842178   20.290661   23.803527 C.3        1 MOL1        -0.1437
      15    H10     19.573102   21.092834   23.975436 H          1 MOL1         0.0947
      16    H11     17.963210   20.766850   23.347406 H          1 MOL1         0.0947
      17    C6      18.417936   19.676690   25.160271 C.3        1 MOL1        -0.1437
      18    H12     17.672145   18.887695   24.990469 H          1 MOL1         0.0947
      19    H13     17.914908   20.453988   25.752258 H          1 MOL1         0.0947
      20    C7      19.600433   19.108638   25.979556 C.3        1 MOL1        -0.1477
      21    H14     20.066422   18.273340   25.441909 H          1 MOL1         0.0947
      22    H15     20.368903   19.882920   26.105410 H          1 MOL1         0.0947
      23    C8      19.138138   18.617826   27.362676 C.3        1 MOL1         0.0145
      24    H16     18.384544   17.834813   27.242521 H          1 MOL1         0.0921
      25    H17     18.688367   19.446584   27.916128 H          1 MOL1         0.0921
      26    N1      20.267942   18.054973   28.200489 N.4        1 MOL1        -0.5969
      27    H18     20.716647   17.252244   27.746869 H          1 MOL1         0.3603
      28    H19     19.938551   17.734331   29.117781 H          1 MOL1         0.3603
      29    H20     20.999516   18.752528   28.372945 H          1 MOL1         0.3603
@<TRIPOS>BOND
    1     1     2    1
    2     1     3    1
    3     1     4    1
    4     1     5    1
    5     5     6    1
    6     5     7    1
    7     5     8    1
    8     8     9    1
    9     8    10    1
   10     8    11    1
   11    11    12    1
   12    11    13    1
   13    11    14    1
   14    14    15    1
   15    14    16    1
   16    14    17    1
   17    17    18    1
   18    17    19    1
   19    17    20    1
   20    20    21    1
   21    20    22    1
   22    20    23    1
   23    23    24    1
   24    23    25    1
   25    23    26    1
   26    26    27    1
   27    26    28    1
   28    26    29    1
@<TRIPOS>SUBSTRUCTURE
       1 MOL1            1 RESIDUE      1      MOL     
@<SCITEGIC>MOL_PROPERTY
VM2 Rank
SciTegic.value.IntegerValue
52

@<SCITEGIC>MOL_PROPERTY
Conf_Id
SciTegic.value.IntegerValue
1870

@<SCITEGIC>MOL_PROPERTY
Probability
SciTegic.value.DoubleValue
0.58

@<SCITEGIC>MOL_PROPERTY
Sum Probability
SciTegic.value.DoubleValue
63.23

@<SCITEGIC>MOL_PROPERTY
Delta G
SciTegic.value.DoubleValue
1.320

@<SCITEGIC>MOL_PROPERTY
G
SciTegic.value.DoubleValue
59.466

@<SCITEGIC>MOL_PROPERTY
E
SciTegic.value.DoubleValue
22.067

@<SCITEGIC>MOL_PROPERTY
-TS
SciTegic.value.DoubleValue
37.400

@<SCITEGIC>MOL_PROPERTY
U+W
SciTegic.value.DoubleValue
-2.078

@<SCITEGIC>MOL_PROPERTY
U
SciTegic.value.DoubleValue
49.389

@<SCITEGIC>MOL_PROPERTY
W
SciTegic.value.DoubleValue
-51.467

@<SCITEGIC>MOL_PROPERTY
W(PB)
SciTegic.value.DoubleValue
-54.003

@<SCITEGIC>MOL_PROPERTY
W(SA)
SciTegic.value.DoubleValue
2.536

@<SCITEGIC>MOL_PROPERTY
Valence
SciTegic.value.DoubleValue
3.628

@<SCITEGIC>MOL_PROPERTY
Coulomb
SciTegic.value.DoubleValue
44.800

@<SCITEGIC>MOL_PROPERTY
VdW
SciTegic.value.DoubleValue
0.961

@<SCITEGIC>MOL_PROPERTY
VdW6
SciTegic.value.DoubleValue
-8.223

@<SCITEGIC>MOL_PROPERTY
VdW12
SciTegic.value.DoubleValue
9.184

@<SCITEGIC>MOL_PROPERTY
Bond
SciTegic.value.DoubleValue
0.219

@<SCITEGIC>MOL_PROPERTY
Angle
SciTegic.value.DoubleValue
0.899

@<SCITEGIC>MOL_PROPERTY
Pdih
SciTegic.value.DoubleValue
2.510

@<SCITEGIC>MOL_PROPERTY
Idih
SciTegic.value.DoubleValue
0.000

@<SCITEGIC>MOL_PROPERTY
Tether
SciTegic.value.DoubleValue
0.000

@<TRIPOS>MOLECULE
guest-3_vm2.mol2 : vm2 ligand conformer 53
          29          28           1
SMALL
USER_CHARGES
 
@<TRIPOS>ATOM
       1    C1      20.678943   19.994453   20.361625 C.3        1 MOL1        -0.2427
       2    H1      20.755619   20.540815   21.309964 H          1 MOL1         0.0958
       3    H2      21.680034   19.970386   19.912102 H          1 MOL1         0.0958
       4    H3      20.021872   20.561404   19.689484 H          1 MOL1         0.0958
       5    C2      20.147599   18.559454   20.577128 C.3        1 MOL1        -0.1412
       6    H4      20.808720   18.019176   21.267789 H          1 MOL1         0.0947
       7    H5      20.200949   18.015741   19.623630 H          1 MOL1         0.0947
       8    C3      18.685321   18.514049   21.089112 C.3        1 MOL1        -0.1437
       9    H6      18.028225   18.950697   20.324482 H          1 MOL1         0.0947
      10    H7      18.377002   17.463986   21.186105 H          1 MOL1         0.0947
      11    C4      18.431355   19.239965   22.435504 C.3        1 MOL1        -0.1437
      12    H8      17.363344   19.152849   22.678169 H          1 MOL1         0.0947
      13    H9      18.628843   20.314391   22.324629 H          1 MOL1         0.0947
      14    C5      19.262840   18.672871   23.610781 C.3        1 MOL1        -0.1437
      15    H10     19.096386   17.589643   23.688743 H          1 MOL1         0.0947
      16    H11     20.333296   18.819019   23.415163 H          1 MOL1         0.0947
      17    C6      18.897059   19.349965   24.950839 C.3        1 MOL1        -0.1437
      18    H12     17.827801   19.203015   25.157712 H          1 MOL1         0.0947
      19    H13     19.059496   20.433924   24.870892 H          1 MOL1         0.0947
      20    C7      19.729684   18.789885   26.124871 C.3        1 MOL1        -0.1477
      21    H14     19.566454   17.707251   26.210662 H          1 MOL1         0.0947
      22    H15     20.799044   18.940062   25.924818 H          1 MOL1         0.0947
      23    C8      19.357363   19.470357   27.453749 C.3        1 MOL1         0.0145
      24    H16     18.296815   19.309432   27.665410 H          1 MOL1         0.0921
      25    H17     19.534031   20.546731   27.378491 H          1 MOL1         0.0921
      26    N1      20.153836   18.947000   28.631390 N.4        1 MOL1        -0.5969
      27    H18     20.009722   17.941704   28.773355 H          1 MOL1         0.3603
      28    H19     19.890550   19.413218   29.506642 H          1 MOL1         0.3603
      29    H20     21.161093   19.093087   28.506377 H          1 MOL1         0.3603
@<TRIPOS>BOND
    1     1     2    1
    2     1     3    1
    3     1     4    1
    4     1     5    1
    5     5     6    1
    6     5     7    1
    7     5     8    1
    8     8     9    1
    9     8    10    1
   10     8    11    1
   11    11    12    1
   12    11    13    1
   13    11    14    1
   14    14    15    1
   15    14    16    1
   16    14    17    1
   17    17    18    1
   18    17    19    1
   19    17    20    1
   20    20    21    1
   21    20    22    1
   22    20    23    1
   23    23    24    1
   24    23    25    1
   25    23    26    1
   26    26    27    1
   27    26    28    1
   28    26    29    1
@<TRIPOS>SUBSTRUCTURE
       1 MOL1            1 RESIDUE      1      MOL     
@<SCITEGIC>MOL_PROPERTY
VM2 Rank
SciTegic.value.IntegerValue
53

@<SCITEGIC>MOL_PROPERTY
Conf_Id
SciTegic.value.IntegerValue
641

@<SCITEGIC>MOL_PROPERTY
Probability
SciTegic.value.DoubleValue
0.56

@<SCITEGIC>MOL_PROPERTY
Sum Probability
SciTegic.value.DoubleValue
63.79

@<SCITEGIC>MOL_PROPERTY
Delta G
SciTegic.value.DoubleValue
1.341

@<SCITEGIC>MOL_PROPERTY
G
SciTegic.value.DoubleValue
59.488

@<SCITEGIC>MOL_PROPERTY
E
SciTegic.value.DoubleValue
21.872

@<SCITEGIC>MOL_PROPERTY
-TS
SciTegic.value.DoubleValue
37.615

@<SCITEGIC>MOL_PROPERTY
U+W
SciTegic.value.DoubleValue
-2.273

@<SCITEGIC>MOL_PROPERTY
U
SciTegic.value.DoubleValue
48.920

@<SCITEGIC>MOL_PROPERTY
W
SciTegic.value.DoubleValue
-51.192

@<SCITEGIC>MOL_PROPERTY
W(PB)
SciTegic.value.DoubleValue
-53.703

@<SCITEGIC>MOL_PROPERTY
W(SA)
SciTegic.value.DoubleValue
2.511

@<SCITEGIC>MOL_PROPERTY
Valence
SciTegic.value.DoubleValue
3.544

@<SCITEGIC>MOL_PROPERTY
Coulomb
SciTegic.value.DoubleValue
44.554

@<SCITEGIC>MOL_PROPERTY
VdW
SciTegic.value.DoubleValue
0.822

@<SCITEGIC>MOL_PROPERTY
VdW6
SciTegic.value.DoubleValue
-8.501

@<SCITEGIC>MOL_PROPERTY
VdW12
SciTegic.value.DoubleValue
9.324

@<SCITEGIC>MOL_PROPERTY
Bond
SciTegic.value.DoubleValue
0.224

@<SCITEGIC>MOL_PROPERTY
Angle
SciTegic.value.DoubleValue
1.044

@<SCITEGIC>MOL_PROPERTY
Pdih
SciTegic.value.DoubleValue
2.276

@<SCITEGIC>MOL_PROPERTY
Idih
SciTegic.value.DoubleValue
0.000

@<SCITEGIC>MOL_PROPERTY
Tether
SciTegic.value.DoubleValue
0.000

@<TRIPOS>MOLECULE
guest-3_vm2.mol2 : vm2 ligand conformer 54
          29          28           1
SMALL
USER_CHARGES
 
@<TRIPOS>ATOM
       1    C1      19.864377   19.062227   19.342827 C.3        1 MOL1        -0.2427
       2    H1      19.462958   19.170214   18.326886 H          1 MOL1         0.0958
       3    H2      20.442336   19.967435   19.565882 H          1 MOL1         0.0958
       4    H3      20.551241   18.205934   19.342942 H          1 MOL1         0.0958
       5    C2      18.717176   18.854654   20.357600 C.3        1 MOL1        -0.1412
       6    H4      18.094385   18.015221   20.018100 H          1 MOL1         0.0947
       7    H5      18.064209   19.738570   20.364279 H          1 MOL1         0.0947
       8    C3      19.209364   18.556149   21.794544 C.3        1 MOL1        -0.1437
       9    H6      18.335549   18.290158   22.402787 H          1 MOL1         0.0947
      10    H7      19.860446   17.671311   21.782555 H          1 MOL1         0.0947
      11    C4      19.955186   19.746036   22.450505 C.3        1 MOL1        -0.1437
      12    H8      19.303002   20.629999   22.465713 H          1 MOL1         0.0947
      13    H9      20.824718   20.014085   21.836805 H          1 MOL1         0.0947
      14    C5      20.457639   19.447247   23.884596 C.3        1 MOL1        -0.1437
      15    H10     21.107579   18.561442   23.869449 H          1 MOL1         0.0947
      16    H11     21.087565   20.285875   24.212127 H          1 MOL1         0.0947
      17    C6      19.318867   19.243845   24.912914 C.3        1 MOL1        -0.1437
      18    H12     18.725947   18.358628   24.648353 H          1 MOL1         0.0947
      19    H13     18.637933   20.105793   24.882920 H          1 MOL1         0.0947
      20    C7      19.866240   19.071062   26.346827 C.3        1 MOL1        -0.1477
      21    H14     20.546977   18.209938   26.381252 H          1 MOL1         0.0947
      22    H15     20.451419   19.956443   26.629222 H          1 MOL1         0.0947
      23    C8      18.728766   18.865172   27.362430 C.3        1 MOL1         0.0145
      24    H16     18.153237   17.974732   27.095340 H          1 MOL1         0.0921
      25    H17     18.057265   19.727828   27.343171 H          1 MOL1         0.0921
      26    N1      19.226385   18.691607   28.782758 N.4        1 MOL1        -0.5969
      27    H18     19.843893   17.878072   28.874333 H          1 MOL1         0.3603
      28    H19     18.453155   18.555840   29.443383 H          1 MOL1         0.3603
      29    H20     19.754474   19.509432   29.104987 H          1 MOL1         0.3603
@<TRIPOS>BOND
    1     1     2    1
    2     1     3    1
    3     1     4    1
    4     1     5    1
    5     5     6    1
    6     5     7    1
    7     5     8    1
    8     8     9    1
    9     8    10    1
   10     8    11    1
   11    11    12    1
   12    11    13    1
   13    11    14    1
   14    14    15    1
   15    14    16    1
   16    14    17    1
   17    17    18    1
   18    17    19    1
   19    17    20    1
   20    20    21    1
   21    20    22    1
   22    20    23    1
   23    23    24    1
   24    23    25    1
   25    23    26    1
   26    26    27    1
   27    26    28    1
   28    26    29    1
@<TRIPOS>SUBSTRUCTURE
       1 MOL1            1 RESIDUE      1      MOL     
@<SCITEGIC>MOL_PROPERTY
VM2 Rank
SciTegic.value.IntegerValue
54

@<SCITEGIC>MOL_PROPERTY
Conf_Id
SciTegic.value.IntegerValue
1229

@<SCITEGIC>MOL_PROPERTY
Probability
SciTegic.value.DoubleValue
0.54

@<SCITEGIC>MOL_PROPERTY
Sum Probability
SciTegic.value.DoubleValue
64.33

@<SCITEGIC>MOL_PROPERTY
Delta G
SciTegic.value.DoubleValue
1.356

@<SCITEGIC>MOL_PROPERTY
G
SciTegic.value.DoubleValue
59.502

@<SCITEGIC>MOL_PROPERTY
E
SciTegic.value.DoubleValue
22.165

@<SCITEGIC>MOL_PROPERTY
-TS
SciTegic.value.DoubleValue
37.337

@<SCITEGIC>MOL_PROPERTY
U+W
SciTegic.value.DoubleValue
-1.979

@<SCITEGIC>MOL_PROPERTY
U
SciTegic.value.DoubleValue
49.254

@<SCITEGIC>MOL_PROPERTY
W
SciTegic.value.DoubleValue
-51.230

@<SCITEGIC>MOL_PROPERTY
W(PB)
SciTegic.value.DoubleValue
-53.763

@<SCITEGIC>MOL_PROPERTY
W(SA)
SciTegic.value.DoubleValue
2.533

@<SCITEGIC>MOL_PROPERTY
Valence
SciTegic.value.DoubleValue
3.706

@<SCITEGIC>MOL_PROPERTY
Coulomb
SciTegic.value.DoubleValue
44.522

@<SCITEGIC>MOL_PROPERTY
VdW
SciTegic.value.DoubleValue
1.026

@<SCITEGIC>MOL_PROPERTY
VdW6
SciTegic.value.DoubleValue
-8.144

@<SCITEGIC>MOL_PROPERTY
VdW12
SciTegic.value.DoubleValue
9.170

@<SCITEGIC>MOL_PROPERTY
Bond
SciTegic.value.DoubleValue
0.228

@<SCITEGIC>MOL_PROPERTY
Angle
SciTegic.value.DoubleValue
0.952

@<SCITEGIC>MOL_PROPERTY
Pdih
SciTegic.value.DoubleValue
2.526

@<SCITEGIC>MOL_PROPERTY
Idih
SciTegic.value.DoubleValue
0.000

@<SCITEGIC>MOL_PROPERTY
Tether
SciTegic.value.DoubleValue
0.000

@<TRIPOS>MOLECULE
guest-3_vm2.mol2 : vm2 ligand conformer 55
          29          28           1
SMALL
USER_CHARGES
 
@<TRIPOS>ATOM
       1    C1      21.186022   19.693726   20.500543 C.3        1 MOL1        -0.2427
       2    H1      21.392808   20.227751   21.436213 H          1 MOL1         0.0958
       3    H2      21.718263   18.734002   20.526558 H          1 MOL1         0.0958
       4    H3      21.607920   20.289525   19.680813 H          1 MOL1         0.0958
       5    C2      19.669502   19.482533   20.290296 C.3        1 MOL1        -0.1412
       6    H4      19.506759   19.058858   19.289412 H          1 MOL1         0.0947
       7    H5      19.156121   20.454161   20.300064 H          1 MOL1         0.0947
       8    C3      19.027868   18.540999   21.337875 C.3        1 MOL1        -0.1437
       9    H6      17.983850   18.358291   21.048232 H          1 MOL1         0.0947
      10    H7      19.531504   17.564850   21.311156 H          1 MOL1         0.0947
      11    C4      19.061908   19.106299   22.778070 C.3        1 MOL1        -0.1437
      12    H8      18.599946   20.102974   22.791332 H          1 MOL1         0.0947
      13    H9      20.103954   19.230687   23.096547 H          1 MOL1         0.0947
      14    C5      18.322475   18.180223   23.773522 C.3        1 MOL1        -0.1437
      15    H10     17.301391   18.004209   23.407838 H          1 MOL1         0.0947
      16    H11     18.813887   17.197834   23.800603 H          1 MOL1         0.0947
      17    C6      18.235332   18.756490   25.208150 C.3        1 MOL1        -0.1437
      18    H12     17.598522   18.094267   25.811156 H          1 MOL1         0.0947
      19    H13     17.729442   19.731685   25.183320 H          1 MOL1         0.0947
      20    C7      19.609714   18.899623   25.903109 C.3        1 MOL1        -0.1477
      21    H14     20.137287   17.936771   25.881213 H          1 MOL1         0.0947
      22    H15     20.233092   19.623565   25.363493 H          1 MOL1         0.0947
      23    C8      19.453323   19.363581   27.361848 C.3        1 MOL1         0.0145
      24    H16     18.849107   18.639950   27.915673 H          1 MOL1         0.0921
      25    H17     18.942867   20.330121   27.388060 H          1 MOL1         0.0921
      26    N1      20.777856   19.514526   28.081586 N.4        1 MOL1        -0.5969
      27    H18     21.384220   20.204077   27.625171 H          1 MOL1         0.3603
      28    H19     21.296957   18.630829   28.115241 H          1 MOL1         0.3603
      29    H20     20.650967   19.823701   29.051661 H          1 MOL1         0.3603
@<TRIPOS>BOND
    1     1     2    1
    2     1     3    1
    3     1     4    1
    4     1     5    1
    5     5     6    1
    6     5     7    1
    7     5     8    1
    8     8     9    1
    9     8    10    1
   10     8    11    1
   11    11    12    1
   12    11    13    1
   13    11    14    1
   14    14    15    1
   15    14    16    1
   16    14    17    1
   17    17    18    1
   18    17    19    1
   19    17    20    1
   20    20    21    1
   21    20    22    1
   22    20    23    1
   23    23    24    1
   24    23    25    1
   25    23    26    1
   26    26    27    1
   27    26    28    1
   28    26    29    1
@<TRIPOS>SUBSTRUCTURE
       1 MOL1            1 RESIDUE      1      MOL     
@<SCITEGIC>MOL_PROPERTY
VM2 Rank
SciTegic.value.IntegerValue
55

@<SCITEGIC>MOL_PROPERTY
Conf_Id
SciTegic.value.IntegerValue
1189

@<SCITEGIC>MOL_PROPERTY
Probability
SciTegic.value.DoubleValue
0.54

@<SCITEGIC>MOL_PROPERTY
Sum Probability
SciTegic.value.DoubleValue
64.87

@<SCITEGIC>MOL_PROPERTY
Delta G
SciTegic.value.DoubleValue
1.358

@<SCITEGIC>MOL_PROPERTY
G
SciTegic.value.DoubleValue
59.505

@<SCITEGIC>MOL_PROPERTY
E
SciTegic.value.DoubleValue
22.112

@<SCITEGIC>MOL_PROPERTY
-TS
SciTegic.value.DoubleValue
37.393

@<SCITEGIC>MOL_PROPERTY
U+W
SciTegic.value.DoubleValue
-2.033

@<SCITEGIC>MOL_PROPERTY
U
SciTegic.value.DoubleValue
49.480

@<SCITEGIC>MOL_PROPERTY
W
SciTegic.value.DoubleValue
-51.512

@<SCITEGIC>MOL_PROPERTY
W(PB)
SciTegic.value.DoubleValue
-54.058

@<SCITEGIC>MOL_PROPERTY
W(SA)
SciTegic.value.DoubleValue
2.546

@<SCITEGIC>MOL_PROPERTY
Valence
SciTegic.value.DoubleValue
3.628

@<SCITEGIC>MOL_PROPERTY
Coulomb
SciTegic.value.DoubleValue
44.888

@<SCITEGIC>MOL_PROPERTY
VdW
SciTegic.value.DoubleValue
0.963

@<SCITEGIC>MOL_PROPERTY
VdW6
SciTegic.value.DoubleValue
-8.237

@<SCITEGIC>MOL_PROPERTY
VdW12
SciTegic.value.DoubleValue
9.201

@<SCITEGIC>MOL_PROPERTY
Bond
SciTegic.value.DoubleValue
0.221

@<SCITEGIC>MOL_PROPERTY
Angle
SciTegic.value.DoubleValue
0.899

@<SCITEGIC>MOL_PROPERTY
Pdih
SciTegic.value.DoubleValue
2.508

@<SCITEGIC>MOL_PROPERTY
Idih
SciTegic.value.DoubleValue
0.000

@<SCITEGIC>MOL_PROPERTY
Tether
SciTegic.value.DoubleValue
0.000

@<TRIPOS>MOLECULE
guest-3_vm2.mol2 : vm2 ligand conformer 56
          29          28           1
SMALL
USER_CHARGES
 
@<TRIPOS>ATOM
       1    C1      20.251736   18.590064   19.362256 C.3        1 MOL1        -0.2427
       2    H1      20.706190   17.660392   18.995900 H          1 MOL1         0.0958
       3    H2      19.269977   18.697292   18.882775 H          1 MOL1         0.0958
       4    H3      20.884726   19.425690   19.036251 H          1 MOL1         0.0958
       5    C2      20.117496   18.562022   20.899505 C.3        1 MOL1        -0.1412
       6    H4      21.110603   18.424347   21.349442 H          1 MOL1         0.0947
       7    H5      19.513065   17.692042   21.188630 H          1 MOL1         0.0947
       8    C3      19.475066   19.861533   21.439278 C.3        1 MOL1        -0.1437
       9    H6      20.051858   20.723090   21.075518 H          1 MOL1         0.0947
      10    H7      18.462461   19.972832   21.027633 H          1 MOL1         0.0947
      11    C4      19.417409   19.926587   22.985168 C.3        1 MOL1        -0.1437
      12    H8      19.050361   20.919809   23.278232 H          1 MOL1         0.0947
      13    H9      20.435775   19.840710   23.386398 H          1 MOL1         0.0947
      14    C5      18.503369   18.844234   23.613257 C.3        1 MOL1        -0.1437
      15    H10     17.528101   18.861532   23.107564 H          1 MOL1         0.0947
      16    H11     18.925698   17.845821   23.439194 H          1 MOL1         0.0947
      17    C6      18.272444   19.039537   25.131769 C.3        1 MOL1        -0.1437
      18    H12     17.534950   18.298646   25.470671 H          1 MOL1         0.0947
      19    H13     17.823535   20.026114   25.312558 H          1 MOL1         0.0947
      20    C7      19.559639   18.889856   25.976047 C.3        1 MOL1        -0.1477
      21    H14     20.033629   17.923255   25.759446 H          1 MOL1         0.0947
      22    H15     20.280767   19.672093   25.707451 H          1 MOL1         0.0947
      23    C8      19.255652   18.984147   27.481467 C.3        1 MOL1         0.0145
      24    H16     18.551778   18.197016   27.765057 H          1 MOL1         0.0921
      25    H17     18.798349   19.951848   27.704808 H          1 MOL1         0.0921
      26    N1      20.491189   18.840020   28.346254 N.4        1 MOL1        -0.5969
      27    H18     21.183781   19.569601   28.147487 H          1 MOL1         0.3603
      28    H19     20.954357   17.936464   28.202799 H          1 MOL1         0.3603
      29    H20     20.266476   18.905397   29.345236 H          1 MOL1         0.3603
@<TRIPOS>BOND
    1     1     2    1
    2     1     3    1
    3     1     4    1
    4     1     5    1
    5     5     6    1
    6     5     7    1
    7     5     8    1
    8     8     9    1
    9     8    10    1
   10     8    11    1
   11    11    12    1
   12    11    13    1
   13    11    14    1
   14    14    15    1
   15    14    16    1
   16    14    17    1
   17    17    18    1
   18    17    19    1
   19    17    20    1
   20    20    21    1
   21    20    22    1
   22    20    23    1
   23    23    24    1
   24    23    25    1
   25    23    26    1
   26    26    27    1
   27    26    28    1
   28    26    29    1
@<TRIPOS>SUBSTRUCTURE
       1 MOL1            1 RESIDUE      1      MOL     
@<SCITEGIC>MOL_PROPERTY
VM2 Rank
SciTegic.value.IntegerValue
56

@<SCITEGIC>MOL_PROPERTY
Conf_Id
SciTegic.value.IntegerValue
1550

@<SCITEGIC>MOL_PROPERTY
Probability
SciTegic.value.DoubleValue
0.53

@<SCITEGIC>MOL_PROPERTY
Sum Probability
SciTegic.value.DoubleValue
65.40

@<SCITEGIC>MOL_PROPERTY
Delta G
SciTegic.value.DoubleValue
1.370

@<SCITEGIC>MOL_PROPERTY
G
SciTegic.value.DoubleValue
59.516

@<SCITEGIC>MOL_PROPERTY
E
SciTegic.value.DoubleValue
22.100

@<SCITEGIC>MOL_PROPERTY
-TS
SciTegic.value.DoubleValue
37.416

@<SCITEGIC>MOL_PROPERTY
U+W
SciTegic.value.DoubleValue
-2.045

@<SCITEGIC>MOL_PROPERTY
U
SciTegic.value.DoubleValue
49.434

@<SCITEGIC>MOL_PROPERTY
W
SciTegic.value.DoubleValue
-51.478

@<SCITEGIC>MOL_PROPERTY
W(PB)
SciTegic.value.DoubleValue
-54.002

@<SCITEGIC>MOL_PROPERTY
W(SA)
SciTegic.value.DoubleValue
2.523

@<SCITEGIC>MOL_PROPERTY
Valence
SciTegic.value.DoubleValue
3.637

@<SCITEGIC>MOL_PROPERTY
Coulomb
SciTegic.value.DoubleValue
44.866

@<SCITEGIC>MOL_PROPERTY
VdW
SciTegic.value.DoubleValue
0.931

@<SCITEGIC>MOL_PROPERTY
VdW6
SciTegic.value.DoubleValue
-8.275

@<SCITEGIC>MOL_PROPERTY
VdW12
SciTegic.value.DoubleValue
9.206

@<SCITEGIC>MOL_PROPERTY
Bond
SciTegic.value.DoubleValue
0.222

@<SCITEGIC>MOL_PROPERTY
Angle
SciTegic.value.DoubleValue
0.875

@<SCITEGIC>MOL_PROPERTY
Pdih
SciTegic.value.DoubleValue
2.540

@<SCITEGIC>MOL_PROPERTY
Idih
SciTegic.value.DoubleValue
0.000

@<SCITEGIC>MOL_PROPERTY
Tether
SciTegic.value.DoubleValue
0.000

@<TRIPOS>MOLECULE
guest-3_vm2.mol2 : vm2 ligand conformer 57
          29          28           1
SMALL
USER_CHARGES
 
@<TRIPOS>ATOM
       1    C1      19.841799   18.998063   19.341432 C.3        1 MOL1        -0.2427
       2    H1      20.914982   19.227630   19.365914 H          1 MOL1         0.0958
       3    H2      19.715300   17.923256   19.520262 H          1 MOL1         0.0958
       4    H3      19.476807   19.208108   18.327728 H          1 MOL1         0.0958
       5    C2      19.068895   19.842883   20.379615 C.3        1 MOL1        -0.1412
       6    H4      18.004450   19.570298   20.360314 H          1 MOL1         0.0947
       7    H5      19.120818   20.899667   20.082486 H          1 MOL1         0.0947
       8    C3      19.618525   19.706357   21.820250 C.3        1 MOL1        -0.1437
       9    H6      20.682180   19.981002   21.834298 H          1 MOL1         0.0947
      10    H7      19.100309   20.439970   22.450748 H          1 MOL1         0.0947
      11    C4      19.436162   18.287952   22.417941 C.3        1 MOL1        -0.1437
      12    H8      19.949703   17.555635   21.781899 H          1 MOL1         0.0947
      13    H9      18.372142   18.014617   22.407293 H          1 MOL1         0.0947
      14    C5      19.994156   18.145214   23.855516 C.3        1 MOL1        -0.1437
      15    H10     19.948250   17.085044   24.140666 H          1 MOL1         0.0947
      16    H11     21.057634   18.421263   23.866290 H          1 MOL1         0.0947
      17    C6      19.225331   18.981165   24.907044 C.3        1 MOL1        -0.1437
      18    H12     18.153532   18.744938   24.852567 H          1 MOL1         0.0947
      19    H13     19.328451   20.051549   24.686125 H          1 MOL1         0.0947
      20    C7      19.738619   18.712490   26.338803 C.3        1 MOL1        -0.1477
      21    H14     19.629241   17.646146   26.577605 H          1 MOL1         0.0947
      22    H15     20.809662   18.948114   26.397686 H          1 MOL1         0.0947
      23    C8      18.972484   19.549934   27.377753 C.3        1 MOL1         0.0145
      24    H16     17.907442   19.306580   27.333925 H          1 MOL1         0.0921
      25    H17     19.092205   20.613495   27.154244 H          1 MOL1         0.0921
      26    N1      19.448028   19.313943   28.796645 N.4        1 MOL1        -0.5969
      27    H18     20.439172   19.550522   28.911563 H          1 MOL1         0.3603
      28    H19     19.336641   18.334382   29.078780 H          1 MOL1         0.3603
      29    H20     18.924967   19.881120   29.473005 H          1 MOL1         0.3603
@<TRIPOS>BOND
    1     1     2    1
    2     1     3    1
    3     1     4    1
    4     1     5    1
    5     5     6    1
    6     5     7    1
    7     5     8    1
    8     8     9    1
    9     8    10    1
   10     8    11    1
   11    11    12    1
   12    11    13    1
   13    11    14    1
   14    14    15    1
   15    14    16    1
   16    14    17    1
   17    17    18    1
   18    17    19    1
   19    17    20    1
   20    20    21    1
   21    20    22    1
   22    20    23    1
   23    23    24    1
   24    23    25    1
   25    23    26    1
   26    26    27    1
   27    26    28    1
   28    26    29    1
@<TRIPOS>SUBSTRUCTURE
       1 MOL1            1 RESIDUE      1      MOL     
@<SCITEGIC>MOL_PROPERTY
VM2 Rank
SciTegic.value.IntegerValue
57

@<SCITEGIC>MOL_PROPERTY
Conf_Id
SciTegic.value.IntegerValue
2487

@<SCITEGIC>MOL_PROPERTY
Probability
SciTegic.value.DoubleValue
0.52

@<SCITEGIC>MOL_PROPERTY
Sum Probability
SciTegic.value.DoubleValue
65.93

@<SCITEGIC>MOL_PROPERTY
Delta G
SciTegic.value.DoubleValue
1.380

@<SCITEGIC>MOL_PROPERTY
G
SciTegic.value.DoubleValue
59.526

@<SCITEGIC>MOL_PROPERTY
E
SciTegic.value.DoubleValue
22.189

@<SCITEGIC>MOL_PROPERTY
-TS
SciTegic.value.DoubleValue
37.337

@<SCITEGIC>MOL_PROPERTY
U+W
SciTegic.value.DoubleValue
-1.956

@<SCITEGIC>MOL_PROPERTY
U
SciTegic.value.DoubleValue
49.254

@<SCITEGIC>MOL_PROPERTY
W
SciTegic.value.DoubleValue
-51.210

@<SCITEGIC>MOL_PROPERTY
W(PB)
SciTegic.value.DoubleValue
-53.714

@<SCITEGIC>MOL_PROPERTY
W(SA)
SciTegic.value.DoubleValue
2.504

@<SCITEGIC>MOL_PROPERTY
Valence
SciTegic.value.DoubleValue
3.706

@<SCITEGIC>MOL_PROPERTY
Coulomb
SciTegic.value.DoubleValue
44.522

@<SCITEGIC>MOL_PROPERTY
VdW
SciTegic.value.DoubleValue
1.026

@<SCITEGIC>MOL_PROPERTY
VdW6
SciTegic.value.DoubleValue
-8.144

@<SCITEGIC>MOL_PROPERTY
VdW12
SciTegic.value.DoubleValue
9.170

@<SCITEGIC>MOL_PROPERTY
Bond
SciTegic.value.DoubleValue
0.228

@<SCITEGIC>MOL_PROPERTY
Angle
SciTegic.value.DoubleValue
0.952

@<SCITEGIC>MOL_PROPERTY
Pdih
SciTegic.value.DoubleValue
2.525

@<SCITEGIC>MOL_PROPERTY
Idih
SciTegic.value.DoubleValue
0.000

@<SCITEGIC>MOL_PROPERTY
Tether
SciTegic.value.DoubleValue
0.000

@<TRIPOS>MOLECULE
guest-3_vm2.mol2 : vm2 ligand conformer 58
          29          28           1
SMALL
USER_CHARGES
 
@<TRIPOS>ATOM
       1    C1      20.450259   17.628054   20.454431 C.3        1 MOL1        -0.2427
       2    H1      20.412476   16.932944   19.605710 H          1 MOL1         0.0958
       3    H2      21.468847   18.033339   20.511430 H          1 MOL1         0.0958
       4    H3      20.259358   17.046812   21.365002 H          1 MOL1         0.0958
       5    C2      19.411797   18.758391   20.273958 C.3        1 MOL1        -0.1412
       6    H4      18.399775   18.330543   20.252056 H          1 MOL1         0.0947
       7    H5      19.567961   19.228946   19.293168 H          1 MOL1         0.0947
       8    C3      19.494598   19.850933   21.367165 C.3        1 MOL1        -0.1437
       9    H6      20.502095   20.289282   21.372281 H          1 MOL1         0.0947
      10    H7      18.805186   20.663615   21.099751 H          1 MOL1         0.0947
      11    C4      19.143193   19.334601   22.783077 C.3        1 MOL1        -0.1437
      12    H8      19.867663   18.567322   23.081723 H          1 MOL1         0.0947
      13    H9      18.155306   18.854365   22.763090 H          1 MOL1         0.0947
      14    C5      19.140897   20.479131   23.824881 C.3        1 MOL1        -0.1437
      15    H10     20.141941   20.928264   23.884035 H          1 MOL1         0.0947
      16    H11     18.465787   21.274892   23.480920 H          1 MOL1         0.0947
      17    C6      18.689027   20.031043   25.236570 C.3        1 MOL1        -0.1437
      18    H12     17.681377   19.596300   25.180128 H          1 MOL1         0.0947
      19    H13     18.604912   20.922085   25.874261 H          1 MOL1         0.0947
      20    C7      19.654295   19.024796   25.905980 C.3        1 MOL1        -0.1477
      21    H14     19.688199   18.091953   25.329325 H          1 MOL1         0.0947
      22    H15     20.671604   19.438196   25.915013 H          1 MOL1         0.0947
      23    C8      19.219269   18.706378   27.347162 C.3        1 MOL1         0.0145
      24    H16     18.212875   18.279066   27.342045 H          1 MOL1         0.0921
      25    H17     19.199744   19.626332   27.937709 H          1 MOL1         0.0921
      26    N1      20.140665   17.724673   28.041777 N.4        1 MOL1        -0.5969
      27    H18     21.100608   18.079984   28.103299 H          1 MOL1         0.3603
      28    H19     20.181982   16.825888   27.549894 H          1 MOL1         0.3603
      29    H20     19.833210   17.526891   29.000468 H          1 MOL1         0.3603
@<TRIPOS>BOND
    1     1     2    1
    2     1     3    1
    3     1     4    1
    4     1     5    1
    5     5     6    1
    6     5     7    1
    7     5     8    1
    8     8     9    1
    9     8    10    1
   10     8    11    1
   11    11    12    1
   12    11    13    1
   13    11    14    1
   14    14    15    1
   15    14    16    1
   16    14    17    1
   17    17    18    1
   18    17    19    1
   19    17    20    1
   20    20    21    1
   21    20    22    1
   22    20    23    1
   23    23    24    1
   24    23    25    1
   25    23    26    1
   26    26    27    1
   27    26    28    1
   28    26    29    1
@<TRIPOS>SUBSTRUCTURE
       1 MOL1            1 RESIDUE      1      MOL     
@<SCITEGIC>MOL_PROPERTY
VM2 Rank
SciTegic.value.IntegerValue
58

@<SCITEGIC>MOL_PROPERTY
Conf_Id
SciTegic.value.IntegerValue
940

@<SCITEGIC>MOL_PROPERTY
Probability
SciTegic.value.DoubleValue
0.51

@<SCITEGIC>MOL_PROPERTY
Sum Probability
SciTegic.value.DoubleValue
66.43

@<SCITEGIC>MOL_PROPERTY
Delta G
SciTegic.value.DoubleValue
1.395

@<SCITEGIC>MOL_PROPERTY
G
SciTegic.value.DoubleValue
59.541

@<SCITEGIC>MOL_PROPERTY
E
SciTegic.value.DoubleValue
22.148

@<SCITEGIC>MOL_PROPERTY
-TS
SciTegic.value.DoubleValue
37.393

@<SCITEGIC>MOL_PROPERTY
U+W
SciTegic.value.DoubleValue
-1.996

@<SCITEGIC>MOL_PROPERTY
U
SciTegic.value.DoubleValue
49.480

@<SCITEGIC>MOL_PROPERTY
W
SciTegic.value.DoubleValue
-51.476

@<SCITEGIC>MOL_PROPERTY
W(PB)
SciTegic.value.DoubleValue
-54.002

@<SCITEGIC>MOL_PROPERTY
W(SA)
SciTegic.value.DoubleValue
2.526

@<SCITEGIC>MOL_PROPERTY
Valence
SciTegic.value.DoubleValue
3.629

@<SCITEGIC>MOL_PROPERTY
Coulomb
SciTegic.value.DoubleValue
44.888

@<SCITEGIC>MOL_PROPERTY
VdW
SciTegic.value.DoubleValue
0.963

@<SCITEGIC>MOL_PROPERTY
VdW6
SciTegic.value.DoubleValue
-8.237

@<SCITEGIC>MOL_PROPERTY
VdW12
SciTegic.value.DoubleValue
9.200

@<SCITEGIC>MOL_PROPERTY
Bond
SciTegic.value.DoubleValue
0.221

@<SCITEGIC>MOL_PROPERTY
Angle
SciTegic.value.DoubleValue
0.900

@<SCITEGIC>MOL_PROPERTY
Pdih
SciTegic.value.DoubleValue
2.508

@<SCITEGIC>MOL_PROPERTY
Idih
SciTegic.value.DoubleValue
0.000

@<SCITEGIC>MOL_PROPERTY
Tether
SciTegic.value.DoubleValue
0.000

@<TRIPOS>MOLECULE
guest-3_vm2.mol2 : vm2 ligand conformer 59
          29          28           1
SMALL
USER_CHARGES
 
@<TRIPOS>ATOM
       1    C1      20.440317   19.117544   19.374383 C.3        1 MOL1        -0.2427
       2    H1      20.407293   18.083641   19.006711 H          1 MOL1         0.0958
       3    H2      19.618807   19.674051   18.904626 H          1 MOL1         0.0958
       4    H3      21.385318   19.564250   19.039034 H          1 MOL1         0.0958
       5    C2      20.331837   19.163321   20.913237 C.3        1 MOL1        -0.1412
       6    H4      20.409271   20.207206   21.245058 H          1 MOL1         0.0947
       7    H5      21.181785   18.624329   21.354526 H          1 MOL1         0.0947
       8    C3      19.004906   18.542393   21.409724 C.3        1 MOL1        -0.1437
       9    H6      18.155972   19.112734   21.008188 H          1 MOL1         0.0947
      10    H7      18.912363   17.525526   21.003882 H          1 MOL1         0.0947
      11    C4      18.896941   18.467078   22.952446 C.3        1 MOL1        -0.1437
      12    H8      19.734477   17.873907   23.342451 H          1 MOL1         0.0947
      13    H9      17.980578   17.918790   23.210824 H          1 MOL1         0.0947
      14    C5      18.863867   19.857482   23.635916 C.3        1 MOL1        -0.1437
      15    H10     19.824504   20.370283   23.495566 H          1 MOL1         0.0947
      16    H11     18.104296   20.480496   23.143902 H          1 MOL1         0.0947
      17    C6      18.540251   19.791896   25.148632 C.3        1 MOL1        -0.1437
      18    H12     17.566493   19.304612   25.296587 H          1 MOL1         0.0947
      19    H13     18.432060   20.817922   25.527099 H          1 MOL1         0.0947
      20    C7      19.620600   19.061000   25.979725 C.3        1 MOL1        -0.1477
      21    H14     19.688995   18.010507   25.670130 H          1 MOL1         0.0947
      22    H15     20.601679   19.518374   25.794814 H          1 MOL1         0.0947
      23    C8      19.304404   19.120348   27.484407 C.3        1 MOL1         0.0145
      24    H16     18.335448   18.651352   27.675761 H          1 MOL1         0.0921
      25    H17     19.252307   20.163138   27.808926 H          1 MOL1         0.0921
      26    N1      20.340878   18.416939   28.336529 N.4        1 MOL1        -0.5969
      27    H18     20.111480   18.468721   29.335242 H          1 MOL1         0.3603
      28    H19     21.272741   18.829376   28.222331 H          1 MOL1         0.3603
      29    H20     20.419371   17.422450   28.099224 H          1 MOL1         0.3603
@<TRIPOS>BOND
    1     1     2    1
    2     1     3    1
    3     1     4    1
    4     1     5    1
    5     5     6    1
    6     5     7    1
    7     5     8    1
    8     8     9    1
    9     8    10    1
   10     8    11    1
   11    11    12    1
   12    11    13    1
   13    11    14    1
   14    14    15    1
   15    14    16    1
   16    14    17    1
   17    17    18    1
   18    17    19    1
   19    17    20    1
   20    20    21    1
   21    20    22    1
   22    20    23    1
   23    23    24    1
   24    23    25    1
   25    23    26    1
   26    26    27    1
   27    26    28    1
   28    26    29    1
@<TRIPOS>SUBSTRUCTURE
       1 MOL1            1 RESIDUE      1      MOL     
@<SCITEGIC>MOL_PROPERTY
VM2 Rank
SciTegic.value.IntegerValue
59

@<SCITEGIC>MOL_PROPERTY
Conf_Id
SciTegic.value.IntegerValue
1356

@<SCITEGIC>MOL_PROPERTY
Probability
SciTegic.value.DoubleValue
0.49

@<SCITEGIC>MOL_PROPERTY
Sum Probability
SciTegic.value.DoubleValue
66.93

@<SCITEGIC>MOL_PROPERTY
Delta G
SciTegic.value.DoubleValue
1.412

@<SCITEGIC>MOL_PROPERTY
G
SciTegic.value.DoubleValue
59.558

@<SCITEGIC>MOL_PROPERTY
E
SciTegic.value.DoubleValue
22.144

@<SCITEGIC>MOL_PROPERTY
-TS
SciTegic.value.DoubleValue
37.415

@<SCITEGIC>MOL_PROPERTY
U+W
SciTegic.value.DoubleValue
-2.001

@<SCITEGIC>MOL_PROPERTY
U
SciTegic.value.DoubleValue
49.434

@<SCITEGIC>MOL_PROPERTY
W
SciTegic.value.DoubleValue
-51.435

@<SCITEGIC>MOL_PROPERTY
W(PB)
SciTegic.value.DoubleValue
-53.965

@<SCITEGIC>MOL_PROPERTY
W(SA)
SciTegic.value.DoubleValue
2.530

@<SCITEGIC>MOL_PROPERTY
Valence
SciTegic.value.DoubleValue
3.636

@<SCITEGIC>MOL_PROPERTY
Coulomb
SciTegic.value.DoubleValue
44.866

@<SCITEGIC>MOL_PROPERTY
VdW
SciTegic.value.DoubleValue
0.931

@<SCITEGIC>MOL_PROPERTY
VdW6
SciTegic.value.DoubleValue
-8.275

@<SCITEGIC>MOL_PROPERTY
VdW12
SciTegic.value.DoubleValue
9.207

@<SCITEGIC>MOL_PROPERTY
Bond
SciTegic.value.DoubleValue
0.222

@<SCITEGIC>MOL_PROPERTY
Angle
SciTegic.value.DoubleValue
0.875

@<SCITEGIC>MOL_PROPERTY
Pdih
SciTegic.value.DoubleValue
2.540

@<SCITEGIC>MOL_PROPERTY
Idih
SciTegic.value.DoubleValue
0.000

@<SCITEGIC>MOL_PROPERTY
Tether
SciTegic.value.DoubleValue
0.000

@<TRIPOS>MOLECULE
guest-3_vm2.mol2 : vm2 ligand conformer 60
          29          28           1
SMALL
USER_CHARGES
 
@<TRIPOS>ATOM
       1    C1      19.805990   18.964951   19.116385 C.3        1 MOL1        -0.2427
       2    H1      20.401228   18.044069   19.062346 H          1 MOL1         0.0958
       3    H2      18.997970   18.888031   18.377312 H          1 MOL1         0.0958
       4    H3      20.449346   19.805677   18.825688 H          1 MOL1         0.0958
       5    C2      19.230349   19.170267   20.533622 C.3        1 MOL1        -0.1412
       6    H4      18.561709   18.332223   20.770048 H          1 MOL1         0.0947
       7    H5      18.617167   20.082097   20.548841 H          1 MOL1         0.0947
       8    C3      20.351963   19.277004   21.593841 C.3        1 MOL1        -0.1437
       9    H6      20.930005   18.342929   21.617942 H          1 MOL1         0.0947
      10    H7      21.054006   20.065551   21.289443 H          1 MOL1         0.0947
      11    C4      19.835646   19.605335   23.016529 C.3        1 MOL1        -0.1437
      12    H8      19.253244   20.536540   22.990113 H          1 MOL1         0.0947
      13    H9      20.706997   19.803269   23.653583 H          1 MOL1         0.0947
      14    C5      18.983895   18.471833   23.642948 C.3        1 MOL1        -0.1437
      15    H10     18.112977   18.273633   23.005328 H          1 MOL1         0.0947
      16    H11     19.566561   17.540762   23.669179 H          1 MOL1         0.0947
      17    C6      18.467049   18.800310   25.065412 C.3        1 MOL1        -0.1437
      18    H12     17.766753   18.010477   25.371135 H          1 MOL1         0.0947
      19    H13     17.886960   19.733275   25.040590 H          1 MOL1         0.0947
      20    C7      19.588544   18.910430   26.125060 C.3        1 MOL1        -0.1477
      21    H14     20.201148   17.999158   26.111344 H          1 MOL1         0.0947
      22    H15     20.252421   19.751314   25.888970 H          1 MOL1         0.0947
      23    C8      19.007278   19.113856   27.535184 C.3        1 MOL1         0.0145
      24    H16     18.358105   18.272060   27.790908 H          1 MOL1         0.0921
      25    H17     18.409594   20.029106   27.558497 H          1 MOL1         0.0921
      26    N1      20.073287   19.224014   28.606019 N.4        1 MOL1        -0.5969
      27    H18     20.654827   18.380785   28.654011 H          1 MOL1         0.3603
      28    H19     19.664794   19.358745   29.537533 H          1 MOL1         0.3603
      29    H20     20.702666   20.016027   28.438431 H          1 MOL1         0.3603
@<TRIPOS>BOND
    1     1     2    1
    2     1     3    1
    3     1     4    1
    4     1     5    1
    5     5     6    1
    6     5     7    1
    7     5     8    1
    8     8     9    1
    9     8    10    1
   10     8    11    1
   11    11    12    1
   12    11    13    1
   13    11    14    1
   14    14    15    1
   15    14    16    1
   16    14    17    1
   17    17    18    1
   18    17    19    1
   19    17    20    1
   20    20    21    1
   21    20    22    1
   22    20    23    1
   23    23    24    1
   24    23    25    1
   25    23    26    1
   26    26    27    1
   27    26    28    1
   28    26    29    1
@<TRIPOS>SUBSTRUCTURE
       1 MOL1            1 RESIDUE      1      MOL     
@<SCITEGIC>MOL_PROPERTY
VM2 Rank
SciTegic.value.IntegerValue
60

@<SCITEGIC>MOL_PROPERTY
Conf_Id
SciTegic.value.IntegerValue
1613

@<SCITEGIC>MOL_PROPERTY
Probability
SciTegic.value.DoubleValue
0.49

@<SCITEGIC>MOL_PROPERTY
Sum Probability
SciTegic.value.DoubleValue
67.42

@<SCITEGIC>MOL_PROPERTY
Delta G
SciTegic.value.DoubleValue
1.413

@<SCITEGIC>MOL_PROPERTY
G
SciTegic.value.DoubleValue
59.559

@<SCITEGIC>MOL_PROPERTY
E
SciTegic.value.DoubleValue
22.241

@<SCITEGIC>MOL_PROPERTY
-TS
SciTegic.value.DoubleValue
37.318

@<SCITEGIC>MOL_PROPERTY
U+W
SciTegic.value.DoubleValue
-1.904

@<SCITEGIC>MOL_PROPERTY
U
SciTegic.value.DoubleValue
49.514

@<SCITEGIC>MOL_PROPERTY
W
SciTegic.value.DoubleValue
-51.418

@<SCITEGIC>MOL_PROPERTY
W(PB)
SciTegic.value.DoubleValue
-53.933

@<SCITEGIC>MOL_PROPERTY
W(SA)
SciTegic.value.DoubleValue
2.515

@<SCITEGIC>MOL_PROPERTY
Valence
SciTegic.value.DoubleValue
3.749

@<SCITEGIC>MOL_PROPERTY
Coulomb
SciTegic.value.DoubleValue
44.750

@<SCITEGIC>MOL_PROPERTY
VdW
SciTegic.value.DoubleValue
1.015

@<SCITEGIC>MOL_PROPERTY
VdW6
SciTegic.value.DoubleValue
-8.174

@<SCITEGIC>MOL_PROPERTY
VdW12
SciTegic.value.DoubleValue
9.190

@<SCITEGIC>MOL_PROPERTY
Bond
SciTegic.value.DoubleValue
0.232

@<SCITEGIC>MOL_PROPERTY
Angle
SciTegic.value.DoubleValue
0.981

@<SCITEGIC>MOL_PROPERTY
Pdih
SciTegic.value.DoubleValue
2.536

@<SCITEGIC>MOL_PROPERTY
Idih
SciTegic.value.DoubleValue
0.000

@<SCITEGIC>MOL_PROPERTY
Tether
SciTegic.value.DoubleValue
0.000

@<TRIPOS>MOLECULE
guest-3_vm2.mol2 : vm2 ligand conformer 61
          29          28           1
SMALL
USER_CHARGES
 
@<TRIPOS>ATOM
       1    C1      20.824019   19.512765   20.021846 C.3        1 MOL1        -0.2427
       2    H1      20.899587   20.433992   20.612683 H          1 MOL1         0.0958
       3    H2      21.657220   18.854926   20.301218 H          1 MOL1         0.0958
       4    H3      20.951526   19.786454   18.966494 H          1 MOL1         0.0958
       5    C2      19.464680   18.809819   20.237638 C.3        1 MOL1        -0.1412
       6    H4      19.387742   17.965671   19.538175 H          1 MOL1         0.0947
       7    H5      18.647602   19.498115   19.980039 H          1 MOL1         0.0947
       8    C3      19.268088   18.280090   21.678507 C.3        1 MOL1        -0.1437
       9    H6      18.334255   17.702123   21.713046 H          1 MOL1         0.0947
      10    H7      20.076020   17.577186   21.924244 H          1 MOL1         0.0947
      11    C4      19.208406   19.400322   22.744405 C.3        1 MOL1        -0.1437
      12    H8      18.434170   20.128960   22.467300 H          1 MOL1         0.0947
      13    H9      20.162733   19.942424   22.770567 H          1 MOL1         0.0947
      14    C5      18.907693   18.836989   24.151615 C.3        1 MOL1        -0.1437
      15    H10     17.948510   18.301275   24.134897 H          1 MOL1         0.0947
      16    H11     19.678805   18.101555   24.416976 H          1 MOL1         0.0947
      17    C6      18.854287   19.956612   25.218418 C.3        1 MOL1        -0.1437
      18    H12     18.112375   20.708012   24.914632 H          1 MOL1         0.0947
      19    H13     19.819290   20.479441   25.257019 H          1 MOL1         0.0947
      20    C7      18.479456   19.436980   26.628986 C.3        1 MOL1        -0.1477
      21    H14     18.418149   20.285169   27.323695 H          1 MOL1         0.0947
      22    H15     17.474839   18.994778   26.596456 H          1 MOL1         0.0947
      23    C8      19.461815   18.391520   27.194780 C.3        1 MOL1         0.0145
      24    H16     19.496151   17.520780   26.535032 H          1 MOL1         0.0921
      25    H17     19.113320   18.059868   28.176634 H          1 MOL1         0.0921
      26    N1      20.875557   18.912902   27.358806 N.4        1 MOL1        -0.5969
      27    H18     20.912584   19.717504   27.993176 H          1 MOL1         0.3603
      28    H19     21.272132   19.213864   26.462998 H          1 MOL1         0.3603
      29    H20     21.503423   18.198219   27.742805 H          1 MOL1         0.3603
@<TRIPOS>BOND
    1     1     2    1
    2     1     3    1
    3     1     4    1
    4     1     5    1
    5     5     6    1
    6     5     7    1
    7     5     8    1
    8     8     9    1
    9     8    10    1
   10     8    11    1
   11    11    12    1
   12    11    13    1
   13    11    14    1
   14    14    15    1
   15    14    16    1
   16    14    17    1
   17    17    18    1
   18    17    19    1
   19    17    20    1
   20    20    21    1
   21    20    22    1
   22    20    23    1
   23    23    24    1
   24    23    25    1
   25    23    26    1
   26    26    27    1
   27    26    28    1
   28    26    29    1
@<TRIPOS>SUBSTRUCTURE
       1 MOL1            1 RESIDUE      1      MOL     
@<SCITEGIC>MOL_PROPERTY
VM2 Rank
SciTegic.value.IntegerValue
61

@<SCITEGIC>MOL_PROPERTY
Conf_Id
SciTegic.value.IntegerValue
1904

@<SCITEGIC>MOL_PROPERTY
Probability
SciTegic.value.DoubleValue
0.44

@<SCITEGIC>MOL_PROPERTY
Sum Probability
SciTegic.value.DoubleValue
67.86

@<SCITEGIC>MOL_PROPERTY
Delta G
SciTegic.value.DoubleValue
1.480

@<SCITEGIC>MOL_PROPERTY
G
SciTegic.value.DoubleValue
59.626

@<SCITEGIC>MOL_PROPERTY
E
SciTegic.value.DoubleValue
22.045

@<SCITEGIC>MOL_PROPERTY
-TS
SciTegic.value.DoubleValue
37.581

@<SCITEGIC>MOL_PROPERTY
U+W
SciTegic.value.DoubleValue
-2.100

@<SCITEGIC>MOL_PROPERTY
U
SciTegic.value.DoubleValue
49.771

@<SCITEGIC>MOL_PROPERTY
W
SciTegic.value.DoubleValue
-51.866

@<SCITEGIC>MOL_PROPERTY
W(PB)
SciTegic.value.DoubleValue
-54.359

@<SCITEGIC>MOL_PROPERTY
W(SA)
SciTegic.value.DoubleValue
2.493

@<SCITEGIC>MOL_PROPERTY
Valence
SciTegic.value.DoubleValue
3.472

@<SCITEGIC>MOL_PROPERTY
Coulomb
SciTegic.value.DoubleValue
45.376

@<SCITEGIC>MOL_PROPERTY
VdW
SciTegic.value.DoubleValue
0.923

@<SCITEGIC>MOL_PROPERTY
VdW6
SciTegic.value.DoubleValue
-8.870

@<SCITEGIC>MOL_PROPERTY
VdW12
SciTegic.value.DoubleValue
9.793

@<SCITEGIC>MOL_PROPERTY
Bond
SciTegic.value.DoubleValue
0.226

@<SCITEGIC>MOL_PROPERTY
Angle
SciTegic.value.DoubleValue
0.872

@<SCITEGIC>MOL_PROPERTY
Pdih
SciTegic.value.DoubleValue
2.373

@<SCITEGIC>MOL_PROPERTY
Idih
SciTegic.value.DoubleValue
0.000

@<SCITEGIC>MOL_PROPERTY
Tether
SciTegic.value.DoubleValue
0.000

@<TRIPOS>MOLECULE
guest-3_vm2.mol2 : vm2 ligand conformer 62
          29          28           1
SMALL
USER_CHARGES
 
@<TRIPOS>ATOM
       1    C1      20.973600   19.337962   20.164539 C.3        1 MOL1        -0.2427
       2    H1      21.214425   18.302875   20.436912 H          1 MOL1         0.0958
       3    H2      21.246147   19.473922   19.109954 H          1 MOL1         0.0958
       4    H3      21.604506   20.007345   20.763619 H          1 MOL1         0.0958
       5    C2      19.474757   19.646802   20.380068 C.3        1 MOL1        -0.1412
       6    H4      18.864971   18.947655   19.790949 H          1 MOL1         0.0947
       7    H5      19.259076   20.649939   19.986449 H          1 MOL1         0.0947
       8    C3      19.045227   19.592682   21.865885 C.3        1 MOL1        -0.1437
       9    H6      19.640478   20.316801   22.437423 H          1 MOL1         0.0947
      10    H7      17.999517   19.921533   21.939484 H          1 MOL1         0.0947
      11    C4      19.178027   18.181293   22.491586 C.3        1 MOL1        -0.1437
      12    H8      20.235052   17.887809   22.537927 H          1 MOL1         0.0947
      13    H9      18.681786   17.451544   21.837171 H          1 MOL1         0.0947
      14    C5      18.557883   18.073618   23.906232 C.3        1 MOL1        -0.1437
      15    H10     17.492600   18.339066   23.861857 H          1 MOL1         0.0947
      16    H11     18.600933   17.023229   24.225878 H          1 MOL1         0.0947
      17    C6      19.272168   18.951630   24.961534 C.3        1 MOL1        -0.1437
      18    H12     19.170917   20.012361   24.696686 H          1 MOL1         0.0947
      19    H13     20.345698   18.720723   24.957134 H          1 MOL1         0.0947
      20    C7      18.691927   18.728279   26.378032 C.3        1 MOL1        -0.1477
      21    H14     17.611059   18.921836   26.362533 H          1 MOL1         0.0947
      22    H15     18.818312   17.678883   26.675963 H          1 MOL1         0.0947
      23    C8      19.336414   19.644156   27.436225 C.3        1 MOL1         0.0145
      24    H16     18.831560   19.501523   28.395558 H          1 MOL1         0.0921
      25    H17     19.217171   20.689814   27.139971 H          1 MOL1         0.0921
      26    N1      20.813997   19.381577   27.650898 N.4        1 MOL1        -0.5969
      27    H18     21.354341   19.532544   26.793307 H          1 MOL1         0.3603
      28    H19     20.988852   18.417859   27.954175 H          1 MOL1         0.3603
      29    H20     21.209993   19.998538   28.368635 H          1 MOL1         0.3603
@<TRIPOS>BOND
    1     1     2    1
    2     1     3    1
    3     1     4    1
    4     1     5    1
    5     5     6    1
    6     5     7    1
    7     5     8    1
    8     8     9    1
    9     8    10    1
   10     8    11    1
   11    11    12    1
   12    11    13    1
   13    11    14    1
   14    14    15    1
   15    14    16    1
   16    14    17    1
   17    17    18    1
   18    17    19    1
   19    17    20    1
   20    20    21    1
   21    20    22    1
   22    20    23    1
   23    23    24    1
   24    23    25    1
   25    23    26    1
   26    26    27    1
   27    26    28    1
   28    26    29    1
@<TRIPOS>SUBSTRUCTURE
       1 MOL1            1 RESIDUE      1      MOL     
@<SCITEGIC>MOL_PROPERTY
VM2 Rank
SciTegic.value.IntegerValue
62

@<SCITEGIC>MOL_PROPERTY
Conf_Id
SciTegic.value.IntegerValue
2326

@<SCITEGIC>MOL_PROPERTY
Probability
SciTegic.value.DoubleValue
0.43

@<SCITEGIC>MOL_PROPERTY
Sum Probability
SciTegic.value.DoubleValue
68.30

@<SCITEGIC>MOL_PROPERTY
Delta G
SciTegic.value.DoubleValue
1.492

@<SCITEGIC>MOL_PROPERTY
G
SciTegic.value.DoubleValue
59.638

@<SCITEGIC>MOL_PROPERTY
E
SciTegic.value.DoubleValue
22.110

@<SCITEGIC>MOL_PROPERTY
-TS
SciTegic.value.DoubleValue
37.528

@<SCITEGIC>MOL_PROPERTY
U+W
SciTegic.value.DoubleValue
-2.034

@<SCITEGIC>MOL_PROPERTY
U
SciTegic.value.DoubleValue
49.822

@<SCITEGIC>MOL_PROPERTY
W
SciTegic.value.DoubleValue
-51.856

@<SCITEGIC>MOL_PROPERTY
W(PB)
SciTegic.value.DoubleValue
-54.363

@<SCITEGIC>MOL_PROPERTY
W(SA)
SciTegic.value.DoubleValue
2.507

@<SCITEGIC>MOL_PROPERTY
Valence
SciTegic.value.DoubleValue
3.699

@<SCITEGIC>MOL_PROPERTY
Coulomb
SciTegic.value.DoubleValue
45.079

@<SCITEGIC>MOL_PROPERTY
VdW
SciTegic.value.DoubleValue
1.045

@<SCITEGIC>MOL_PROPERTY
VdW6
SciTegic.value.DoubleValue
-8.779

@<SCITEGIC>MOL_PROPERTY
VdW12
SciTegic.value.DoubleValue
9.824

@<SCITEGIC>MOL_PROPERTY
Bond
SciTegic.value.DoubleValue
0.239

@<SCITEGIC>MOL_PROPERTY
Angle
SciTegic.value.DoubleValue
0.889

@<SCITEGIC>MOL_PROPERTY
Pdih
SciTegic.value.DoubleValue
2.571

@<SCITEGIC>MOL_PROPERTY
Idih
SciTegic.value.DoubleValue
0.000

@<SCITEGIC>MOL_PROPERTY
Tether
SciTegic.value.DoubleValue
0.000

@<TRIPOS>MOLECULE
guest-3_vm2.mol2 : vm2 ligand conformer 63
          29          28           1
SMALL
USER_CHARGES
 
@<TRIPOS>ATOM
       1    C1      20.291152   18.015841   19.988568 C.3        1 MOL1        -0.2427
       2    H1      21.348558   17.987802   20.282052 H          1 MOL1         0.0958
       3    H2      19.759450   17.231519   20.541371 H          1 MOL1         0.0958
       4    H3      20.232036   17.765107   18.921530 H          1 MOL1         0.0958
       5    C2      19.678497   19.410213   20.251024 C.3        1 MOL1        -0.1412
       6    H4      18.614040   19.403621   19.977871 H          1 MOL1         0.0947
       7    H5      20.161980   20.140014   19.586653 H          1 MOL1         0.0947
       8    C3      19.840353   19.887591   21.714334 C.3        1 MOL1        -0.1437
       9    H6      20.907118   19.911757   21.976333 H          1 MOL1         0.0947
      10    H7      19.481109   20.923574   21.784801 H          1 MOL1         0.0947
      11    C4      19.071427   19.015836   22.735809 C.3        1 MOL1        -0.1437
      12    H8      19.468303   17.992259   22.727067 H          1 MOL1         0.0947
      13    H9      18.014953   18.951767   22.441022 H          1 MOL1         0.0947
      14    C5      19.174386   19.586255   24.168299 C.3        1 MOL1        -0.1437
      15    H10     20.232898   19.657990   24.451668 H          1 MOL1         0.0947
      16    H11     18.769609   20.607594   24.186303 H          1 MOL1         0.0947
      17    C6      18.410665   18.710980   25.190597 C.3        1 MOL1        -0.1437
      18    H12     18.827709   17.695043   25.194802 H          1 MOL1         0.0947
      19    H13     17.365215   18.610055   24.867844 H          1 MOL1         0.0947
      20    C7      18.428652   19.294167   26.625789 C.3        1 MOL1        -0.1477
      21    H14     17.930011   20.272539   26.624988 H          1 MOL1         0.0947
      22    H15     17.835401   18.648838   27.287154 H          1 MOL1         0.0947
      23    C8      19.842553   19.460262   27.218611 C.3        1 MOL1         0.0145
      24    H16     19.768222   19.898352   28.217625 H          1 MOL1         0.0921
      25    H17     20.428687   20.138643   26.593408 H          1 MOL1         0.0921
      26    N1      20.606314   18.156856   27.341970 N.4        1 MOL1        -0.5969
      27    H18     20.117637   17.485584   27.943442 H          1 MOL1         0.3603
      28    H19     21.539056   18.298113   27.745057 H          1 MOL1         0.3603
      29    H20     20.736076   17.708720   26.429468 H          1 MOL1         0.3603
@<TRIPOS>BOND
    1     1     2    1
    2     1     3    1
    3     1     4    1
    4     1     5    1
    5     5     6    1
    6     5     7    1
    7     5     8    1
    8     8     9    1
    9     8    10    1
   10     8    11    1
   11    11    12    1
   12    11    13    1
   13    11    14    1
   14    14    15    1
   15    14    16    1
   16    14    17    1
   17    17    18    1
   18    17    19    1
   19    17    20    1
   20    20    21    1
   21    20    22    1
   22    20    23    1
   23    23    24    1
   24    23    25    1
   25    23    26    1
   26    26    27    1
   27    26    28    1
   28    26    29    1
@<TRIPOS>SUBSTRUCTURE
       1 MOL1            1 RESIDUE      1      MOL     
@<SCITEGIC>MOL_PROPERTY
VM2 Rank
SciTegic.value.IntegerValue
63

@<SCITEGIC>MOL_PROPERTY
Conf_Id
SciTegic.value.IntegerValue
1016

@<SCITEGIC>MOL_PROPERTY
Probability
SciTegic.value.DoubleValue
0.43

@<SCITEGIC>MOL_PROPERTY
Sum Probability
SciTegic.value.DoubleValue
68.73

@<SCITEGIC>MOL_PROPERTY
Delta G
SciTegic.value.DoubleValue
1.495

@<SCITEGIC>MOL_PROPERTY
G
SciTegic.value.DoubleValue
59.641

@<SCITEGIC>MOL_PROPERTY
E
SciTegic.value.DoubleValue
22.060

@<SCITEGIC>MOL_PROPERTY
-TS
SciTegic.value.DoubleValue
37.581

@<SCITEGIC>MOL_PROPERTY
U+W
SciTegic.value.DoubleValue
-2.084

@<SCITEGIC>MOL_PROPERTY
U
SciTegic.value.DoubleValue
49.771

@<SCITEGIC>MOL_PROPERTY
W
SciTegic.value.DoubleValue
-51.855

@<SCITEGIC>MOL_PROPERTY
W(PB)
SciTegic.value.DoubleValue
-54.329

@<SCITEGIC>MOL_PROPERTY
W(SA)
SciTegic.value.DoubleValue
2.474

@<SCITEGIC>MOL_PROPERTY
Valence
SciTegic.value.DoubleValue
3.472

@<SCITEGIC>MOL_PROPERTY
Coulomb
SciTegic.value.DoubleValue
45.376

@<SCITEGIC>MOL_PROPERTY
VdW
SciTegic.value.DoubleValue
0.923

@<SCITEGIC>MOL_PROPERTY
VdW6
SciTegic.value.DoubleValue
-8.870

@<SCITEGIC>MOL_PROPERTY
VdW12
SciTegic.value.DoubleValue
9.793

@<SCITEGIC>MOL_PROPERTY
Bond
SciTegic.value.DoubleValue
0.226

@<SCITEGIC>MOL_PROPERTY
Angle
SciTegic.value.DoubleValue
0.872

@<SCITEGIC>MOL_PROPERTY
Pdih
SciTegic.value.DoubleValue
2.373

@<SCITEGIC>MOL_PROPERTY
Idih
SciTegic.value.DoubleValue
0.000

@<SCITEGIC>MOL_PROPERTY
Tether
SciTegic.value.DoubleValue
0.000

@<TRIPOS>MOLECULE
guest-3_vm2.mol2 : vm2 ligand conformer 64
          29          28           1
SMALL
USER_CHARGES
 
@<TRIPOS>ATOM
       1    C1      19.864528   18.267435   19.444197 C.3        1 MOL1        -0.2427
       2    H1      20.497475   17.395669   19.655497 H          1 MOL1         0.0958
       3    H2      19.181337   17.998184   18.628233 H          1 MOL1         0.0958
       4    H3      20.510379   19.080862   19.088582 H          1 MOL1         0.0958
       5    C2      19.073496   18.695413   20.698351 C.3        1 MOL1        -0.1412
       6    H4      18.412466   17.874600   21.010089 H          1 MOL1         0.0947
       7    H5      18.425374   19.546884   20.447709 H          1 MOL1         0.0947
       8    C3      20.012444   19.080001   21.862996 C.3        1 MOL1        -0.1437
       9    H6      20.659543   18.226671   22.108926 H          1 MOL1         0.0947
      10    H7      20.672856   19.898808   21.545545 H          1 MOL1         0.0947
      11    C4      19.223844   19.509306   23.120635 C.3        1 MOL1        -0.1437
      12    H8      18.562008   18.688346   23.426207 H          1 MOL1         0.0947
      13    H9      18.580095   20.365290   22.875577 H          1 MOL1         0.0947
      14    C5      20.166777   19.889102   24.287163 C.3        1 MOL1        -0.1437
      15    H10     20.783517   19.022836   24.561252 H          1 MOL1         0.0947
      16    H11     20.867036   20.662795   23.943184 H          1 MOL1         0.0947
      17    C6      19.420640   20.426538   25.535577 C.3        1 MOL1        -0.1437
      18    H12     18.886438   21.347685   25.264903 H          1 MOL1         0.0947
      19    H13     20.161275   20.723902   26.290065 H          1 MOL1         0.0947
      20    C7      18.413123   19.433353   26.172005 C.3        1 MOL1        -0.1477
      21    H14     17.977765   19.888236   27.071587 H          1 MOL1         0.0947
      22    H15     17.573737   19.267428   25.484745 H          1 MOL1         0.0947
      23    C8      19.028830   18.069765   26.544114 C.3        1 MOL1         0.0145
      24    H16     19.434318   17.591574   25.648660 H          1 MOL1         0.0921
      25    H17     18.251849   17.419554   26.955161 H          1 MOL1         0.0921
      26    N1      20.140318   18.167088   27.569961 N.4        1 MOL1        -0.5969
      27    H18     19.811339   18.581453   28.448127 H          1 MOL1         0.3603
      28    H19     20.914403   18.747447   27.232083 H          1 MOL1         0.3603
      29    H20     20.529692   17.246145   27.799305 H          1 MOL1         0.3603
@<TRIPOS>BOND
    1     1     2    1
    2     1     3    1
    3     1     4    1
    4     1     5    1
    5     5     6    1
    6     5     7    1
    7     5     8    1
    8     8     9    1
    9     8    10    1
   10     8    11    1
   11    11    12    1
   12    11    13    1
   13    11    14    1
   14    14    15    1
   15    14    16    1
   16    14    17    1
   17    17    18    1
   18    17    19    1
   19    17    20    1
   20    20    21    1
   21    20    22    1
   22    20    23    1
   23    23    24    1
   24    23    25    1
   25    23    26    1
   26    26    27    1
   27    26    28    1
   28    26    29    1
@<TRIPOS>SUBSTRUCTURE
       1 MOL1            1 RESIDUE      1      MOL     
@<SCITEGIC>MOL_PROPERTY
VM2 Rank
SciTegic.value.IntegerValue
64

@<SCITEGIC>MOL_PROPERTY
Conf_Id
SciTegic.value.IntegerValue
2736

@<SCITEGIC>MOL_PROPERTY
Probability
SciTegic.value.DoubleValue
0.42

@<SCITEGIC>MOL_PROPERTY
Sum Probability
SciTegic.value.DoubleValue
69.14

@<SCITEGIC>MOL_PROPERTY
Delta G
SciTegic.value.DoubleValue
1.511

@<SCITEGIC>MOL_PROPERTY
G
SciTegic.value.DoubleValue
59.657

@<SCITEGIC>MOL_PROPERTY
E
SciTegic.value.DoubleValue
21.923

@<SCITEGIC>MOL_PROPERTY
-TS
SciTegic.value.DoubleValue
37.735

@<SCITEGIC>MOL_PROPERTY
U+W
SciTegic.value.DoubleValue
-2.222

@<SCITEGIC>MOL_PROPERTY
U
SciTegic.value.DoubleValue
49.648

@<SCITEGIC>MOL_PROPERTY
W
SciTegic.value.DoubleValue
-51.869

@<SCITEGIC>MOL_PROPERTY
W(PB)
SciTegic.value.DoubleValue
-54.357

@<SCITEGIC>MOL_PROPERTY
W(SA)
SciTegic.value.DoubleValue
2.488

@<SCITEGIC>MOL_PROPERTY
Valence
SciTegic.value.DoubleValue
3.442

@<SCITEGIC>MOL_PROPERTY
Coulomb
SciTegic.value.DoubleValue
45.477

@<SCITEGIC>MOL_PROPERTY
VdW
SciTegic.value.DoubleValue
0.729

@<SCITEGIC>MOL_PROPERTY
VdW6
SciTegic.value.DoubleValue
-9.235

@<SCITEGIC>MOL_PROPERTY
VdW12
SciTegic.value.DoubleValue
9.964

@<SCITEGIC>MOL_PROPERTY
Bond
SciTegic.value.DoubleValue
0.237

@<SCITEGIC>MOL_PROPERTY
Angle
SciTegic.value.DoubleValue
0.960

@<SCITEGIC>MOL_PROPERTY
Pdih
SciTegic.value.DoubleValue
2.245

@<SCITEGIC>MOL_PROPERTY
Idih
SciTegic.value.DoubleValue
0.000

@<SCITEGIC>MOL_PROPERTY
Tether
SciTegic.value.DoubleValue
0.000

@<TRIPOS>MOLECULE
guest-3_vm2.mol2 : vm2 ligand conformer 65
          29          28           1
SMALL
USER_CHARGES
 
@<TRIPOS>ATOM
       1    C1      19.628009   19.705910   19.639891 C.3        1 MOL1        -0.2427
       2    H1      20.715116   19.581424   19.551955 H          1 MOL1         0.0958
       3    H2      19.219609   19.816207   18.626987 H          1 MOL1         0.0958
       4    H3      19.430981   20.641168   20.178345 H          1 MOL1         0.0958
       5    C2      18.985913   18.494293   20.352770 C.3        1 MOL1        -0.1412
       6    H4      19.104688   17.605808   19.716972 H          1 MOL1         0.0947
       7    H5      17.903860   18.656625   20.455379 H          1 MOL1         0.0947
       8    C3      19.604599   18.198153   21.740184 C.3        1 MOL1        -0.1437
       9    H6      19.171356   17.263643   22.122631 H          1 MOL1         0.0947
      10    H7      20.682638   18.016772   21.629933 H          1 MOL1         0.0947
      11    C4      19.367998   19.325064   22.773984 C.3        1 MOL1        -0.1437
      12    H8      18.292620   19.539197   22.843353 H          1 MOL1         0.0947
      13    H9      19.856775   20.248849   22.437754 H          1 MOL1         0.0947
      14    C5      19.909808   18.944870   24.170389 C.3        1 MOL1        -0.1437
      15    H10     19.422359   18.020183   24.506813 H          1 MOL1         0.0947
      16    H11     20.985229   18.730827   24.099680 H          1 MOL1         0.0947
      17    C6      19.674818   20.072650   25.203535 C.3        1 MOL1        -0.1437
      18    H12     18.599160   20.274169   25.295307 H          1 MOL1         0.0947
      19    H13     20.128411   21.001767   24.831633 H          1 MOL1         0.0947
      20    C7      20.272880   19.756656   26.597343 C.3        1 MOL1        -0.1477
      21    H14     21.361413   19.643730   26.506780 H          1 MOL1         0.0947
      22    H15     20.108497   20.612631   27.265239 H          1 MOL1         0.0947
      23    C8      19.696894   18.486102   27.254669 C.3        1 MOL1         0.0145
      24    H16     20.186850   18.321791   28.218216 H          1 MOL1         0.0921
      25    H17     19.896027   17.618481   26.620469 H          1 MOL1         0.0921
      26    N1      18.203081   18.554303   27.502236 N.4        1 MOL1        -0.5969
      27    H18     17.681959   18.678549   26.628550 H          1 MOL1         0.3603
      28    H19     17.955212   19.335964   28.117658 H          1 MOL1         0.3603
      29    H20     17.850576   17.699043   27.945754 H          1 MOL1         0.3603
@<TRIPOS>BOND
    1     1     2    1
    2     1     3    1
    3     1     4    1
    4     1     5    1
    5     5     6    1
    6     5     7    1
    7     5     8    1
    8     8     9    1
    9     8    10    1
   10     8    11    1
   11    11    12    1
   12    11    13    1
   13    11    14    1
   14    14    15    1
   15    14    16    1
   16    14    17    1
   17    17    18    1
   18    17    19    1
   19    17    20    1
   20    20    21    1
   21    20    22    1
   22    20    23    1
   23    23    24    1
   24    23    25    1
   25    23    26    1
   26    26    27    1
   27    26    28    1
   28    26    29    1
@<TRIPOS>SUBSTRUCTURE
       1 MOL1            1 RESIDUE      1      MOL     
@<SCITEGIC>MOL_PROPERTY
VM2 Rank
SciTegic.value.IntegerValue
65

@<SCITEGIC>MOL_PROPERTY
Conf_Id
SciTegic.value.IntegerValue
925

@<SCITEGIC>MOL_PROPERTY
Probability
SciTegic.value.DoubleValue
0.41

@<SCITEGIC>MOL_PROPERTY
Sum Probability
SciTegic.value.DoubleValue
69.56

@<SCITEGIC>MOL_PROPERTY
Delta G
SciTegic.value.DoubleValue
1.520

@<SCITEGIC>MOL_PROPERTY
G
SciTegic.value.DoubleValue
59.666

@<SCITEGIC>MOL_PROPERTY
E
SciTegic.value.DoubleValue
22.084

@<SCITEGIC>MOL_PROPERTY
-TS
SciTegic.value.DoubleValue
37.582

@<SCITEGIC>MOL_PROPERTY
U+W
SciTegic.value.DoubleValue
-2.061

@<SCITEGIC>MOL_PROPERTY
U
SciTegic.value.DoubleValue
49.716

@<SCITEGIC>MOL_PROPERTY
W
SciTegic.value.DoubleValue
-51.777

@<SCITEGIC>MOL_PROPERTY
W(PB)
SciTegic.value.DoubleValue
-54.285

@<SCITEGIC>MOL_PROPERTY
W(SA)
SciTegic.value.DoubleValue
2.508

@<SCITEGIC>MOL_PROPERTY
Valence
SciTegic.value.DoubleValue
3.471

@<SCITEGIC>MOL_PROPERTY
Coulomb
SciTegic.value.DoubleValue
45.316

@<SCITEGIC>MOL_PROPERTY
VdW
SciTegic.value.DoubleValue
0.929

@<SCITEGIC>MOL_PROPERTY
VdW6
SciTegic.value.DoubleValue
-8.866

@<SCITEGIC>MOL_PROPERTY
VdW12
SciTegic.value.DoubleValue
9.796

@<SCITEGIC>MOL_PROPERTY
Bond
SciTegic.value.DoubleValue
0.226

@<SCITEGIC>MOL_PROPERTY
Angle
SciTegic.value.DoubleValue
0.872

@<SCITEGIC>MOL_PROPERTY
Pdih
SciTegic.value.DoubleValue
2.372

@<SCITEGIC>MOL_PROPERTY
Idih
SciTegic.value.DoubleValue
0.000

@<SCITEGIC>MOL_PROPERTY
Tether
SciTegic.value.DoubleValue
0.000

@<TRIPOS>MOLECULE
guest-3_vm2.mol2 : vm2 ligand conformer 66
          29          28           1
SMALL
USER_CHARGES
 
@<TRIPOS>ATOM
       1    C1      19.860259   19.119001   19.119761 C.3        1 MOL1        -0.2427
       2    H1      19.292144   19.717477   18.395804 H          1 MOL1         0.0958
       3    H2      20.903691   19.459326   19.093625 H          1 MOL1         0.0958
       4    H3      19.833126   18.073140   18.787091 H          1 MOL1         0.0958
       5    C2      19.264474   19.267018   20.535814 C.3        1 MOL1        -0.1412
       6    H4      18.213375   18.946540   20.523785 H          1 MOL1         0.0947
       7    H5      19.271030   20.328893   20.814502 H          1 MOL1         0.0947
       8    C3      20.052641   18.434966   21.575024 C.3        1 MOL1        -0.1437
       9    H6      20.104041   17.393040   21.229949 H          1 MOL1         0.0947
      10    H7      21.089998   18.793203   21.627631 H          1 MOL1         0.0947
      11    C4      19.425285   18.450158   22.990868 C.3        1 MOL1        -0.1437
      12    H8      19.967364   17.721729   23.607157 H          1 MOL1         0.0947
      13    H9      18.386274   18.097336   22.936059 H          1 MOL1         0.0947
      14    C5      19.471384   19.841031   23.673553 C.3        1 MOL1        -0.1437
      15    H10     20.510577   20.193360   23.728529 H          1 MOL1         0.0947
      16    H11     18.930204   20.569545   23.056520 H          1 MOL1         0.0947
      17    C6      18.843047   19.856610   25.088963 C.3        1 MOL1        -0.1437
      18    H12     17.804520   19.501481   25.035219 H          1 MOL1         0.0947
      19    H13     18.794578   20.898329   25.435650 H          1 MOL1         0.0947
      20    C7      19.627845   19.021029   26.127532 C.3        1 MOL1        -0.1477
      21    H14     19.614740   17.960009   25.848922 H          1 MOL1         0.0947
      22    H15     20.678456   19.340266   26.141392 H          1 MOL1         0.0947
      23    C8      19.028784   19.174689   27.536510 C.3        1 MOL1         0.0145
      24    H16     17.987049   18.842696   27.531849 H          1 MOL1         0.0921
      25    H17     19.053710   20.226328   27.834630 H          1 MOL1         0.0921
      26    N1      19.770281   18.373497   28.586974 N.4        1 MOL1        -0.5969
      27    H18     19.760136   17.369395   28.379206 H          1 MOL1         0.3603
      28    H19     19.355383   18.490272   29.518081 H          1 MOL1         0.3603
      29    H20     20.753018   18.657035   28.660183 H          1 MOL1         0.3603
@<TRIPOS>BOND
    1     1     2    1
    2     1     3    1
    3     1     4    1
    4     1     5    1
    5     5     6    1
    6     5     7    1
    7     5     8    1
    8     8     9    1
    9     8    10    1
   10     8    11    1
   11    11    12    1
   12    11    13    1
   13    11    14    1
   14    14    15    1
   15    14    16    1
   16    14    17    1
   17    17    18    1
   18    17    19    1
   19    17    20    1
   20    20    21    1
   21    20    22    1
   22    20    23    1
   23    23    24    1
   24    23    25    1
   25    23    26    1
   26    26    27    1
   27    26    28    1
   28    26    29    1
@<TRIPOS>SUBSTRUCTURE
       1 MOL1            1 RESIDUE      1      MOL     
@<SCITEGIC>MOL_PROPERTY
VM2 Rank
SciTegic.value.IntegerValue
66

@<SCITEGIC>MOL_PROPERTY
Conf_Id
SciTegic.value.IntegerValue
1887

@<SCITEGIC>MOL_PROPERTY
Probability
SciTegic.value.DoubleValue
0.41

@<SCITEGIC>MOL_PROPERTY
Sum Probability
SciTegic.value.DoubleValue
69.97

@<SCITEGIC>MOL_PROPERTY
Delta G
SciTegic.value.DoubleValue
1.522

@<SCITEGIC>MOL_PROPERTY
G
SciTegic.value.DoubleValue
59.668

@<SCITEGIC>MOL_PROPERTY
E
SciTegic.value.DoubleValue
22.350

@<SCITEGIC>MOL_PROPERTY
-TS
SciTegic.value.DoubleValue
37.318

@<SCITEGIC>MOL_PROPERTY
U+W
SciTegic.value.DoubleValue
-1.795

@<SCITEGIC>MOL_PROPERTY
U
SciTegic.value.DoubleValue
49.514

@<SCITEGIC>MOL_PROPERTY
W
SciTegic.value.DoubleValue
-51.309

@<SCITEGIC>MOL_PROPERTY
W(PB)
SciTegic.value.DoubleValue
-53.856

@<SCITEGIC>MOL_PROPERTY
W(SA)
SciTegic.value.DoubleValue
2.548

@<SCITEGIC>MOL_PROPERTY
Valence
SciTegic.value.DoubleValue
3.749

@<SCITEGIC>MOL_PROPERTY
Coulomb
SciTegic.value.DoubleValue
44.750

@<SCITEGIC>MOL_PROPERTY
VdW
SciTegic.value.DoubleValue
1.016

@<SCITEGIC>MOL_PROPERTY
VdW6
SciTegic.value.DoubleValue
-8.174

@<SCITEGIC>MOL_PROPERTY
VdW12
SciTegic.value.DoubleValue
9.190

@<SCITEGIC>MOL_PROPERTY
Bond
SciTegic.value.DoubleValue
0.232

@<SCITEGIC>MOL_PROPERTY
Angle
SciTegic.value.DoubleValue
0.980

@<SCITEGIC>MOL_PROPERTY
Pdih
SciTegic.value.DoubleValue
2.536

@<SCITEGIC>MOL_PROPERTY
Idih
SciTegic.value.DoubleValue
0.000

@<SCITEGIC>MOL_PROPERTY
Tether
SciTegic.value.DoubleValue
0.000

@<TRIPOS>MOLECULE
guest-3_vm2.mol2 : vm2 ligand conformer 67
          29          28           1
SMALL
USER_CHARGES
 
@<TRIPOS>ATOM
       1    C1      20.592101   18.218847   19.846907 C.3        1 MOL1        -0.2427
       2    H1      21.280796   19.058590   19.686336 H          1 MOL1         0.0958
       3    H2      21.160548   17.288016   19.722591 H          1 MOL1         0.0958
       4    H3      19.824066   18.251675   19.063147 H          1 MOL1         0.0958
       5    C2      19.955502   18.285099   21.251306 C.3        1 MOL1        -0.1412
       6    H4      20.749631   18.208295   22.005657 H          1 MOL1         0.0947
       7    H5      19.295312   17.418102   21.393152 H          1 MOL1         0.0947
       8    C3      19.152155   19.591881   21.451519 C.3        1 MOL1        -0.1437
       9    H6      19.823952   20.456875   21.363860 H          1 MOL1         0.0947
      10    H7      18.419019   19.687664   20.638724 H          1 MOL1         0.0947
      11    C4      18.397282   19.655633   22.802006 C.3        1 MOL1        -0.1437
      12    H8      17.715268   18.797986   22.882637 H          1 MOL1         0.0947
      13    H9      17.764616   20.553969   22.803595 H          1 MOL1         0.0947
      14    C5      19.333788   19.696455   24.033318 C.3        1 MOL1        -0.1437
      15    H10     19.921918   18.771637   24.079180 H          1 MOL1         0.0947
      16    H11     20.047029   20.524959   23.923797 H          1 MOL1         0.0947
      17    C6      18.539384   19.870728   25.349846 C.3        1 MOL1        -0.1437
      18    H12     17.838359   19.034522   25.473923 H          1 MOL1         0.0947
      19    H13     17.922980   20.777732   25.281481 H          1 MOL1         0.0947
      20    C7      19.447984   19.987153   26.599380 C.3        1 MOL1        -0.1477
      21    H14     20.084225   20.876896   26.502373 H          1 MOL1         0.0947
      22    H15     18.823790   20.152677   27.487516 H          1 MOL1         0.0947
      23    C8      20.348957   18.758563   26.838280 C.3        1 MOL1         0.0145
      24    H16     20.971547   18.930973   27.720401 H          1 MOL1         0.0921
      25    H17     21.009782   18.611586   25.980194 H          1 MOL1         0.0921
      26    N1      19.576848   17.473641   27.062439 N.4        1 MOL1        -0.5969
      27    H18     18.992196   17.239705   26.253890 H          1 MOL1         0.3603
      28    H19     18.957062   17.540040   27.876467 H          1 MOL1         0.3603
      29    H20     20.201879   16.676521   27.224818 H          1 MOL1         0.3603
@<TRIPOS>BOND
    1     1     2    1
    2     1     3    1
    3     1     4    1
    4     1     5    1
    5     5     6    1
    6     5     7    1
    7     5     8    1
    8     8     9    1
    9     8    10    1
   10     8    11    1
   11    11    12    1
   12    11    13    1
   13    11    14    1
   14    14    15    1
   15    14    16    1
   16    14    17    1
   17    17    18    1
   18    17    19    1
   19    17    20    1
   20    20    21    1
   21    20    22    1
   22    20    23    1
   23    23    24    1
   24    23    25    1
   25    23    26    1
   26    26    27    1
   27    26    28    1
   28    26    29    1
@<TRIPOS>SUBSTRUCTURE
       1 MOL1            1 RESIDUE      1      MOL     
@<SCITEGIC>MOL_PROPERTY
VM2 Rank
SciTegic.value.IntegerValue
67

@<SCITEGIC>MOL_PROPERTY
Conf_Id
SciTegic.value.IntegerValue
1029

@<SCITEGIC>MOL_PROPERTY
Probability
SciTegic.value.DoubleValue
0.40

@<SCITEGIC>MOL_PROPERTY
Sum Probability
SciTegic.value.DoubleValue
70.37

@<SCITEGIC>MOL_PROPERTY
Delta G
SciTegic.value.DoubleValue
1.539

@<SCITEGIC>MOL_PROPERTY
G
SciTegic.value.DoubleValue
59.685

@<SCITEGIC>MOL_PROPERTY
E
SciTegic.value.DoubleValue
22.114

@<SCITEGIC>MOL_PROPERTY
-TS
SciTegic.value.DoubleValue
37.571

@<SCITEGIC>MOL_PROPERTY
U+W
SciTegic.value.DoubleValue
-2.031

@<SCITEGIC>MOL_PROPERTY
U
SciTegic.value.DoubleValue
50.141

@<SCITEGIC>MOL_PROPERTY
W
SciTegic.value.DoubleValue
-52.171

@<SCITEGIC>MOL_PROPERTY
W(PB)
SciTegic.value.DoubleValue
-54.647

@<SCITEGIC>MOL_PROPERTY
W(SA)
SciTegic.value.DoubleValue
2.476

@<SCITEGIC>MOL_PROPERTY
Valence
SciTegic.value.DoubleValue
3.507

@<SCITEGIC>MOL_PROPERTY
Coulomb
SciTegic.value.DoubleValue
45.742

@<SCITEGIC>MOL_PROPERTY
VdW
SciTegic.value.DoubleValue
0.892

@<SCITEGIC>MOL_PROPERTY
VdW6
SciTegic.value.DoubleValue
-8.957

@<SCITEGIC>MOL_PROPERTY
VdW12
SciTegic.value.DoubleValue
9.849

@<SCITEGIC>MOL_PROPERTY
Bond
SciTegic.value.DoubleValue
0.232

@<SCITEGIC>MOL_PROPERTY
Angle
SciTegic.value.DoubleValue
0.893

@<SCITEGIC>MOL_PROPERTY
Pdih
SciTegic.value.DoubleValue
2.381

@<SCITEGIC>MOL_PROPERTY
Idih
SciTegic.value.DoubleValue
0.000

@<SCITEGIC>MOL_PROPERTY
Tether
SciTegic.value.DoubleValue
0.000

@<TRIPOS>MOLECULE
guest-3_vm2.mol2 : vm2 ligand conformer 68
          29          28           1
SMALL
USER_CHARGES
 
@<TRIPOS>ATOM
       1    C1      20.342193   19.609196   19.474126 C.3        1 MOL1        -0.2427
       2    H1      20.334462   18.585491   19.077617 H          1 MOL1         0.0958
       3    H2      19.994012   20.281289   18.679077 H          1 MOL1         0.0958
       4    H3      21.380350   19.876422   19.710902 H          1 MOL1         0.0958
       5    C2      19.440878   19.727603   20.721286 C.3        1 MOL1        -0.1412
       6    H4      18.404309   19.487299   20.446210 H          1 MOL1         0.0947
       7    H5      19.442183   20.768330   21.074501 H          1 MOL1         0.0947
       8    C3      19.909555   18.790862   21.856533 C.3        1 MOL1        -0.1437
       9    H6      19.909014   17.752298   21.497721 H          1 MOL1         0.0947
      10    H7      20.946606   19.033357   22.126928 H          1 MOL1         0.0947
      11    C4      19.009325   18.906685   23.107138 C.3        1 MOL1        -0.1437
      12    H8      17.973156   18.660131   22.837435 H          1 MOL1         0.0947
      13    H9      19.010412   19.948259   23.454267 H          1 MOL1         0.0947
      14    C5      19.483945   17.970909   24.244330 C.3        1 MOL1        -0.1437
      15    H10     19.542996   16.943186   23.860163 H          1 MOL1         0.0947
      16    H11     20.505271   18.241302   24.543815 H          1 MOL1         0.0947
      17    C6      18.548466   17.976593   25.480832 C.3        1 MOL1        -0.1437
      18    H12     18.924054   17.248630   26.212419 H          1 MOL1         0.0947
      19    H13     17.556382   17.611552   25.181386 H          1 MOL1         0.0947
      20    C7      18.385844   19.356723   26.170280 C.3        1 MOL1        -0.1477
      21    H14     17.849784   20.042645   25.502018 H          1 MOL1         0.0947
      22    H15     17.748295   19.243868   27.057127 H          1 MOL1         0.0947
      23    C8      19.719129   20.008783   26.587538 C.3        1 MOL1         0.0145
      24    H16     19.521742   20.986663   27.035003 H          1 MOL1         0.0921
      25    H17     20.348172   20.158436   25.706157 H          1 MOL1         0.0921
      26    N1      20.504665   19.190647   27.592937 N.4        1 MOL1        -0.5969
      27    H18     19.975478   19.042746   28.458494 H          1 MOL1         0.3603
      28    H19     21.384922   19.648647   27.853189 H          1 MOL1         0.3603
      29    H20     20.742915   18.265783   27.221383 H          1 MOL1         0.3603
@<TRIPOS>BOND
    1     1     2    1
    2     1     3    1
    3     1     4    1
    4     1     5    1
    5     5     6    1
    6     5     7    1
    7     5     8    1
    8     8     9    1
    9     8    10    1
   10     8    11    1
   11    11    12    1
   12    11    13    1
   13    11    14    1
   14    14    15    1
   15    14    16    1
   16    14    17    1
   17    17    18    1
   18    17    19    1
   19    17    20    1
   20    20    21    1
   21    20    22    1
   22    20    23    1
   23    23    24    1
   24    23    25    1
   25    23    26    1
   26    26    27    1
   27    26    28    1
   28    26    29    1
@<TRIPOS>SUBSTRUCTURE
       1 MOL1            1 RESIDUE      1      MOL     
@<SCITEGIC>MOL_PROPERTY
VM2 Rank
SciTegic.value.IntegerValue
68

@<SCITEGIC>MOL_PROPERTY
Conf_Id
SciTegic.value.IntegerValue
316

@<SCITEGIC>MOL_PROPERTY
Probability
SciTegic.value.DoubleValue
0.40

@<SCITEGIC>MOL_PROPERTY
Sum Probability
SciTegic.value.DoubleValue
70.77

@<SCITEGIC>MOL_PROPERTY
Delta G
SciTegic.value.DoubleValue
1.539

@<SCITEGIC>MOL_PROPERTY
G
SciTegic.value.DoubleValue
59.685

@<SCITEGIC>MOL_PROPERTY
E
SciTegic.value.DoubleValue
21.951

@<SCITEGIC>MOL_PROPERTY
-TS
SciTegic.value.DoubleValue
37.735

@<SCITEGIC>MOL_PROPERTY
U+W
SciTegic.value.DoubleValue
-2.194

@<SCITEGIC>MOL_PROPERTY
U
SciTegic.value.DoubleValue
49.648

@<SCITEGIC>MOL_PROPERTY
W
SciTegic.value.DoubleValue
-51.841

@<SCITEGIC>MOL_PROPERTY
W(PB)
SciTegic.value.DoubleValue
-54.341

@<SCITEGIC>MOL_PROPERTY
W(SA)
SciTegic.value.DoubleValue
2.499

@<SCITEGIC>MOL_PROPERTY
Valence
SciTegic.value.DoubleValue
3.442

@<SCITEGIC>MOL_PROPERTY
Coulomb
SciTegic.value.DoubleValue
45.477

@<SCITEGIC>MOL_PROPERTY
VdW
SciTegic.value.DoubleValue
0.729

@<SCITEGIC>MOL_PROPERTY
VdW6
SciTegic.value.DoubleValue
-9.235

@<SCITEGIC>MOL_PROPERTY
VdW12
SciTegic.value.DoubleValue
9.964

@<SCITEGIC>MOL_PROPERTY
Bond
SciTegic.value.DoubleValue
0.237

@<SCITEGIC>MOL_PROPERTY
Angle
SciTegic.value.DoubleValue
0.960

@<SCITEGIC>MOL_PROPERTY
Pdih
SciTegic.value.DoubleValue
2.245

@<SCITEGIC>MOL_PROPERTY
Idih
SciTegic.value.DoubleValue
0.000

@<SCITEGIC>MOL_PROPERTY
Tether
SciTegic.value.DoubleValue
0.000

@<TRIPOS>MOLECULE
guest-3_vm2.mol2 : vm2 ligand conformer 69
          29          28           1
SMALL
USER_CHARGES
 
@<TRIPOS>ATOM
       1    C1      19.247722   18.636907   19.616031 C.3        1 MOL1        -0.2427
       2    H1      20.170537   18.050579   19.517740 H          1 MOL1         0.0958
       3    H2      18.496987   18.015528   20.119762 H          1 MOL1         0.0958
       4    H3      18.875630   18.849408   18.605426 H          1 MOL1         0.0958
       5    C2      19.504621   19.952469   20.385318 C.3        1 MOL1        -0.1412
       6    H4      18.561632   20.505728   20.496645 H          1 MOL1         0.0947
       7    H5      20.166554   20.590856   19.783602 H          1 MOL1         0.0947
       8    C3      20.151756   19.736363   21.774528 C.3        1 MOL1        -0.1437
       9    H6      21.103823   19.200795   21.656383 H          1 MOL1         0.0947
      10    H7      20.400225   20.718552   22.199785 H          1 MOL1         0.0947
      11    C4      19.242399   18.971796   22.766072 C.3        1 MOL1        -0.1437
      12    H8      19.043193   17.961003   22.386668 H          1 MOL1         0.0947
      13    H9      18.272268   19.481883   22.841976 H          1 MOL1         0.0947
      14    C5      19.882796   18.869071   24.168709 C.3        1 MOL1        -0.1437
      15    H10     20.852906   18.358912   24.091460 H          1 MOL1         0.0947
      16    H11     20.083631   19.879714   24.548314 H          1 MOL1         0.0947
      17    C6      18.974145   18.102873   25.159564 C.3        1 MOL1        -0.1437
      18    H12     18.744704   17.111592   24.744791 H          1 MOL1         0.0947
      19    H13     18.011480   18.622081   25.258415 H          1 MOL1         0.0947
      20    C7      19.617750   17.914940   26.556232 C.3        1 MOL1        -0.1477
      21    H14     18.940555   17.329233   27.191965 H          1 MOL1         0.0947
      22    H15     20.534429   17.318881   26.454886 H          1 MOL1         0.0947
      23    C8      19.963869   19.236638   27.271398 C.3        1 MOL1         0.0145
      24    H16     20.674872   19.808102   26.669290 H          1 MOL1         0.0921
      25    H17     20.433993   19.016472   28.233680 H          1 MOL1         0.0921
      26    N1      18.758942   20.116943   27.537147 N.4        1 MOL1        -0.5969
      27    H18     19.019236   20.984369   28.019082 H          1 MOL1         0.3603
      28    H19     18.064693   19.643578   28.124617 H          1 MOL1         0.3603
      29    H20     18.288650   20.384237   26.666681 H          1 MOL1         0.3603
@<TRIPOS>BOND
    1     1     2    1
    2     1     3    1
    3     1     4    1
    4     1     5    1
    5     5     6    1
    6     5     7    1
    7     5     8    1
    8     8     9    1
    9     8    10    1
   10     8    11    1
   11    11    12    1
   12    11    13    1
   13    11    14    1
   14    14    15    1
   15    14    16    1
   16    14    17    1
   17    17    18    1
   18    17    19    1
   19    17    20    1
   20    20    21    1
   21    20    22    1
   22    20    23    1
   23    23    24    1
   24    23    25    1
   25    23    26    1
   26    26    27    1
   27    26    28    1
   28    26    29    1
@<TRIPOS>SUBSTRUCTURE
       1 MOL1            1 RESIDUE      1      MOL     
@<SCITEGIC>MOL_PROPERTY
VM2 Rank
SciTegic.value.IntegerValue
69

@<SCITEGIC>MOL_PROPERTY
Conf_Id
SciTegic.value.IntegerValue
1883

@<SCITEGIC>MOL_PROPERTY
Probability
SciTegic.value.DoubleValue
0.40

@<SCITEGIC>MOL_PROPERTY
Sum Probability
SciTegic.value.DoubleValue
71.16

@<SCITEGIC>MOL_PROPERTY
Delta G
SciTegic.value.DoubleValue
1.542

@<SCITEGIC>MOL_PROPERTY
G
SciTegic.value.DoubleValue
59.688

@<SCITEGIC>MOL_PROPERTY
E
SciTegic.value.DoubleValue
22.106

@<SCITEGIC>MOL_PROPERTY
-TS
SciTegic.value.DoubleValue
37.582

@<SCITEGIC>MOL_PROPERTY
U+W
SciTegic.value.DoubleValue
-2.039

@<SCITEGIC>MOL_PROPERTY
U
SciTegic.value.DoubleValue
49.716

@<SCITEGIC>MOL_PROPERTY
W
SciTegic.value.DoubleValue
-51.755

@<SCITEGIC>MOL_PROPERTY
W(PB)
SciTegic.value.DoubleValue
-54.234

@<SCITEGIC>MOL_PROPERTY
W(SA)
SciTegic.value.DoubleValue
2.480

@<SCITEGIC>MOL_PROPERTY
Valence
SciTegic.value.DoubleValue
3.471

@<SCITEGIC>MOL_PROPERTY
Coulomb
SciTegic.value.DoubleValue
45.316

@<SCITEGIC>MOL_PROPERTY
VdW
SciTegic.value.DoubleValue
0.929

@<SCITEGIC>MOL_PROPERTY
VdW6
SciTegic.value.DoubleValue
-8.866

@<SCITEGIC>MOL_PROPERTY
VdW12
SciTegic.value.DoubleValue
9.795

@<SCITEGIC>MOL_PROPERTY
Bond
SciTegic.value.DoubleValue
0.226

@<SCITEGIC>MOL_PROPERTY
Angle
SciTegic.value.DoubleValue
0.872

@<SCITEGIC>MOL_PROPERTY
Pdih
SciTegic.value.DoubleValue
2.372

@<SCITEGIC>MOL_PROPERTY
Idih
SciTegic.value.DoubleValue
0.000

@<SCITEGIC>MOL_PROPERTY
Tether
SciTegic.value.DoubleValue
0.000

@<TRIPOS>MOLECULE
guest-3_vm2.mol2 : vm2 ligand conformer 70
          29          28           1
SMALL
USER_CHARGES
 
@<TRIPOS>ATOM
       1    C1      20.244918   18.244181   19.623555 C.3        1 MOL1        -0.2427
       2    H1      21.289889   17.997961   19.853026 H          1 MOL1         0.0958
       3    H2      19.801476   17.383556   19.106137 H          1 MOL1         0.0958
       4    H3      20.238366   19.094560   18.929261 H          1 MOL1         0.0958
       5    C2      19.457436   18.571529   20.909905 C.3        1 MOL1        -0.1412
       6    H4      19.452029   17.685876   21.558931 H          1 MOL1         0.0947
       7    H5      18.410696   18.784670   20.651884 H          1 MOL1         0.0947
       8    C3      20.067158   19.779654   21.659302 C.3        1 MOL1        -0.1437
       9    H6      21.096517   19.545441   21.963889 H          1 MOL1         0.0947
      10    H7      20.136637   20.630433   20.967464 H          1 MOL1         0.0947
      11    C4      19.247021   20.219893   22.896714 C.3        1 MOL1        -0.1437
      12    H8      18.222754   20.470820   22.588236 H          1 MOL1         0.0947
      13    H9      19.685715   21.146313   23.292386 H          1 MOL1         0.0947
      14    C5      19.208924   19.159401   24.023037 C.3        1 MOL1        -0.1437
      15    H10     18.699222   18.254341   23.667846 H          1 MOL1         0.0947
      16    H11     20.236377   18.868997   24.279334 H          1 MOL1         0.0947
      17    C6      18.479348   19.688406   25.280967 C.3        1 MOL1        -0.1437
      18    H12     17.471439   20.022408   24.998300 H          1 MOL1         0.0947
      19    H13     18.998028   20.576579   25.665909 H          1 MOL1         0.0947
      20    C7      18.350112   18.626845   26.401977 C.3        1 MOL1        -0.1477
      21    H14     17.789226   19.054356   27.243667 H          1 MOL1         0.0947
      22    H15     17.752654   17.782376   26.033507 H          1 MOL1         0.0947
      23    C8      19.700850   18.089587   26.916724 C.3        1 MOL1         0.0145
      24    H16     20.248929   17.619244   26.096340 H          1 MOL1         0.0921
      25    H17     19.521525   17.331409   27.683851 H          1 MOL1         0.0921
      26    N1      20.588234   19.158505   27.522821 N.4        1 MOL1        -0.5969
      27    H18     21.475429   18.770625   27.861734 H          1 MOL1         0.3603
      28    H19     20.137625   19.619193   28.320247 H          1 MOL1         0.3603
      29    H20     20.818204   19.888099   26.840810 H          1 MOL1         0.3603
@<TRIPOS>BOND
    1     1     2    1
    2     1     3    1
    3     1     4    1
    4     1     5    1
    5     5     6    1
    6     5     7    1
    7     5     8    1
    8     8     9    1
    9     8    10    1
   10     8    11    1
   11    11    12    1
   12    11    13    1
   13    11    14    1
   14    14    15    1
   15    14    16    1
   16    14    17    1
   17    17    18    1
   18    17    19    1
   19    17    20    1
   20    20    21    1
   21    20    22    1
   22    20    23    1
   23    23    24    1
   24    23    25    1
   25    23    26    1
   26    26    27    1
   27    26    28    1
   28    26    29    1
@<TRIPOS>SUBSTRUCTURE
       1 MOL1            1 RESIDUE      1      MOL     
@<SCITEGIC>MOL_PROPERTY
VM2 Rank
SciTegic.value.IntegerValue
70

@<SCITEGIC>MOL_PROPERTY
Conf_Id
SciTegic.value.IntegerValue
2524

@<SCITEGIC>MOL_PROPERTY
Probability
SciTegic.value.DoubleValue
0.39

@<SCITEGIC>MOL_PROPERTY
Sum Probability
SciTegic.value.DoubleValue
71.56

@<SCITEGIC>MOL_PROPERTY
Delta G
SciTegic.value.DoubleValue
1.549

@<SCITEGIC>MOL_PROPERTY
G
SciTegic.value.DoubleValue
59.695

@<SCITEGIC>MOL_PROPERTY
E
SciTegic.value.DoubleValue
22.122

@<SCITEGIC>MOL_PROPERTY
-TS
SciTegic.value.DoubleValue
37.573

@<SCITEGIC>MOL_PROPERTY
U+W
SciTegic.value.DoubleValue
-2.022

@<SCITEGIC>MOL_PROPERTY
U
SciTegic.value.DoubleValue
49.869

@<SCITEGIC>MOL_PROPERTY
W
SciTegic.value.DoubleValue
-51.891

@<SCITEGIC>MOL_PROPERTY
W(PB)
SciTegic.value.DoubleValue
-54.394

@<SCITEGIC>MOL_PROPERTY
W(SA)
SciTegic.value.DoubleValue
2.503

@<SCITEGIC>MOL_PROPERTY
Valence
SciTegic.value.DoubleValue
3.510

@<SCITEGIC>MOL_PROPERTY
Coulomb
SciTegic.value.DoubleValue
45.457

@<SCITEGIC>MOL_PROPERTY
VdW
SciTegic.value.DoubleValue
0.902

@<SCITEGIC>MOL_PROPERTY
VdW6
SciTegic.value.DoubleValue
-8.930

@<SCITEGIC>MOL_PROPERTY
VdW12
SciTegic.value.DoubleValue
9.832

@<SCITEGIC>MOL_PROPERTY
Bond
SciTegic.value.DoubleValue
0.230

@<SCITEGIC>MOL_PROPERTY
Angle
SciTegic.value.DoubleValue
0.893

@<SCITEGIC>MOL_PROPERTY
Pdih
SciTegic.value.DoubleValue
2.387

@<SCITEGIC>MOL_PROPERTY
Idih
SciTegic.value.DoubleValue
0.000

@<SCITEGIC>MOL_PROPERTY
Tether
SciTegic.value.DoubleValue
0.000

@<TRIPOS>MOLECULE
guest-3_vm2.mol2 : vm2 ligand conformer 71
          29          28           1
SMALL
USER_CHARGES
 
@<TRIPOS>ATOM
       1    C1      20.290411   20.166032   20.086525 C.3        1 MOL1        -0.2427
       2    H1      19.320544   20.662410   20.215215 H          1 MOL1         0.0958
       3    H2      21.034676   20.703157   20.688672 H          1 MOL1         0.0958
       4    H3      20.575675   20.266986   19.031372 H          1 MOL1         0.0958
       5    C2      20.221985   18.675277   20.488187 C.3        1 MOL1        -0.1412
       6    H4      21.177231   18.195125   20.233836 H          1 MOL1         0.0947
       7    H5      19.453175   18.166363   19.890150 H          1 MOL1         0.0947
       8    C3      19.942099   18.458645   21.994776 C.3        1 MOL1        -0.1437
       9    H6      20.010719   17.383826   22.211859 H          1 MOL1         0.0947
      10    H7      20.733269   18.945856   22.579504 H          1 MOL1         0.0947
      11    C4      18.552146   18.978349   22.441084 C.3        1 MOL1        -0.1437
      12    H8      17.786110   18.579080   21.762245 H          1 MOL1         0.0947
      13    H9      18.510699   20.071509   22.346777 H          1 MOL1         0.0947
      14    C5      18.180338   18.578522   23.890006 C.3        1 MOL1        -0.1437
      15    H10     17.144216   18.890256   24.081248 H          1 MOL1         0.0947
      16    H11     18.195524   17.483992   23.985128 H          1 MOL1         0.0947
      17    C6      19.103227   19.208849   24.960462 C.3        1 MOL1        -0.1437
      18    H12     19.124427   20.299716   24.830110 H          1 MOL1         0.0947
      19    H13     20.130202   18.849167   24.820407 H          1 MOL1         0.0947
      20    C7      18.629878   18.870948   26.393988 C.3        1 MOL1        -0.1477
      21    H14     17.591225   19.203607   26.522311 H          1 MOL1         0.0947
      22    H15     18.631407   17.783074   26.544057 H          1 MOL1         0.0947
      23    C8      19.493286   19.541540   27.479781 C.3        1 MOL1         0.0145
      24    H16     19.061656   19.337745   28.463500 H          1 MOL1         0.0921
      25    H17     19.500363   20.624265   27.327968 H          1 MOL1         0.0921
      26    N1      20.930630   19.059837   27.500190 N.4        1 MOL1        -0.5969
      27    H18     21.408382   19.254462   26.614745 H          1 MOL1         0.3603
      28    H19     20.990738   18.049154   27.662113 H          1 MOL1         0.3603
      29    H20     21.474106   19.515286   28.241688 H          1 MOL1         0.3603
@<TRIPOS>BOND
    1     1     2    1
    2     1     3    1
    3     1     4    1
    4     1     5    1
    5     5     6    1
    6     5     7    1
    7     5     8    1
    8     8     9    1
    9     8    10    1
   10     8    11    1
   11    11    12    1
   12    11    13    1
   13    11    14    1
   14    14    15    1
   15    14    16    1
   16    14    17    1
   17    17    18    1
   18    17    19    1
   19    17    20    1
   20    20    21    1
   21    20    22    1
   22    20    23    1
   23    23    24    1
   24    23    25    1
   25    23    26    1
   26    26    27    1
   27    26    28    1
   28    26    29    1
@<TRIPOS>SUBSTRUCTURE
       1 MOL1            1 RESIDUE      1      MOL     
@<SCITEGIC>MOL_PROPERTY
VM2 Rank
SciTegic.value.IntegerValue
71

@<SCITEGIC>MOL_PROPERTY
Conf_Id
SciTegic.value.IntegerValue
1833

@<SCITEGIC>MOL_PROPERTY
Probability
SciTegic.value.DoubleValue
0.39

@<SCITEGIC>MOL_PROPERTY
Sum Probability
SciTegic.value.DoubleValue
71.95

@<SCITEGIC>MOL_PROPERTY
Delta G
SciTegic.value.DoubleValue
1.550

@<SCITEGIC>MOL_PROPERTY
G
SciTegic.value.DoubleValue
59.696

@<SCITEGIC>MOL_PROPERTY
E
SciTegic.value.DoubleValue
22.175

@<SCITEGIC>MOL_PROPERTY
-TS
SciTegic.value.DoubleValue
37.521

@<SCITEGIC>MOL_PROPERTY
U+W
SciTegic.value.DoubleValue
-1.970

@<SCITEGIC>MOL_PROPERTY
U
SciTegic.value.DoubleValue
50.021

@<SCITEGIC>MOL_PROPERTY
W
SciTegic.value.DoubleValue
-51.991

@<SCITEGIC>MOL_PROPERTY
W(PB)
SciTegic.value.DoubleValue
-54.483

@<SCITEGIC>MOL_PROPERTY
W(SA)
SciTegic.value.DoubleValue
2.492

@<SCITEGIC>MOL_PROPERTY
Valence
SciTegic.value.DoubleValue
3.697

@<SCITEGIC>MOL_PROPERTY
Coulomb
SciTegic.value.DoubleValue
45.280

@<SCITEGIC>MOL_PROPERTY
VdW
SciTegic.value.DoubleValue
1.043

@<SCITEGIC>MOL_PROPERTY
VdW6
SciTegic.value.DoubleValue
-8.788

@<SCITEGIC>MOL_PROPERTY
VdW12
SciTegic.value.DoubleValue
9.832

@<SCITEGIC>MOL_PROPERTY
Bond
SciTegic.value.DoubleValue
0.241

@<SCITEGIC>MOL_PROPERTY
Angle
SciTegic.value.DoubleValue
0.886

@<SCITEGIC>MOL_PROPERTY
Pdih
SciTegic.value.DoubleValue
2.571

@<SCITEGIC>MOL_PROPERTY
Idih
SciTegic.value.DoubleValue
0.000

@<SCITEGIC>MOL_PROPERTY
Tether
SciTegic.value.DoubleValue
0.000

@<TRIPOS>MOLECULE
guest-3_vm2.mol2 : vm2 ligand conformer 72
          29          28           1
SMALL
USER_CHARGES
 
@<TRIPOS>ATOM
       1    C1      19.583774   20.363515   20.278746 C.3        1 MOL1        -0.2427
       2    H1      18.659093   20.270242   19.694614 H          1 MOL1         0.0958
       3    H2      19.351842   20.899615   21.207478 H          1 MOL1         0.0958
       4    H3      20.283306   20.984535   19.704442 H          1 MOL1         0.0958
       5    C2      20.201346   18.976344   20.565709 C.3        1 MOL1        -0.1412
       6    H4      21.112455   19.093497   21.167495 H          1 MOL1         0.0947
       7    H5      20.524950   18.529877   19.615144 H          1 MOL1         0.0947
       8    C3      19.221559   17.997464   21.261601 C.3        1 MOL1        -0.1437
       9    H6      18.377563   17.800754   20.586274 H          1 MOL1         0.0947
      10    H7      19.726183   17.031546   21.401083 H          1 MOL1         0.0947
      11    C4      18.663984   18.476174   22.626948 C.3        1 MOL1        -0.1437
      12    H8      17.973324   17.709941   23.005061 H          1 MOL1         0.0947
      13    H9      18.061262   19.383409   22.487903 H          1 MOL1         0.0947
      14    C5      19.760946   18.733322   23.687543 C.3        1 MOL1        -0.1437
      15    H10     20.389062   17.837735   23.790285 H          1 MOL1         0.0947
      16    H11     20.417283   19.548252   23.355013 H          1 MOL1         0.0947
      17    C6      19.155555   19.100173   25.061164 C.3        1 MOL1        -0.1437
      18    H12     18.499634   18.285869   25.396769 H          1 MOL1         0.0947
      19    H13     18.526187   19.994974   24.956967 H          1 MOL1         0.0947
      20    C7      20.252318   19.362286   26.120137 C.3        1 MOL1        -0.1477
      21    H14     20.868798   18.463385   26.253982 H          1 MOL1         0.0947
      22    H15     20.924382   20.152502   25.759787 H          1 MOL1         0.0947
      23    C8      19.674214   19.796933   27.480577 C.3        1 MOL1         0.0145
      24    H16     19.054543   20.688126   27.349526 H          1 MOL1         0.0921
      25    H17     20.493665   20.047851   28.159607 H          1 MOL1         0.0921
      26    N1      18.830305   18.731788   28.152576 N.4        1 MOL1        -0.5969
      27    H18     18.019484   18.474215   27.581197 H          1 MOL1         0.3603
      28    H19     18.470705   19.047331   29.060168 H          1 MOL1         0.3603
      29    H20     19.365657   17.874247   28.323805 H          1 MOL1         0.3603
@<TRIPOS>BOND
    1     1     2    1
    2     1     3    1
    3     1     4    1
    4     1     5    1
    5     5     6    1
    6     5     7    1
    7     5     8    1
    8     8     9    1
    9     8    10    1
   10     8    11    1
   11    11    12    1
   12    11    13    1
   13    11    14    1
   14    14    15    1
   15    14    16    1
   16    14    17    1
   17    17    18    1
   18    17    19    1
   19    17    20    1
   20    20    21    1
   21    20    22    1
   22    20    23    1
   23    23    24    1
   24    23    25    1
   25    23    26    1
   26    26    27    1
   27    26    28    1
   28    26    29    1
@<TRIPOS>SUBSTRUCTURE
       1 MOL1            1 RESIDUE      1      MOL     
@<SCITEGIC>MOL_PROPERTY
VM2 Rank
SciTegic.value.IntegerValue
72

@<SCITEGIC>MOL_PROPERTY
Conf_Id
SciTegic.value.IntegerValue
2915

@<SCITEGIC>MOL_PROPERTY
Probability
SciTegic.value.DoubleValue
0.39

@<SCITEGIC>MOL_PROPERTY
Sum Probability
SciTegic.value.DoubleValue
72.34

@<SCITEGIC>MOL_PROPERTY
Delta G
SciTegic.value.DoubleValue
1.551

@<SCITEGIC>MOL_PROPERTY
G
SciTegic.value.DoubleValue
59.697

@<SCITEGIC>MOL_PROPERTY
E
SciTegic.value.DoubleValue
21.977

@<SCITEGIC>MOL_PROPERTY
-TS
SciTegic.value.DoubleValue
37.720

@<SCITEGIC>MOL_PROPERTY
U+W
SciTegic.value.DoubleValue
-2.168

@<SCITEGIC>MOL_PROPERTY
U
SciTegic.value.DoubleValue
49.446

@<SCITEGIC>MOL_PROPERTY
W
SciTegic.value.DoubleValue
-51.614

@<SCITEGIC>MOL_PROPERTY
W(PB)
SciTegic.value.DoubleValue
-54.085

@<SCITEGIC>MOL_PROPERTY
W(SA)
SciTegic.value.DoubleValue
2.470

@<SCITEGIC>MOL_PROPERTY
Valence
SciTegic.value.DoubleValue
3.641

@<SCITEGIC>MOL_PROPERTY
Coulomb
SciTegic.value.DoubleValue
44.872

@<SCITEGIC>MOL_PROPERTY
VdW
SciTegic.value.DoubleValue
0.933

@<SCITEGIC>MOL_PROPERTY
VdW6
SciTegic.value.DoubleValue
-9.029

@<SCITEGIC>MOL_PROPERTY
VdW12
SciTegic.value.DoubleValue
9.962

@<SCITEGIC>MOL_PROPERTY
Bond
SciTegic.value.DoubleValue
0.244

@<SCITEGIC>MOL_PROPERTY
Angle
SciTegic.value.DoubleValue
1.082

@<SCITEGIC>MOL_PROPERTY
Pdih
SciTegic.value.DoubleValue
2.315

@<SCITEGIC>MOL_PROPERTY
Idih
SciTegic.value.DoubleValue
0.000

@<SCITEGIC>MOL_PROPERTY
Tether
SciTegic.value.DoubleValue
0.000

@<TRIPOS>MOLECULE
guest-3_vm2.mol2 : vm2 ligand conformer 73
          29          28           1
SMALL
USER_CHARGES
 
@<TRIPOS>ATOM
       1    C1      20.649484   19.379792   19.649135 C.3        1 MOL1        -0.2427
       2    H1      20.116932   18.753309   18.921714 H          1 MOL1         0.0958
       3    H2      20.856988   20.346739   19.172699 H          1 MOL1         0.0958
       4    H3      21.611601   18.900968   19.873413 H          1 MOL1         0.0958
       5    C2      19.814130   19.572830   20.932455 C.3        1 MOL1        -0.1412
       6    H4      18.871940   20.079496   20.680990 H          1 MOL1         0.0947
       7    H5      20.360347   20.235992   21.616203 H          1 MOL1         0.0947
       8    C3      19.512652   18.222611   21.624516 C.3        1 MOL1        -0.1437
       9    H6      19.038765   17.547636   20.898476 H          1 MOL1         0.0947
      10    H7      20.454035   17.741416   21.923611 H          1 MOL1         0.0947
      11    C4      18.581351   18.350833   22.854910 C.3        1 MOL1        -0.1437
      12    H8      18.330541   17.340797   23.207308 H          1 MOL1         0.0947
      13    H9      17.633320   18.815835   22.551169 H          1 MOL1         0.0947
      14    C5      19.205795   19.151292   24.022830 C.3        1 MOL1        -0.1437
      15    H10     20.182078   18.717059   24.275800 H          1 MOL1         0.0947
      16    H11     19.387277   20.188099   23.711081 H          1 MOL1         0.0947
      17    C6      18.288495   19.152506   25.269057 C.3        1 MOL1        -0.1437
      18    H12     18.124287   18.121926   25.611111 H          1 MOL1         0.0947
      19    H13     17.300170   19.541617   24.987731 H          1 MOL1         0.0947
      20    C7      18.843008   20.011647   26.432964 C.3        1 MOL1        -0.1477
      21    H14     18.918210   21.057502   26.106794 H          1 MOL1         0.0947
      22    H15     18.126463   20.001335   27.264984 H          1 MOL1         0.0947
      23    C8      20.222284   19.554321   26.949254 C.3        1 MOL1         0.0145
      24    H16     20.551329   20.224247   27.748256 H          1 MOL1         0.0921
      25    H17     20.955649   19.605008   26.140396 H          1 MOL1         0.0921
      26    N1      20.226800   18.142168   27.499879 N.4        1 MOL1        -0.5969
      27    H18     19.575431   18.038335   28.284806 H          1 MOL1         0.3603
      28    H19     21.154830   17.868855   27.841186 H          1 MOL1         0.3603
      29    H20     19.953867   17.459020   26.786333 H          1 MOL1         0.3603
@<TRIPOS>BOND
    1     1     2    1
    2     1     3    1
    3     1     4    1
    4     1     5    1
    5     5     6    1
    6     5     7    1
    7     5     8    1
    8     8     9    1
    9     8    10    1
   10     8    11    1
   11    11    12    1
   12    11    13    1
   13    11    14    1
   14    14    15    1
   15    14    16    1
   16    14    17    1
   17    17    18    1
   18    17    19    1
   19    17    20    1
   20    20    21    1
   21    20    22    1
   22    20    23    1
   23    23    24    1
   24    23    25    1
   25    23    26    1
   26    26    27    1
   27    26    28    1
   28    26    29    1
@<TRIPOS>SUBSTRUCTURE
       1 MOL1            1 RESIDUE      1      MOL     
@<SCITEGIC>MOL_PROPERTY
VM2 Rank
SciTegic.value.IntegerValue
73

@<SCITEGIC>MOL_PROPERTY
Conf_Id
SciTegic.value.IntegerValue
2330

@<SCITEGIC>MOL_PROPERTY
Probability
SciTegic.value.DoubleValue
0.39

@<SCITEGIC>MOL_PROPERTY
Sum Probability
SciTegic.value.DoubleValue
72.73

@<SCITEGIC>MOL_PROPERTY
Delta G
SciTegic.value.DoubleValue
1.552

@<SCITEGIC>MOL_PROPERTY
G
SciTegic.value.DoubleValue
59.698

@<SCITEGIC>MOL_PROPERTY
E
SciTegic.value.DoubleValue
22.124

@<SCITEGIC>MOL_PROPERTY
-TS
SciTegic.value.DoubleValue
37.574

@<SCITEGIC>MOL_PROPERTY
U+W
SciTegic.value.DoubleValue
-2.020

@<SCITEGIC>MOL_PROPERTY
U
SciTegic.value.DoubleValue
49.869

@<SCITEGIC>MOL_PROPERTY
W
SciTegic.value.DoubleValue
-51.889

@<SCITEGIC>MOL_PROPERTY
W(PB)
SciTegic.value.DoubleValue
-54.369

@<SCITEGIC>MOL_PROPERTY
W(SA)
SciTegic.value.DoubleValue
2.481

@<SCITEGIC>MOL_PROPERTY
Valence
SciTegic.value.DoubleValue
3.510

@<SCITEGIC>MOL_PROPERTY
Coulomb
SciTegic.value.DoubleValue
45.457

@<SCITEGIC>MOL_PROPERTY
VdW
SciTegic.value.DoubleValue
0.902

@<SCITEGIC>MOL_PROPERTY
VdW6
SciTegic.value.DoubleValue
-8.931

@<SCITEGIC>MOL_PROPERTY
VdW12
SciTegic.value.DoubleValue
9.832

@<SCITEGIC>MOL_PROPERTY
Bond
SciTegic.value.DoubleValue
0.230

@<SCITEGIC>MOL_PROPERTY
Angle
SciTegic.value.DoubleValue
0.893

@<SCITEGIC>MOL_PROPERTY
Pdih
SciTegic.value.DoubleValue
2.387

@<SCITEGIC>MOL_PROPERTY
Idih
SciTegic.value.DoubleValue
0.000

@<SCITEGIC>MOL_PROPERTY
Tether
SciTegic.value.DoubleValue
0.000

@<TRIPOS>MOLECULE
guest-3_vm2.mol2 : vm2 ligand conformer 74
          29          28           1
SMALL
USER_CHARGES
 
@<TRIPOS>ATOM
       1    C1      21.328105   18.705566   20.565878 C.3        1 MOL1        -0.2427
       2    H1      22.076577   19.220984   21.181778 H          1 MOL1         0.0958
       3    H2      21.747076   17.735950   20.267021 H          1 MOL1         0.0958
       4    H3      21.167300   19.297965   19.655705 H          1 MOL1         0.0958
       5    C2      20.008769   18.512682   21.342959 C.3        1 MOL1        -0.1412
       6    H4      20.202067   17.884027   22.222345 H          1 MOL1         0.0947
       7    H5      19.290487   17.969146   20.713486 H          1 MOL1         0.0947
       8    C3      19.400754   19.866458   21.778811 C.3        1 MOL1        -0.1437
       9    H6      20.101476   20.392755   22.440177 H          1 MOL1         0.0947
      10    H7      19.285104   20.506758   20.893476 H          1 MOL1         0.0947
      11    C4      18.017714   19.733779   22.467538 C.3        1 MOL1        -0.1437
      12    H8      17.299087   19.323074   21.745021 H          1 MOL1         0.0947
      13    H9      17.650740   20.738844   22.717122 H          1 MOL1         0.0947
      14    C5      17.991664   18.857803   23.746849 C.3        1 MOL1        -0.1437
      15    H10     16.962843   18.841968   24.132173 H          1 MOL1         0.0947
      16    H11     18.234069   17.817144   23.494062 H          1 MOL1         0.0947
      17    C6      18.939897   19.360722   24.861441 C.3        1 MOL1        -0.1437
      18    H12     18.720567   20.414624   25.081739 H          1 MOL1         0.0947
      19    H13     19.978083   19.315604   24.509384 H          1 MOL1         0.0947
      20    C7      18.797790   18.523243   26.154246 C.3        1 MOL1        -0.1477
      21    H14     17.752140   18.545018   26.488991 H          1 MOL1         0.0947
      22    H15     19.039734   17.471745   25.949822 H          1 MOL1         0.0947
      23    C8      19.686935   19.042419   27.300488 C.3        1 MOL1         0.0145
      24    H16     19.480786   18.468335   28.207936 H          1 MOL1         0.0921
      25    H17     19.454403   20.091860   27.500454 H          1 MOL1         0.0921
      26    N1      21.172370   18.935328   27.016790 N.4        1 MOL1        -0.5969
      27    H18     21.735480   19.276822   27.803495 H          1 MOL1         0.3603
      28    H19     21.441699   19.483639   26.194027 H          1 MOL1         0.3603
      29    H20     21.457285   17.965905   26.842656 H          1 MOL1         0.3603
@<TRIPOS>BOND
    1     1     2    1
    2     1     3    1
    3     1     4    1
    4     1     5    1
    5     5     6    1
    6     5     7    1
    7     5     8    1
    8     8     9    1
    9     8    10    1
   10     8    11    1
   11    11    12    1
   12    11    13    1
   13    11    14    1
   14    14    15    1
   15    14    16    1
   16    14    17    1
   17    17    18    1
   18    17    19    1
   19    17    20    1
   20    20    21    1
   21    20    22    1
   22    20    23    1
   23    23    24    1
   24    23    25    1
   25    23    26    1
   26    26    27    1
   27    26    28    1
   28    26    29    1
@<TRIPOS>SUBSTRUCTURE
       1 MOL1            1 RESIDUE      1      MOL     
@<SCITEGIC>MOL_PROPERTY
VM2 Rank
SciTegic.value.IntegerValue
74

@<SCITEGIC>MOL_PROPERTY
Conf_Id
SciTegic.value.IntegerValue
2976

@<SCITEGIC>MOL_PROPERTY
Probability
SciTegic.value.DoubleValue
0.39

@<SCITEGIC>MOL_PROPERTY
Sum Probability
SciTegic.value.DoubleValue
73.12

@<SCITEGIC>MOL_PROPERTY
Delta G
SciTegic.value.DoubleValue
1.558

@<SCITEGIC>MOL_PROPERTY
G
SciTegic.value.DoubleValue
59.704

@<SCITEGIC>MOL_PROPERTY
E
SciTegic.value.DoubleValue
21.961

@<SCITEGIC>MOL_PROPERTY
-TS
SciTegic.value.DoubleValue
37.743

@<SCITEGIC>MOL_PROPERTY
U+W
SciTegic.value.DoubleValue
-2.183

@<SCITEGIC>MOL_PROPERTY
U
SciTegic.value.DoubleValue
50.198

@<SCITEGIC>MOL_PROPERTY
W
SciTegic.value.DoubleValue
-52.381

@<SCITEGIC>MOL_PROPERTY
W(PB)
SciTegic.value.DoubleValue
-54.854

@<SCITEGIC>MOL_PROPERTY
W(SA)
SciTegic.value.DoubleValue
2.473

@<SCITEGIC>MOL_PROPERTY
Valence
SciTegic.value.DoubleValue
3.666

@<SCITEGIC>MOL_PROPERTY
Coulomb
SciTegic.value.DoubleValue
45.691

@<SCITEGIC>MOL_PROPERTY
VdW
SciTegic.value.DoubleValue
0.841

@<SCITEGIC>MOL_PROPERTY
VdW6
SciTegic.value.DoubleValue
-9.219

@<SCITEGIC>MOL_PROPERTY
VdW12
SciTegic.value.DoubleValue
10.060

@<SCITEGIC>MOL_PROPERTY
Bond
SciTegic.value.DoubleValue
0.250

@<SCITEGIC>MOL_PROPERTY
Angle
SciTegic.value.DoubleValue
1.116

@<SCITEGIC>MOL_PROPERTY
Pdih
SciTegic.value.DoubleValue
2.300

@<SCITEGIC>MOL_PROPERTY
Idih
SciTegic.value.DoubleValue
0.000

@<SCITEGIC>MOL_PROPERTY
Tether
SciTegic.value.DoubleValue
0.000

@<TRIPOS>MOLECULE
guest-3_vm2.mol2 : vm2 ligand conformer 75
          29          28           1
SMALL
USER_CHARGES
 
@<TRIPOS>ATOM
       1    C1      19.462720   17.845514   20.034120 C.3        1 MOL1        -0.2427
       2    H1      19.690332   16.935170   20.603750 H          1 MOL1         0.0958
       3    H2      18.395882   18.070235   20.156414 H          1 MOL1         0.0958
       4    H3      19.634992   17.629055   18.971866 H          1 MOL1         0.0958
       5    C2      20.347204   19.025601   20.496123 C.3        1 MOL1        -0.1412
       6    H4      20.082602   19.929507   19.929862 H          1 MOL1         0.0947
       7    H5      21.394271   18.802663   20.247756 H          1 MOL1         0.0947
       8    C3      20.245825   19.310062   22.013977 C.3        1 MOL1        -0.1437
       9    H6      20.541985   18.409440   22.567516 H          1 MOL1         0.0947
      10    H7      20.975653   20.089416   22.272879 H          1 MOL1         0.0947
      11    C4      18.834266   19.769333   22.458746 C.3        1 MOL1        -0.1437
      12    H8      18.112214   18.953569   22.321689 H          1 MOL1         0.0947
      13    H9      18.503127   20.589558   21.807111 H          1 MOL1         0.0947
      14    C5      18.778456   20.256364   23.927473 C.3        1 MOL1        -0.1437
      15    H10     19.480846   21.089921   24.065702 H          1 MOL1         0.0947
      16    H11     17.776012   20.662625   24.120756 H          1 MOL1         0.0947
      17    C6      19.079725   19.142773   24.959007 C.3        1 MOL1        -0.1437
      18    H12     20.104724   18.777493   24.818970 H          1 MOL1         0.0947
      19    H13     18.408454   18.290365   24.785143 H          1 MOL1         0.0947
      20    C7      18.906134   19.646680   26.411308 C.3        1 MOL1        -0.1477
      21    H14     19.592713   20.481740   26.604373 H          1 MOL1         0.0947
      22    H15     17.889278   20.040562   26.540884 H          1 MOL1         0.0947
      23    C8      19.135900   18.539016   27.457442 C.3        1 MOL1         0.0145
      24    H16     18.459280   17.702559   27.262723 H          1 MOL1         0.0921
      25    H17     18.916257   18.930592   28.454420 H          1 MOL1         0.0921
      26    N1      20.553771   18.002657   27.476805 N.4        1 MOL1        -0.5969
      27    H18     21.236766   18.740494   27.677869 H          1 MOL1         0.3603
      28    H19     20.813574   17.585176   26.577720 H          1 MOL1         0.3603
      29    H20     20.676496   17.277309   28.191946 H          1 MOL1         0.3603
@<TRIPOS>BOND
    1     1     2    1
    2     1     3    1
    3     1     4    1
    4     1     5    1
    5     5     6    1
    6     5     7    1
    7     5     8    1
    8     8     9    1
    9     8    10    1
   10     8    11    1
   11    11    12    1
   12    11    13    1
   13    11    14    1
   14    14    15    1
   15    14    16    1
   16    14    17    1
   17    17    18    1
   18    17    19    1
   19    17    20    1
   20    20    21    1
   21    20    22    1
   22    20    23    1
   23    23    24    1
   24    23    25    1
   25    23    26    1
   26    26    27    1
   27    26    28    1
   28    26    29    1
@<TRIPOS>SUBSTRUCTURE
       1 MOL1            1 RESIDUE      1      MOL     
@<SCITEGIC>MOL_PROPERTY
VM2 Rank
SciTegic.value.IntegerValue
75

@<SCITEGIC>MOL_PROPERTY
Conf_Id
SciTegic.value.IntegerValue
2475

@<SCITEGIC>MOL_PROPERTY
Probability
SciTegic.value.DoubleValue
0.39

@<SCITEGIC>MOL_PROPERTY
Sum Probability
SciTegic.value.DoubleValue
73.51

@<SCITEGIC>MOL_PROPERTY
Delta G
SciTegic.value.DoubleValue
1.559

@<SCITEGIC>MOL_PROPERTY
G
SciTegic.value.DoubleValue
59.706

@<SCITEGIC>MOL_PROPERTY
E
SciTegic.value.DoubleValue
22.184

@<SCITEGIC>MOL_PROPERTY
-TS
SciTegic.value.DoubleValue
37.521

@<SCITEGIC>MOL_PROPERTY
U+W
SciTegic.value.DoubleValue
-1.960

@<SCITEGIC>MOL_PROPERTY
U
SciTegic.value.DoubleValue
50.021

@<SCITEGIC>MOL_PROPERTY
W
SciTegic.value.DoubleValue
-51.981

@<SCITEGIC>MOL_PROPERTY
W(PB)
SciTegic.value.DoubleValue
-54.507

@<SCITEGIC>MOL_PROPERTY
W(SA)
SciTegic.value.DoubleValue
2.526

@<SCITEGIC>MOL_PROPERTY
Valence
SciTegic.value.DoubleValue
3.697

@<SCITEGIC>MOL_PROPERTY
Coulomb
SciTegic.value.DoubleValue
45.280

@<SCITEGIC>MOL_PROPERTY
VdW
SciTegic.value.DoubleValue
1.043

@<SCITEGIC>MOL_PROPERTY
VdW6
SciTegic.value.DoubleValue
-8.789

@<SCITEGIC>MOL_PROPERTY
VdW12
SciTegic.value.DoubleValue
9.832

@<SCITEGIC>MOL_PROPERTY
Bond
SciTegic.value.DoubleValue
0.241

@<SCITEGIC>MOL_PROPERTY
Angle
SciTegic.value.DoubleValue
0.886

@<SCITEGIC>MOL_PROPERTY
Pdih
SciTegic.value.DoubleValue
2.571

@<SCITEGIC>MOL_PROPERTY
Idih
SciTegic.value.DoubleValue
0.000

@<SCITEGIC>MOL_PROPERTY
Tether
SciTegic.value.DoubleValue
0.000

@<TRIPOS>MOLECULE
guest-3_vm2.mol2 : vm2 ligand conformer 76
          29          28           1
SMALL
USER_CHARGES
 
@<TRIPOS>ATOM
       1    C1      18.789826   18.129565   20.229215 C.3        1 MOL1        -0.2427
       2    H1      18.948831   17.229744   19.621044 H          1 MOL1         0.0958
       3    H2      18.258806   17.823706   21.139274 H          1 MOL1         0.0958
       4    H3      18.139375   18.808177   19.662344 H          1 MOL1         0.0958
       5    C2      20.139954   18.803709   20.561892 C.3        1 MOL1        -0.1412
       6    H4      20.685864   18.983161   19.625193 H          1 MOL1         0.0947
       7    H5      20.764568   18.114443   21.145641 H          1 MOL1         0.0947
       8    C3      19.987554   20.152816   21.309650 C.3        1 MOL1        -0.1437
       9    H6      20.986402   20.577495   21.480088 H          1 MOL1         0.0947
      10    H7      19.466335   20.864359   20.654571 H          1 MOL1         0.0947
      11    C4      19.233851   20.079585   22.662719 C.3        1 MOL1        -0.1437
      12    H8      18.195891   19.762317   22.496402 H          1 MOL1         0.0947
      13    H9      19.176139   21.094071   23.080550 H          1 MOL1         0.0947
      14    C5      19.907734   19.146308   23.696734 C.3        1 MOL1        -0.1437
      15    H10     19.907529   18.113950   23.322966 H          1 MOL1         0.0947
      16    H11     20.958534   19.440018   23.826019 H          1 MOL1         0.0947
      17    C6      19.187319   19.189485   25.063131 C.3        1 MOL1        -0.1437
      18    H12     18.136055   18.897264   24.932438 H          1 MOL1         0.0947
      19    H13     19.187440   20.220966   25.439961 H          1 MOL1         0.0947
      20    C7      19.857922   18.252502   26.095302 C.3        1 MOL1        -0.1477
      21    H14     19.885888   17.230488   25.694466 H          1 MOL1         0.0947
      22    H15     20.901352   18.554870   26.255966 H          1 MOL1         0.0947
      23    C8      19.116100   18.226435   27.445463 C.3        1 MOL1         0.0145
      24    H16     19.584057   17.488229   28.102433 H          1 MOL1         0.0921
      25    H17     18.075046   17.931831   27.287962 H          1 MOL1         0.0921
      26    N1      19.123739   19.557594   28.170895 N.4        1 MOL1        -0.5969
      27    H18     18.665205   20.291254   27.621589 H          1 MOL1         0.3603
      28    H19     20.077585   19.877690   28.368420 H          1 MOL1         0.3603
      29    H20     18.632903   19.503974   29.070230 H          1 MOL1         0.3603
@<TRIPOS>BOND
    1     1     2    1
    2     1     3    1
    3     1     4    1
    4     1     5    1
    5     5     6    1
    6     5     7    1
    7     5     8    1
    8     8     9    1
    9     8    10    1
   10     8    11    1
   11    11    12    1
   12    11    13    1
   13    11    14    1
   14    14    15    1
   15    14    16    1
   16    14    17    1
   17    17    18    1
   18    17    19    1
   19    17    20    1
   20    20    21    1
   21    20    22    1
   22    20    23    1
   23    23    24    1
   24    23    25    1
   25    23    26    1
   26    26    27    1
   27    26    28    1
   28    26    29    1
@<TRIPOS>SUBSTRUCTURE
       1 MOL1            1 RESIDUE      1      MOL     
@<SCITEGIC>MOL_PROPERTY
VM2 Rank
SciTegic.value.IntegerValue
76

@<SCITEGIC>MOL_PROPERTY
Conf_Id
SciTegic.value.IntegerValue
304

@<SCITEGIC>MOL_PROPERTY
Probability
SciTegic.value.DoubleValue
0.38

@<SCITEGIC>MOL_PROPERTY
Sum Probability
SciTegic.value.DoubleValue
73.89

@<SCITEGIC>MOL_PROPERTY
Delta G
SciTegic.value.DoubleValue
1.568

@<SCITEGIC>MOL_PROPERTY
G
SciTegic.value.DoubleValue
59.714

@<SCITEGIC>MOL_PROPERTY
E
SciTegic.value.DoubleValue
21.994

@<SCITEGIC>MOL_PROPERTY
-TS
SciTegic.value.DoubleValue
37.720

@<SCITEGIC>MOL_PROPERTY
U+W
SciTegic.value.DoubleValue
-2.150

@<SCITEGIC>MOL_PROPERTY
U
SciTegic.value.DoubleValue
49.446

@<SCITEGIC>MOL_PROPERTY
W
SciTegic.value.DoubleValue
-51.597

@<SCITEGIC>MOL_PROPERTY
W(PB)
SciTegic.value.DoubleValue
-54.069

@<SCITEGIC>MOL_PROPERTY
W(SA)
SciTegic.value.DoubleValue
2.472

@<SCITEGIC>MOL_PROPERTY
Valence
SciTegic.value.DoubleValue
3.640

@<SCITEGIC>MOL_PROPERTY
Coulomb
SciTegic.value.DoubleValue
44.872

@<SCITEGIC>MOL_PROPERTY
VdW
SciTegic.value.DoubleValue
0.934

@<SCITEGIC>MOL_PROPERTY
VdW6
SciTegic.value.DoubleValue
-9.029

@<SCITEGIC>MOL_PROPERTY
VdW12
SciTegic.value.DoubleValue
9.963

@<SCITEGIC>MOL_PROPERTY
Bond
SciTegic.value.DoubleValue
0.244

@<SCITEGIC>MOL_PROPERTY
Angle
SciTegic.value.DoubleValue
1.082

@<SCITEGIC>MOL_PROPERTY
Pdih
SciTegic.value.DoubleValue
2.315

@<SCITEGIC>MOL_PROPERTY
Idih
SciTegic.value.DoubleValue
0.000

@<SCITEGIC>MOL_PROPERTY
Tether
SciTegic.value.DoubleValue
0.000

@<TRIPOS>MOLECULE
guest-3_vm2.mol2 : vm2 ligand conformer 77
          29          28           1
SMALL
USER_CHARGES
 
@<TRIPOS>ATOM
       1    C1      21.148004   19.285104   20.397508 C.3        1 MOL1        -0.2427
       2    H1      21.306293   18.205278   20.279405 H          1 MOL1         0.0958
       3    H2      21.680583   19.793545   19.583396 H          1 MOL1         0.0958
       4    H3      21.610765   19.599898   21.341003 H          1 MOL1         0.0958
       5    C2      19.642749   19.633487   20.359163 C.3        1 MOL1        -0.1412
       6    H4      19.254363   19.414154   19.354771 H          1 MOL1         0.0947
       7    H5      19.509338   20.713659   20.511298 H          1 MOL1         0.0947
       8    C3      18.803025   18.851037   21.397542 C.3        1 MOL1        -0.1437
       9    H6      17.740960   19.073389   21.224865 H          1 MOL1         0.0947
      10    H7      18.924310   17.772022   21.229496 H          1 MOL1         0.0947
      11    C4      19.159842   19.193936   22.863807 C.3        1 MOL1        -0.1437
      12    H8      19.083618   20.279395   23.015089 H          1 MOL1         0.0947
      13    H9      20.201888   18.914380   23.060859 H          1 MOL1         0.0947
      14    C5      18.229992   18.465765   23.863972 C.3        1 MOL1        -0.1437
      15    H10     17.185019   18.697536   23.615748 H          1 MOL1         0.0947
      16    H11     18.340478   17.378685   23.748510 H          1 MOL1         0.0947
      17    C6      18.481159   18.859141   25.340309 C.3        1 MOL1        -0.1437
      18    H12     17.710100   18.384473   25.962975 H          1 MOL1         0.0947
      19    H13     18.347307   19.943212   25.454135 H          1 MOL1         0.0947
      20    C7      19.877674   18.438343   25.862209 C.3        1 MOL1        -0.1477
      21    H14     20.036217   17.371058   25.658407 H          1 MOL1         0.0947
      22    H15     20.667253   18.982213   25.328536 H          1 MOL1         0.0947
      23    C8      20.038588   18.675239   27.375999 C.3        1 MOL1         0.0145
      24    H16     21.008990   18.291684   27.702700 H          1 MOL1         0.0921
      25    H17     19.257867   18.135016   27.918228 H          1 MOL1         0.0921
      26    N1      19.962967   20.135948   27.774492 N.4        1 MOL1        -0.5969
      27    H18     20.689603   20.693979   27.314272 H          1 MOL1         0.3603
      28    H19     20.083236   20.261515   28.785601 H          1 MOL1         0.3603
      29    H20     19.059165   20.550025   27.525577 H          1 MOL1         0.3603
@<TRIPOS>BOND
    1     1     2    1
    2     1     3    1
    3     1     4    1
    4     1     5    1
    5     5     6    1
    6     5     7    1
    7     5     8    1
    8     8     9    1
    9     8    10    1
   10     8    11    1
   11    11    12    1
   12    11    13    1
   13    11    14    1
   14    14    15    1
   15    14    16    1
   16    14    17    1
   17    17    18    1
   18    17    19    1
   19    17    20    1
   20    20    21    1
   21    20    22    1
   22    20    23    1
   23    23    24    1
   24    23    25    1
   25    23    26    1
   26    26    27    1
   27    26    28    1
   28    26    29    1
@<TRIPOS>SUBSTRUCTURE
       1 MOL1            1 RESIDUE      1      MOL     
@<SCITEGIC>MOL_PROPERTY
VM2 Rank
SciTegic.value.IntegerValue
77

@<SCITEGIC>MOL_PROPERTY
Conf_Id
SciTegic.value.IntegerValue
672

@<SCITEGIC>MOL_PROPERTY
Probability
SciTegic.value.DoubleValue
0.38

@<SCITEGIC>MOL_PROPERTY
Sum Probability
SciTegic.value.DoubleValue
74.27

@<SCITEGIC>MOL_PROPERTY
Delta G
SciTegic.value.DoubleValue
1.568

@<SCITEGIC>MOL_PROPERTY
G
SciTegic.value.DoubleValue
59.715

@<SCITEGIC>MOL_PROPERTY
E
SciTegic.value.DoubleValue
22.206

@<SCITEGIC>MOL_PROPERTY
-TS
SciTegic.value.DoubleValue
37.509

@<SCITEGIC>MOL_PROPERTY
U+W
SciTegic.value.DoubleValue
-1.939

@<SCITEGIC>MOL_PROPERTY
U
SciTegic.value.DoubleValue
49.862

@<SCITEGIC>MOL_PROPERTY
W
SciTegic.value.DoubleValue
-51.801

@<SCITEGIC>MOL_PROPERTY
W(PB)
SciTegic.value.DoubleValue
-54.301

@<SCITEGIC>MOL_PROPERTY
W(SA)
SciTegic.value.DoubleValue
2.500

@<SCITEGIC>MOL_PROPERTY
Valence
SciTegic.value.DoubleValue
3.720

@<SCITEGIC>MOL_PROPERTY
Coulomb
SciTegic.value.DoubleValue
45.091

@<SCITEGIC>MOL_PROPERTY
VdW
SciTegic.value.DoubleValue
1.051

@<SCITEGIC>MOL_PROPERTY
VdW6
SciTegic.value.DoubleValue
-8.777

@<SCITEGIC>MOL_PROPERTY
VdW12
SciTegic.value.DoubleValue
9.828

@<SCITEGIC>MOL_PROPERTY
Bond
SciTegic.value.DoubleValue
0.242

@<SCITEGIC>MOL_PROPERTY
Angle
SciTegic.value.DoubleValue
0.912

@<SCITEGIC>MOL_PROPERTY
Pdih
SciTegic.value.DoubleValue
2.566

@<SCITEGIC>MOL_PROPERTY
Idih
SciTegic.value.DoubleValue
0.000

@<SCITEGIC>MOL_PROPERTY
Tether
SciTegic.value.DoubleValue
0.000

@<TRIPOS>MOLECULE
guest-3_vm2.mol2 : vm2 ligand conformer 78
          29          28           1
SMALL
USER_CHARGES
 
@<TRIPOS>ATOM
       1    C1      20.680408   17.972316   20.368305 C.3        1 MOL1        -0.2427
       2    H1      20.826648   17.398878   21.291998 H          1 MOL1         0.0958
       3    H2      20.783298   17.274430   19.527295 H          1 MOL1         0.0958
       4    H3      21.487167   18.712703   20.290880 H          1 MOL1         0.0958
       5    C2      19.294431   18.655502   20.337306 C.3        1 MOL1        -0.1412
       6    H4      18.506249   17.897765   20.448290 H          1 MOL1         0.0947
       7    H5      19.146383   19.110530   19.347970 H          1 MOL1         0.0947
       8    C3      19.123485   19.750613   21.417631 C.3        1 MOL1        -0.1437
       9    H6      19.901682   20.515821   21.290797 H          1 MOL1         0.0947
      10    H7      18.162408   20.256478   21.251277 H          1 MOL1         0.0947
      11    C4      19.162599   19.201610   22.863972 C.3        1 MOL1        -0.1437
      12    H8      20.143998   18.751789   23.057248 H          1 MOL1         0.0947
      13    H9      18.415548   18.403541   22.973150 H          1 MOL1         0.0947
      14    C5      18.887941   20.313151   23.905229 C.3        1 MOL1        -0.1437
      15    H10     19.662052   21.089414   23.831402 H          1 MOL1         0.0947
      16    H11     17.935180   20.803825   23.662772 H          1 MOL1         0.0947
      17    C6      18.813180   19.791442   25.361126 C.3        1 MOL1        -0.1437
      18    H12     18.022895   19.032328   25.433763 H          1 MOL1         0.0947
      19    H13     18.506729   20.621381   26.012924 H          1 MOL1         0.0947
      20    C7      20.153949   19.214151   25.879566 C.3        1 MOL1        -0.1477
      21    H14     20.429815   18.315452   25.313641 H          1 MOL1         0.0947
      22    H15     20.954018   19.948270   25.716082 H          1 MOL1         0.0947
      23    C8      20.107534   18.869036   27.380338 C.3        1 MOL1         0.0145
      24    H16     19.836030   19.758958   27.954534 H          1 MOL1         0.0921
      25    H17     21.097314   18.539954   27.708317 H          1 MOL1         0.0921
      26    N1      19.120474   17.770179   27.721528 N.4        1 MOL1        -0.5969
      27    H18     19.337684   16.897365   27.229369 H          1 MOL1         0.3603
      28    H19     18.161936   18.030443   27.469057 H          1 MOL1         0.3603
      29    H20     19.119969   17.556914   28.725067 H          1 MOL1         0.3603
@<TRIPOS>BOND
    1     1     2    1
    2     1     3    1
    3     1     4    1
    4     1     5    1
    5     5     6    1
    6     5     7    1
    7     5     8    1
    8     8     9    1
    9     8    10    1
   10     8    11    1
   11    11    12    1
   12    11    13    1
   13    11    14    1
   14    14    15    1
   15    14    16    1
   16    14    17    1
   17    17    18    1
   18    17    19    1
   19    17    20    1
   20    20    21    1
   21    20    22    1
   22    20    23    1
   23    23    24    1
   24    23    25    1
   25    23    26    1
   26    26    27    1
   27    26    28    1
   28    26    29    1
@<TRIPOS>SUBSTRUCTURE
       1 MOL1            1 RESIDUE      1      MOL     
@<SCITEGIC>MOL_PROPERTY
VM2 Rank
SciTegic.value.IntegerValue
78

@<SCITEGIC>MOL_PROPERTY
Conf_Id
SciTegic.value.IntegerValue
1584

@<SCITEGIC>MOL_PROPERTY
Probability
SciTegic.value.DoubleValue
0.38

@<SCITEGIC>MOL_PROPERTY
Sum Probability
SciTegic.value.DoubleValue
74.64

@<SCITEGIC>MOL_PROPERTY
Delta G
SciTegic.value.DoubleValue
1.574

@<SCITEGIC>MOL_PROPERTY
G
SciTegic.value.DoubleValue
59.720

@<SCITEGIC>MOL_PROPERTY
E
SciTegic.value.DoubleValue
22.212

@<SCITEGIC>MOL_PROPERTY
-TS
SciTegic.value.DoubleValue
37.509

@<SCITEGIC>MOL_PROPERTY
U+W
SciTegic.value.DoubleValue
-1.933

@<SCITEGIC>MOL_PROPERTY
U
SciTegic.value.DoubleValue
49.862

@<SCITEGIC>MOL_PROPERTY
W
SciTegic.value.DoubleValue
-51.795

@<SCITEGIC>MOL_PROPERTY
W(PB)
SciTegic.value.DoubleValue
-54.285

@<SCITEGIC>MOL_PROPERTY
W(SA)
SciTegic.value.DoubleValue
2.490

@<SCITEGIC>MOL_PROPERTY
Valence
SciTegic.value.DoubleValue
3.720

@<SCITEGIC>MOL_PROPERTY
Coulomb
SciTegic.value.DoubleValue
45.091

@<SCITEGIC>MOL_PROPERTY
VdW
SciTegic.value.DoubleValue
1.051

@<SCITEGIC>MOL_PROPERTY
VdW6
SciTegic.value.DoubleValue
-8.777

@<SCITEGIC>MOL_PROPERTY
VdW12
SciTegic.value.DoubleValue
9.828

@<SCITEGIC>MOL_PROPERTY
Bond
SciTegic.value.DoubleValue
0.242

@<SCITEGIC>MOL_PROPERTY
Angle
SciTegic.value.DoubleValue
0.912

@<SCITEGIC>MOL_PROPERTY
Pdih
SciTegic.value.DoubleValue
2.566

@<SCITEGIC>MOL_PROPERTY
Idih
SciTegic.value.DoubleValue
0.000

@<SCITEGIC>MOL_PROPERTY
Tether
SciTegic.value.DoubleValue
0.000

@<TRIPOS>MOLECULE
guest-3_vm2.mol2 : vm2 ligand conformer 79
          29          28           1
SMALL
USER_CHARGES
 
@<TRIPOS>ATOM
       1    C1      19.430352   19.434386   19.276364 C.3        1 MOL1        -0.2427
       2    H1      20.378057   19.893615   18.966219 H          1 MOL1         0.0958
       3    H2      19.431505   18.388620   18.942267 H          1 MOL1         0.0958
       4    H3      18.617122   19.954474   18.753679 H          1 MOL1         0.0958
       5    C2      19.242518   19.527357   20.805421 C.3        1 MOL1        -0.1412
       6    H4      18.268630   19.095604   21.071723 H          1 MOL1         0.0947
       7    H5      19.215867   20.584171   21.105573 H          1 MOL1         0.0947
       8    C3      20.375608   18.797226   21.564246 C.3        1 MOL1        -0.1437
       9    H6      20.369680   17.730352   21.301671 H          1 MOL1         0.0947
      10    H7      21.343825   19.192147   21.226792 H          1 MOL1         0.0947
      11    C4      20.290481   18.954119   23.102240 C.3        1 MOL1        -0.1437
      12    H8      20.322764   20.021637   23.356876 H          1 MOL1         0.0947
      13    H9      21.186356   18.500867   23.548388 H          1 MOL1         0.0947
      14    C5      19.030413   18.296453   23.719540 C.3        1 MOL1        -0.1437
      15    H10     18.126682   18.819947   23.380917 H          1 MOL1         0.0947
      16    H11     18.947864   17.264441   23.351722 H          1 MOL1         0.0947
      17    C6      19.049504   18.266488   25.267326 C.3        1 MOL1        -0.1437
      18    H12     19.935131   17.713841   25.608352 H          1 MOL1         0.0947
      19    H13     18.176111   17.698056   25.616057 H          1 MOL1         0.0947
      20    C7      19.022336   19.675756   25.909711 C.3        1 MOL1        -0.1477
      21    H14     19.936208   20.229265   25.659398 H          1 MOL1         0.0947
      22    H15     18.182650   20.248898   25.494735 H          1 MOL1         0.0947
      23    C8      18.868166   19.624066   27.441730 C.3        1 MOL1         0.0145
      24    H16     17.958707   19.075852   27.701968 H          1 MOL1         0.0921
      25    H17     18.777206   20.641276   27.832293 H          1 MOL1         0.0921
      26    N1      20.034622   18.962149   28.148422 N.4        1 MOL1        -0.5969
      27    H18     19.907125   18.952104   29.166367 H          1 MOL1         0.3603
      28    H19     20.917978   19.447870   27.961414 H          1 MOL1         0.3603
      29    H20     20.154677   17.988840   27.850890 H          1 MOL1         0.3603
@<TRIPOS>BOND
    1     1     2    1
    2     1     3    1
    3     1     4    1
    4     1     5    1
    5     5     6    1
    6     5     7    1
    7     5     8    1
    8     8     9    1
    9     8    10    1
   10     8    11    1
   11    11    12    1
   12    11    13    1
   13    11    14    1
   14    14    15    1
   15    14    16    1
   16    14    17    1
   17    17    18    1
   18    17    19    1
   19    17    20    1
   20    20    21    1
   21    20    22    1
   22    20    23    1
   23    23    24    1
   24    23    25    1
   25    23    26    1
   26    26    27    1
   27    26    28    1
   28    26    29    1
@<TRIPOS>SUBSTRUCTURE
       1 MOL1            1 RESIDUE      1      MOL     
@<SCITEGIC>MOL_PROPERTY
VM2 Rank
SciTegic.value.IntegerValue
79

@<SCITEGIC>MOL_PROPERTY
Conf_Id
SciTegic.value.IntegerValue
1360

@<SCITEGIC>MOL_PROPERTY
Probability
SciTegic.value.DoubleValue
0.37

@<SCITEGIC>MOL_PROPERTY
Sum Probability
SciTegic.value.DoubleValue
75.01

@<SCITEGIC>MOL_PROPERTY
Delta G
SciTegic.value.DoubleValue
1.582

@<SCITEGIC>MOL_PROPERTY
G
SciTegic.value.DoubleValue
59.728

@<SCITEGIC>MOL_PROPERTY
E
SciTegic.value.DoubleValue
22.201

@<SCITEGIC>MOL_PROPERTY
-TS
SciTegic.value.DoubleValue
37.527

@<SCITEGIC>MOL_PROPERTY
U+W
SciTegic.value.DoubleValue
-1.944

@<SCITEGIC>MOL_PROPERTY
U
SciTegic.value.DoubleValue
49.798

@<SCITEGIC>MOL_PROPERTY
W
SciTegic.value.DoubleValue
-51.742

@<SCITEGIC>MOL_PROPERTY
W(PB)
SciTegic.value.DoubleValue
-54.234

@<SCITEGIC>MOL_PROPERTY
W(SA)
SciTegic.value.DoubleValue
2.492

@<SCITEGIC>MOL_PROPERTY
Valence
SciTegic.value.DoubleValue
3.728

@<SCITEGIC>MOL_PROPERTY
Coulomb
SciTegic.value.DoubleValue
45.048

@<SCITEGIC>MOL_PROPERTY
VdW
SciTegic.value.DoubleValue
1.022

@<SCITEGIC>MOL_PROPERTY
VdW6
SciTegic.value.DoubleValue
-8.813

@<SCITEGIC>MOL_PROPERTY
VdW12
SciTegic.value.DoubleValue
9.835

@<SCITEGIC>MOL_PROPERTY
Bond
SciTegic.value.DoubleValue
0.243

@<SCITEGIC>MOL_PROPERTY
Angle
SciTegic.value.DoubleValue
0.890

@<SCITEGIC>MOL_PROPERTY
Pdih
SciTegic.value.DoubleValue
2.595

@<SCITEGIC>MOL_PROPERTY
Idih
SciTegic.value.DoubleValue
0.000

@<SCITEGIC>MOL_PROPERTY
Tether
SciTegic.value.DoubleValue
0.000

@<TRIPOS>MOLECULE
guest-3_vm2.mol2 : vm2 ligand conformer 80
          29          28           1
SMALL
USER_CHARGES
 
@<TRIPOS>ATOM
       1    C1      21.183723   18.300479   20.556639 C.3        1 MOL1        -0.2427
       2    H1      22.125285   18.798081   20.290442 H          1 MOL1         0.0958
       3    H2      21.429403   17.404178   21.141003 H          1 MOL1         0.0958
       4    H3      20.697520   17.979598   19.626128 H          1 MOL1         0.0958
       5    C2      20.272345   19.252698   21.359369 C.3        1 MOL1        -0.1412
       6    H4      20.068038   20.152237   20.762138 H          1 MOL1         0.0947
       7    H5      20.807064   19.582307   22.260105 H          1 MOL1         0.0947
       8    C3      18.939601   18.571786   21.749900 C.3        1 MOL1        -0.1437
       9    H6      18.457802   18.184299   20.841660 H          1 MOL1         0.0947
      10    H7      19.140746   17.695443   22.379956 H          1 MOL1         0.0947
      11    C4      17.942031   19.521176   22.462830 C.3        1 MOL1        -0.1437
      12    H8      17.019023   18.965254   22.677600 H          1 MOL1         0.0947
      13    H9      17.654863   20.321805   21.767372 H          1 MOL1         0.0947
      14    C5      18.457413   20.164985   23.776047 C.3        1 MOL1        -0.1437
      15    H10     19.306526   20.827183   23.561261 H          1 MOL1         0.0947
      16    H11     17.664830   20.812236   24.176142 H          1 MOL1         0.0947
      17    C6      18.858517   19.132353   24.856405 C.3        1 MOL1        -0.1437
      18    H12     19.696364   18.524987   24.491811 H          1 MOL1         0.0947
      19    H13     18.019340   18.446657   25.037925 H          1 MOL1         0.0947
      20    C7      19.259552   19.819183   26.183187 C.3        1 MOL1        -0.1477
      21    H14     20.114524   20.488075   26.017116 H          1 MOL1         0.0947
      22    H15     18.430934   20.450044   26.531502 H          1 MOL1         0.0947
      23    C8      19.604112   18.810062   27.295366 C.3        1 MOL1         0.0145
      24    H16     18.757814   18.136956   27.456899 H          1 MOL1         0.0921
      25    H17     19.794432   19.348757   28.227631 H          1 MOL1         0.0921
      26    N1      20.826706   17.965278   26.995257 N.4        1 MOL1        -0.5969
      27    H18     20.700438   17.403250   26.147728 H          1 MOL1         0.3603
      28    H19     21.036040   17.313954   27.759831 H          1 MOL1         0.3603
      29    H20     21.662649   18.542327   26.855639 H          1 MOL1         0.3603
@<TRIPOS>BOND
    1     1     2    1
    2     1     3    1
    3     1     4    1
    4     1     5    1
    5     5     6    1
    6     5     7    1
    7     5     8    1
    8     8     9    1
    9     8    10    1
   10     8    11    1
   11    11    12    1
   12    11    13    1
   13    11    14    1
   14    14    15    1
   15    14    16    1
   16    14    17    1
   17    17    18    1
   18    17    19    1
   19    17    20    1
   20    20    21    1
   21    20    22    1
   22    20    23    1
   23    23    24    1
   24    23    25    1
   25    23    26    1
   26    26    27    1
   27    26    28    1
   28    26    29    1
@<TRIPOS>SUBSTRUCTURE
       1 MOL1            1 RESIDUE      1      MOL     
@<SCITEGIC>MOL_PROPERTY
VM2 Rank
SciTegic.value.IntegerValue
80

@<SCITEGIC>MOL_PROPERTY
Conf_Id
SciTegic.value.IntegerValue
341

@<SCITEGIC>MOL_PROPERTY
Probability
SciTegic.value.DoubleValue
0.37

@<SCITEGIC>MOL_PROPERTY
Sum Probability
SciTegic.value.DoubleValue
75.39

@<SCITEGIC>MOL_PROPERTY
Delta G
SciTegic.value.DoubleValue
1.583

@<SCITEGIC>MOL_PROPERTY
G
SciTegic.value.DoubleValue
59.729

@<SCITEGIC>MOL_PROPERTY
E
SciTegic.value.DoubleValue
21.987

@<SCITEGIC>MOL_PROPERTY
-TS
SciTegic.value.DoubleValue
37.743

@<SCITEGIC>MOL_PROPERTY
U+W
SciTegic.value.DoubleValue
-2.158

@<SCITEGIC>MOL_PROPERTY
U
SciTegic.value.DoubleValue
50.198

@<SCITEGIC>MOL_PROPERTY
W
SciTegic.value.DoubleValue
-52.355

@<SCITEGIC>MOL_PROPERTY
W(PB)
SciTegic.value.DoubleValue
-54.838

@<SCITEGIC>MOL_PROPERTY
W(SA)
SciTegic.value.DoubleValue
2.483

@<SCITEGIC>MOL_PROPERTY
Valence
SciTegic.value.DoubleValue
3.666

@<SCITEGIC>MOL_PROPERTY
Coulomb
SciTegic.value.DoubleValue
45.691

@<SCITEGIC>MOL_PROPERTY
VdW
SciTegic.value.DoubleValue
0.841

@<SCITEGIC>MOL_PROPERTY
VdW6
SciTegic.value.DoubleValue
-9.219

@<SCITEGIC>MOL_PROPERTY
VdW12
SciTegic.value.DoubleValue
10.060

@<SCITEGIC>MOL_PROPERTY
Bond
SciTegic.value.DoubleValue
0.250

@<SCITEGIC>MOL_PROPERTY
Angle
SciTegic.value.DoubleValue
1.116

@<SCITEGIC>MOL_PROPERTY
Pdih
SciTegic.value.DoubleValue
2.300

@<SCITEGIC>MOL_PROPERTY
Idih
SciTegic.value.DoubleValue
0.000

@<SCITEGIC>MOL_PROPERTY
Tether
SciTegic.value.DoubleValue
0.000

@<TRIPOS>MOLECULE
guest-3_vm2.mol2 : vm2 ligand conformer 81
          29          28           1
SMALL
USER_CHARGES
 
@<TRIPOS>ATOM
       1    C1      20.931656   19.170518   19.868650 C.3        1 MOL1        -0.2427
       2    H1      20.937435   18.091622   19.665673 H          1 MOL1         0.0958
       3    H2      20.326758   19.660930   19.094811 H          1 MOL1         0.0958
       4    H3      21.961979   19.537104   19.773350 H          1 MOL1         0.0958
       5    C2      20.376276   19.466212   21.277940 C.3        1 MOL1        -0.1412
       6    H4      20.410143   20.548937   21.462918 H          1 MOL1         0.0947
       7    H5      21.029563   18.994474   22.023767 H          1 MOL1         0.0947
       8    C3      18.925294   18.954011   21.437440 C.3        1 MOL1        -0.1437
       9    H6      18.308144   19.374892   20.631659 H          1 MOL1         0.0947
      10    H7      18.900883   17.863386   21.306473 H          1 MOL1         0.0947
      11    C4      18.280637   19.328449   22.794614 C.3        1 MOL1        -0.1437
      12    H8      17.222681   19.032869   22.769335 H          1 MOL1         0.0947
      13    H9      18.292965   20.420092   22.918569 H          1 MOL1         0.0947
      14    C5      18.962833   18.656464   24.010294 C.3        1 MOL1        -0.1437
      15    H10     18.993021   17.568737   23.858428 H          1 MOL1         0.0947
      16    H11     20.002498   18.998365   24.084337 H          1 MOL1         0.0947
      17    C6      18.218693   18.972331   25.329831 C.3        1 MOL1        -0.1437
      18    H12     17.168619   18.663282   25.234338 H          1 MOL1         0.0947
      19    H13     18.202942   20.057711   25.496500 H          1 MOL1         0.0947
      20    C7      18.830975   18.258470   26.561076 C.3        1 MOL1        -0.1477
      21    H14     18.230592   18.490763   27.450673 H          1 MOL1         0.0947
      22    H15     18.761823   17.171588   26.420499 H          1 MOL1         0.0947
      23    C8      20.302640   18.629006   26.835246 C.3        1 MOL1         0.0145
      24    H16     20.919230   18.357805   25.974507 H          1 MOL1         0.0921
      25    H17     20.663141   18.067346   27.701305 H          1 MOL1         0.0921
      26    N1      20.514995   20.102537   27.119908 N.4        1 MOL1        -0.5969
      27    H18     19.981773   20.411803   27.939185 H          1 MOL1         0.3603
      28    H19     20.221784   20.684878   26.329212 H          1 MOL1         0.3603
      29    H20     21.501053   20.317038   27.304596 H          1 MOL1         0.3603
@<TRIPOS>BOND
    1     1     2    1
    2     1     3    1
    3     1     4    1
    4     1     5    1
    5     5     6    1
    6     5     7    1
    7     5     8    1
    8     8     9    1
    9     8    10    1
   10     8    11    1
   11    11    12    1
   12    11    13    1
   13    11    14    1
   14    14    15    1
   15    14    16    1
   16    14    17    1
   17    17    18    1
   18    17    19    1
   19    17    20    1
   20    20    21    1
   21    20    22    1
   22    20    23    1
   23    23    24    1
   24    23    25    1
   25    23    26    1
   26    26    27    1
   27    26    28    1
   28    26    29    1
@<TRIPOS>SUBSTRUCTURE
       1 MOL1            1 RESIDUE      1      MOL     
@<SCITEGIC>MOL_PROPERTY
VM2 Rank
SciTegic.value.IntegerValue
81

@<SCITEGIC>MOL_PROPERTY
Conf_Id
SciTegic.value.IntegerValue
2291

@<SCITEGIC>MOL_PROPERTY
Probability
SciTegic.value.DoubleValue
0.37

@<SCITEGIC>MOL_PROPERTY
Sum Probability
SciTegic.value.DoubleValue
75.75

@<SCITEGIC>MOL_PROPERTY
Delta G
SciTegic.value.DoubleValue
1.588

@<SCITEGIC>MOL_PROPERTY
G
SciTegic.value.DoubleValue
59.734

@<SCITEGIC>MOL_PROPERTY
E
SciTegic.value.DoubleValue
22.163

@<SCITEGIC>MOL_PROPERTY
-TS
SciTegic.value.DoubleValue
37.571

@<SCITEGIC>MOL_PROPERTY
U+W
SciTegic.value.DoubleValue
-1.982

@<SCITEGIC>MOL_PROPERTY
U
SciTegic.value.DoubleValue
50.142

@<SCITEGIC>MOL_PROPERTY
W
SciTegic.value.DoubleValue
-52.124

@<SCITEGIC>MOL_PROPERTY
W(PB)
SciTegic.value.DoubleValue
-54.604

@<SCITEGIC>MOL_PROPERTY
W(SA)
SciTegic.value.DoubleValue
2.480

@<SCITEGIC>MOL_PROPERTY
Valence
SciTegic.value.DoubleValue
3.506

@<SCITEGIC>MOL_PROPERTY
Coulomb
SciTegic.value.DoubleValue
45.743

@<SCITEGIC>MOL_PROPERTY
VdW
SciTegic.value.DoubleValue
0.893

@<SCITEGIC>MOL_PROPERTY
VdW6
SciTegic.value.DoubleValue
-8.958

@<SCITEGIC>MOL_PROPERTY
VdW12
SciTegic.value.DoubleValue
9.850

@<SCITEGIC>MOL_PROPERTY
Bond
SciTegic.value.DoubleValue
0.232

@<SCITEGIC>MOL_PROPERTY
Angle
SciTegic.value.DoubleValue
0.893

@<SCITEGIC>MOL_PROPERTY
Pdih
SciTegic.value.DoubleValue
2.381

@<SCITEGIC>MOL_PROPERTY
Idih
SciTegic.value.DoubleValue
0.000

@<SCITEGIC>MOL_PROPERTY
Tether
SciTegic.value.DoubleValue
0.000

@<TRIPOS>MOLECULE
guest-3_vm2.mol2 : vm2 ligand conformer 82
          29          28           1
SMALL
USER_CHARGES
 
@<TRIPOS>ATOM
       1    C1      20.520109   17.914559   20.219953 C.3        1 MOL1        -0.2427
       2    H1      20.474011   17.189567   19.397040 H          1 MOL1         0.0958
       3    H2      21.326837   18.624846   19.996993 H          1 MOL1         0.0958
       4    H3      20.788116   17.363672   21.129995 H          1 MOL1         0.0958
       5    C2      19.165903   18.642869   20.375379 C.3        1 MOL1        -0.1412
       6    H4      18.381824   17.915304   20.627527 H          1 MOL1         0.0947
       7    H5      18.883332   19.075773   19.405585 H          1 MOL1         0.0947
       8    C3      19.192607   19.771600   21.434021 C.3        1 MOL1        -0.1437
       9    H6      19.962200   20.508188   21.165000 H          1 MOL1         0.0947
      10    H7      18.231326   20.302827   21.401810 H          1 MOL1         0.0947
      11    C4      19.438985   19.260719   22.873792 C.3        1 MOL1        -0.1437
      12    H8      20.430457   18.794028   22.939614 H          1 MOL1         0.0947
      13    H9      18.701060   18.482914   23.109258 H          1 MOL1         0.0947
      14    C5      19.348136   20.406588   23.909993 C.3        1 MOL1        -0.1437
      15    H10     20.036135   21.210871   23.614767 H          1 MOL1         0.0947
      16    H11     18.339552   20.842209   23.894195 H          1 MOL1         0.0947
      17    C6      19.699598   19.965038   25.351790 C.3        1 MOL1        -0.1437
      18    H12     19.714960   20.855952   25.994896 H          1 MOL1         0.0947
      19    H13     20.718062   19.554449   25.366786 H          1 MOL1         0.0947
      20    C7      18.703098   18.936218   25.941762 C.3        1 MOL1        -0.1477
      21    H14     17.679461   19.319747   25.837666 H          1 MOL1         0.0947
      22    H15     18.745830   17.994474   25.380185 H          1 MOL1         0.0947
      23    C8      18.966354   18.646092   27.431763 C.3        1 MOL1         0.0145
      24    H16     18.191093   17.976513   27.814077 H          1 MOL1         0.0921
      25    H17     18.923675   19.578267   28.001504 H          1 MOL1         0.0921
      26    N1      20.309210   17.994316   27.696546 N.4        1 MOL1        -0.5969
      27    H18     20.400881   17.098885   27.205623 H          1 MOL1         0.3603
      28    H19     20.450395   17.805192   28.694982 H          1 MOL1         0.3603
      29    H20     21.085679   18.589053   27.390525 H          1 MOL1         0.3603
@<TRIPOS>BOND
    1     1     2    1
    2     1     3    1
    3     1     4    1
    4     1     5    1
    5     5     6    1
    6     5     7    1
    7     5     8    1
    8     8     9    1
    9     8    10    1
   10     8    11    1
   11    11    12    1
   12    11    13    1
   13    11    14    1
   14    14    15    1
   15    14    16    1
   16    14    17    1
   17    17    18    1
   18    17    19    1
   19    17    20    1
   20    20    21    1
   21    20    22    1
   22    20    23    1
   23    23    24    1
   24    23    25    1
   25    23    26    1
   26    26    27    1
   27    26    28    1
   28    26    29    1
@<TRIPOS>SUBSTRUCTURE
       1 MOL1            1 RESIDUE      1      MOL     
@<SCITEGIC>MOL_PROPERTY
VM2 Rank
SciTegic.value.IntegerValue
82

@<SCITEGIC>MOL_PROPERTY
Conf_Id
SciTegic.value.IntegerValue
215

@<SCITEGIC>MOL_PROPERTY
Probability
SciTegic.value.DoubleValue
0.37

@<SCITEGIC>MOL_PROPERTY
Sum Probability
SciTegic.value.DoubleValue
76.12

@<SCITEGIC>MOL_PROPERTY
Delta G
SciTegic.value.DoubleValue
1.588

@<SCITEGIC>MOL_PROPERTY
G
SciTegic.value.DoubleValue
59.734

@<SCITEGIC>MOL_PROPERTY
E
SciTegic.value.DoubleValue
22.221

@<SCITEGIC>MOL_PROPERTY
-TS
SciTegic.value.DoubleValue
37.514

@<SCITEGIC>MOL_PROPERTY
U+W
SciTegic.value.DoubleValue
-1.924

@<SCITEGIC>MOL_PROPERTY
U
SciTegic.value.DoubleValue
49.857

@<SCITEGIC>MOL_PROPERTY
W
SciTegic.value.DoubleValue
-51.781

@<SCITEGIC>MOL_PROPERTY
W(PB)
SciTegic.value.DoubleValue
-54.284

@<SCITEGIC>MOL_PROPERTY
W(SA)
SciTegic.value.DoubleValue
2.503

@<SCITEGIC>MOL_PROPERTY
Valence
SciTegic.value.DoubleValue
3.719

@<SCITEGIC>MOL_PROPERTY
Coulomb
SciTegic.value.DoubleValue
45.090

@<SCITEGIC>MOL_PROPERTY
VdW
SciTegic.value.DoubleValue
1.048

@<SCITEGIC>MOL_PROPERTY
VdW6
SciTegic.value.DoubleValue
-8.764

@<SCITEGIC>MOL_PROPERTY
VdW12
SciTegic.value.DoubleValue
9.811

@<SCITEGIC>MOL_PROPERTY
Bond
SciTegic.value.DoubleValue
0.240

@<SCITEGIC>MOL_PROPERTY
Angle
SciTegic.value.DoubleValue
0.912

@<SCITEGIC>MOL_PROPERTY
Pdih
SciTegic.value.DoubleValue
2.568

@<SCITEGIC>MOL_PROPERTY
Idih
SciTegic.value.DoubleValue
0.000

@<SCITEGIC>MOL_PROPERTY
Tether
SciTegic.value.DoubleValue
0.000

@<TRIPOS>MOLECULE
guest-3_vm2.mol2 : vm2 ligand conformer 83
          29          28           1
SMALL
USER_CHARGES
 
@<TRIPOS>ATOM
       1    C1      20.802653   18.196662   20.529776 C.3        1 MOL1        -0.2427
       2    H1      20.986555   17.776512   21.526467 H          1 MOL1         0.0958
       3    H2      20.245864   17.456167   19.941050 H          1 MOL1         0.0958
       4    H3      21.777919   18.344800   20.048378 H          1 MOL1         0.0958
       5    C2      20.031423   19.533173   20.613050 C.3        1 MOL1        -0.1412
       6    H4      19.975996   19.972693   19.607378 H          1 MOL1         0.0947
       7    H5      20.597076   20.250189   21.222905 H          1 MOL1         0.0947
       8    C3      18.590784   19.380184   21.164052 C.3        1 MOL1        -0.1437
       9    H6      18.104921   20.365595   21.162209 H          1 MOL1         0.0947
      10    H7      18.009911   18.757504   20.469829 H          1 MOL1         0.0947
      11    C4      18.485917   18.769594   22.585455 C.3        1 MOL1        -0.1437
      12    H8      18.866620   17.739694   22.579420 H          1 MOL1         0.0947
      13    H9      17.422528   18.696804   22.851955 H          1 MOL1         0.0947
      14    C5      19.221397   19.593969   23.668858 C.3        1 MOL1        -0.1437
      15    H10     20.298212   19.614263   23.455403 H          1 MOL1         0.0947
      16    H11     18.869352   20.634331   23.639708 H          1 MOL1         0.0947
      17    C6      18.997833   19.011455   25.082565 C.3        1 MOL1        -0.1437
      18    H12     19.342803   17.969048   25.102206 H          1 MOL1         0.0947
      19    H13     17.922359   18.996324   25.307762 H          1 MOL1         0.0947
      20    C7      19.738746   19.831566   26.164902 C.3        1 MOL1        -0.1477
      21    H14     20.818963   19.826829   25.967170 H          1 MOL1         0.0947
      22    H15     19.414980   20.879585   26.112025 H          1 MOL1         0.0947
      23    C8      19.474505   19.310954   27.590753 C.3        1 MOL1         0.0145
      24    H16     18.399198   19.308732   27.788500 H          1 MOL1         0.0921
      25    H17     19.953242   19.976187   28.314504 H          1 MOL1         0.0921
      26    N1      20.000741   17.910441   27.835590 N.4        1 MOL1        -0.5969
      27    H18     19.563641   17.226538   27.209921 H          1 MOL1         0.3603
      28    H19     19.819770   17.598225   28.795994 H          1 MOL1         0.3603
      29    H20     21.013715   17.853401   27.687543 H          1 MOL1         0.3603
@<TRIPOS>BOND
    1     1     2    1
    2     1     3    1
    3     1     4    1
    4     1     5    1
    5     5     6    1
    6     5     7    1
    7     5     8    1
    8     8     9    1
    9     8    10    1
   10     8    11    1
   11    11    12    1
   12    11    13    1
   13    11    14    1
   14    14    15    1
   15    14    16    1
   16    14    17    1
   17    17    18    1
   18    17    19    1
   19    17    20    1
   20    20    21    1
   21    20    22    1
   22    20    23    1
   23    23    24    1
   24    23    25    1
   25    23    26    1
   26    26    27    1
   27    26    28    1
   28    26    29    1
@<TRIPOS>SUBSTRUCTURE
       1 MOL1            1 RESIDUE      1      MOL     
@<SCITEGIC>MOL_PROPERTY
VM2 Rank
SciTegic.value.IntegerValue
83

@<SCITEGIC>MOL_PROPERTY
Conf_Id
SciTegic.value.IntegerValue
1922

@<SCITEGIC>MOL_PROPERTY
Probability
SciTegic.value.DoubleValue
0.36

@<SCITEGIC>MOL_PROPERTY
Sum Probability
SciTegic.value.DoubleValue
76.48

@<SCITEGIC>MOL_PROPERTY
Delta G
SciTegic.value.DoubleValue
1.602

@<SCITEGIC>MOL_PROPERTY
G
SciTegic.value.DoubleValue
59.749

@<SCITEGIC>MOL_PROPERTY
E
SciTegic.value.DoubleValue
22.029

@<SCITEGIC>MOL_PROPERTY
-TS
SciTegic.value.DoubleValue
37.720

@<SCITEGIC>MOL_PROPERTY
U+W
SciTegic.value.DoubleValue
-2.116

@<SCITEGIC>MOL_PROPERTY
U
SciTegic.value.DoubleValue
49.570

@<SCITEGIC>MOL_PROPERTY
W
SciTegic.value.DoubleValue
-51.685

@<SCITEGIC>MOL_PROPERTY
W(PB)
SciTegic.value.DoubleValue
-54.165

@<SCITEGIC>MOL_PROPERTY
W(SA)
SciTegic.value.DoubleValue
2.480

@<SCITEGIC>MOL_PROPERTY
Valence
SciTegic.value.DoubleValue
3.642

@<SCITEGIC>MOL_PROPERTY
Coulomb
SciTegic.value.DoubleValue
45.000

@<SCITEGIC>MOL_PROPERTY
VdW
SciTegic.value.DoubleValue
0.928

@<SCITEGIC>MOL_PROPERTY
VdW6
SciTegic.value.DoubleValue
-9.033

@<SCITEGIC>MOL_PROPERTY
VdW12
SciTegic.value.DoubleValue
9.961

@<SCITEGIC>MOL_PROPERTY
Bond
SciTegic.value.DoubleValue
0.244

@<SCITEGIC>MOL_PROPERTY
Angle
SciTegic.value.DoubleValue
1.082

@<SCITEGIC>MOL_PROPERTY
Pdih
SciTegic.value.DoubleValue
2.316

@<SCITEGIC>MOL_PROPERTY
Idih
SciTegic.value.DoubleValue
0.000

@<SCITEGIC>MOL_PROPERTY
Tether
SciTegic.value.DoubleValue
0.000

@<TRIPOS>MOLECULE
guest-3_vm2.mol2 : vm2 ligand conformer 84
          29          28           1
SMALL
USER_CHARGES
 
@<TRIPOS>ATOM
       1    C1      21.082578   19.466094   20.261383 C.3        1 MOL1        -0.2427
       2    H1      21.941383   19.089718   20.832354 H          1 MOL1         0.0958
       3    H2      20.901552   18.780102   19.423615 H          1 MOL1         0.0958
       4    H3      21.357607   20.443124   19.843318 H          1 MOL1         0.0958
       5    C2      19.832446   19.589543   21.157854 C.3        1 MOL1        -0.1412
       6    H4      18.998960   19.995692   20.567990 H          1 MOL1         0.0947
       7    H5      20.038478   20.311972   21.958834 H          1 MOL1         0.0947
       8    C3      19.427590   18.224730   21.762586 C.3        1 MOL1        -0.1437
       9    H6      19.299974   17.497950   20.948537 H          1 MOL1         0.0947
      10    H7      20.244573   17.837467   22.385521 H          1 MOL1         0.0947
      11    C4      18.111996   18.273909   22.581975 C.3        1 MOL1        -0.1437
      12    H8      17.885608   17.262222   22.945768 H          1 MOL1         0.0947
      13    H9      17.285024   18.543112   21.910572 H          1 MOL1         0.0947
      14    C5      18.113602   19.251628   23.785543 C.3        1 MOL1        -0.1437
      15    H10     18.212751   20.285344   23.428875 H          1 MOL1         0.0947
      16    H11     17.132225   19.195459   24.276445 H          1 MOL1         0.0947
      17    C6      19.215976   18.948321   24.828161 C.3        1 MOL1        -0.1437
      18    H12     20.206709   19.075811   24.372145 H          1 MOL1         0.0947
      19    H13     19.138716   17.898553   25.140797 H          1 MOL1         0.0947
      20    C7      19.106451   19.874983   26.061881 C.3        1 MOL1        -0.1477
      21    H14     19.143116   20.922382   25.733897 H          1 MOL1         0.0947
      22    H15     18.134840   19.734227   26.553932 H          1 MOL1         0.0947
      23    C8      20.237652   19.643369   27.081970 C.3        1 MOL1         0.0145
      24    H16     20.156364   20.378562   27.887215 H          1 MOL1         0.0921
      25    H17     21.206767   19.777476   26.593897 H          1 MOL1         0.0921
      26    N1      20.215708   18.265423   27.713648 N.4        1 MOL1        -0.5969
      27    H18     19.335697   18.088239   28.209102 H          1 MOL1         0.3603
      28    H19     20.973100   18.146996   28.395492 H          1 MOL1         0.3603
      29    H20     20.323587   17.525492   27.012883 H          1 MOL1         0.3603
@<TRIPOS>BOND
    1     1     2    1
    2     1     3    1
    3     1     4    1
    4     1     5    1
    5     5     6    1
    6     5     7    1
    7     5     8    1
    8     8     9    1
    9     8    10    1
   10     8    11    1
   11    11    12    1
   12    11    13    1
   13    11    14    1
   14    14    15    1
   15    14    16    1
   16    14    17    1
   17    17    18    1
   18    17    19    1
   19    17    20    1
   20    20    21    1
   21    20    22    1
   22    20    23    1
   23    23    24    1
   24    23    25    1
   25    23    26    1
   26    26    27    1
   27    26    28    1
   28    26    29    1
@<TRIPOS>SUBSTRUCTURE
       1 MOL1            1 RESIDUE      1      MOL     
@<SCITEGIC>MOL_PROPERTY
VM2 Rank
SciTegic.value.IntegerValue
84

@<SCITEGIC>MOL_PROPERTY
Conf_Id
SciTegic.value.IntegerValue
1330

@<SCITEGIC>MOL_PROPERTY
Probability
SciTegic.value.DoubleValue
0.36

@<SCITEGIC>MOL_PROPERTY
Sum Probability
SciTegic.value.DoubleValue
76.84

@<SCITEGIC>MOL_PROPERTY
Delta G
SciTegic.value.DoubleValue
1.604

@<SCITEGIC>MOL_PROPERTY
G
SciTegic.value.DoubleValue
59.750

@<SCITEGIC>MOL_PROPERTY
E
SciTegic.value.DoubleValue
22.010

@<SCITEGIC>MOL_PROPERTY
-TS
SciTegic.value.DoubleValue
37.740

@<SCITEGIC>MOL_PROPERTY
U+W
SciTegic.value.DoubleValue
-2.134

@<SCITEGIC>MOL_PROPERTY
U
SciTegic.value.DoubleValue
49.772

@<SCITEGIC>MOL_PROPERTY
W
SciTegic.value.DoubleValue
-51.906

@<SCITEGIC>MOL_PROPERTY
W(PB)
SciTegic.value.DoubleValue
-54.376

@<SCITEGIC>MOL_PROPERTY
W(SA)
SciTegic.value.DoubleValue
2.470

@<SCITEGIC>MOL_PROPERTY
Valence
SciTegic.value.DoubleValue
3.673

@<SCITEGIC>MOL_PROPERTY
Coulomb
SciTegic.value.DoubleValue
45.240

@<SCITEGIC>MOL_PROPERTY
VdW
SciTegic.value.DoubleValue
0.859

@<SCITEGIC>MOL_PROPERTY
VdW6
SciTegic.value.DoubleValue
-9.177

@<SCITEGIC>MOL_PROPERTY
VdW12
SciTegic.value.DoubleValue
10.036

@<SCITEGIC>MOL_PROPERTY
Bond
SciTegic.value.DoubleValue
0.248

@<SCITEGIC>MOL_PROPERTY
Angle
SciTegic.value.DoubleValue
1.115

@<SCITEGIC>MOL_PROPERTY
Pdih
SciTegic.value.DoubleValue
2.310

@<SCITEGIC>MOL_PROPERTY
Idih
SciTegic.value.DoubleValue
0.000

@<SCITEGIC>MOL_PROPERTY
Tether
SciTegic.value.DoubleValue
0.000

@<TRIPOS>MOLECULE
guest-3_vm2.mol2 : vm2 ligand conformer 85
          29          28           1
SMALL
USER_CHARGES
 
@<TRIPOS>ATOM
       1    C1      21.062437   19.436436   20.253789 C.3        1 MOL1        -0.2427
       2    H1      21.241275   18.385602   19.991507 H          1 MOL1         0.0958
       3    H2      21.496693   20.059068   19.460898 H          1 MOL1         0.0958
       4    H3      21.605643   19.657154   21.180984 H          1 MOL1         0.0958
       5    C2      19.550804   19.723123   20.399547 C.3        1 MOL1        -0.1412
       6    H4      19.071776   19.605380   19.417498 H          1 MOL1         0.0947
       7    H5      19.400035   20.771815   20.691477 H          1 MOL1         0.0947
       8    C3      18.842907   18.790930   21.412152 C.3        1 MOL1        -0.1437
       9    H6      17.762869   18.989071   21.372651 H          1 MOL1         0.0947
      10    H7      18.976992   17.745094   21.103197 H          1 MOL1         0.0947
      11    C4      19.336618   18.973205   22.867372 C.3        1 MOL1        -0.1437
      12    H8      19.253356   20.032196   23.144066 H          1 MOL1         0.0947
      13    H9      20.398822   18.704951   22.937439 H          1 MOL1         0.0947
      14    C5      18.527378   18.102679   23.858478 C.3        1 MOL1        -0.1437
      15    H10     17.470809   18.403623   23.839714 H          1 MOL1         0.0947
      16    H11     18.556281   17.057111   23.521844 H          1 MOL1         0.0947
      17    C6      19.058444   18.165038   25.311525 C.3        1 MOL1        -0.1437
      18    H12     20.106945   17.838784   25.328325 H          1 MOL1         0.0947
      19    H13     18.498389   17.440097   25.918441 H          1 MOL1         0.0947
      20    C7      18.927878   19.567576   25.956028 C.3        1 MOL1        -0.1477
      21    H14     19.563835   20.291952   25.431705 H          1 MOL1         0.0947
      22    H15     17.893688   19.921521   25.851436 H          1 MOL1         0.0947
      23    C8      19.294333   19.566578   27.452451 C.3        1 MOL1         0.0145
      24    H16     18.664450   18.849141   27.985283 H          1 MOL1         0.0921
      25    H17     19.111014   20.559461   27.872103 H          1 MOL1         0.0921
      26    N1      20.743201   19.212436   27.723658 N.4        1 MOL1        -0.5969
      27    H18     20.973657   18.273675   27.383242 H          1 MOL1         0.3603
      28    H19     20.958134   19.229987   28.726689 H          1 MOL1         0.3603
      29    H20     21.386739   19.867314   27.267368 H          1 MOL1         0.3603
@<TRIPOS>BOND
    1     1     2    1
    2     1     3    1
    3     1     4    1
    4     1     5    1
    5     5     6    1
    6     5     7    1
    7     5     8    1
    8     8     9    1
    9     8    10    1
   10     8    11    1
   11    11    12    1
   12    11    13    1
   13    11    14    1
   14    14    15    1
   15    14    16    1
   16    14    17    1
   17    17    18    1
   18    17    19    1
   19    17    20    1
   20    20    21    1
   21    20    22    1
   22    20    23    1
   23    23    24    1
   24    23    25    1
   25    23    26    1
   26    26    27    1
   27    26    28    1
   28    26    29    1
@<TRIPOS>SUBSTRUCTURE
       1 MOL1            1 RESIDUE      1      MOL     
@<SCITEGIC>MOL_PROPERTY
VM2 Rank
SciTegic.value.IntegerValue
85

@<SCITEGIC>MOL_PROPERTY
Conf_Id
SciTegic.value.IntegerValue
1552

@<SCITEGIC>MOL_PROPERTY
Probability
SciTegic.value.DoubleValue
0.36

@<SCITEGIC>MOL_PROPERTY
Sum Probability
SciTegic.value.DoubleValue
77.19

@<SCITEGIC>MOL_PROPERTY
Delta G
SciTegic.value.DoubleValue
1.609

@<SCITEGIC>MOL_PROPERTY
G
SciTegic.value.DoubleValue
59.755

@<SCITEGIC>MOL_PROPERTY
E
SciTegic.value.DoubleValue
22.242

@<SCITEGIC>MOL_PROPERTY
-TS
SciTegic.value.DoubleValue
37.514

@<SCITEGIC>MOL_PROPERTY
U+W
SciTegic.value.DoubleValue
-1.903

@<SCITEGIC>MOL_PROPERTY
U
SciTegic.value.DoubleValue
49.857

@<SCITEGIC>MOL_PROPERTY
W
SciTegic.value.DoubleValue
-51.760

@<SCITEGIC>MOL_PROPERTY
W(PB)
SciTegic.value.DoubleValue
-54.267

@<SCITEGIC>MOL_PROPERTY
W(SA)
SciTegic.value.DoubleValue
2.508

@<SCITEGIC>MOL_PROPERTY
Valence
SciTegic.value.DoubleValue
3.719

@<SCITEGIC>MOL_PROPERTY
Coulomb
SciTegic.value.DoubleValue
45.090

@<SCITEGIC>MOL_PROPERTY
VdW
SciTegic.value.DoubleValue
1.048

@<SCITEGIC>MOL_PROPERTY
VdW6
SciTegic.value.DoubleValue
-8.764

@<SCITEGIC>MOL_PROPERTY
VdW12
SciTegic.value.DoubleValue
9.811

@<SCITEGIC>MOL_PROPERTY
Bond
SciTegic.value.DoubleValue
0.240

@<SCITEGIC>MOL_PROPERTY
Angle
SciTegic.value.DoubleValue
0.912

@<SCITEGIC>MOL_PROPERTY
Pdih
SciTegic.value.DoubleValue
2.568

@<SCITEGIC>MOL_PROPERTY
Idih
SciTegic.value.DoubleValue
0.000

@<SCITEGIC>MOL_PROPERTY
Tether
SciTegic.value.DoubleValue
0.000

@<TRIPOS>MOLECULE
guest-3_vm2.mol2 : vm2 ligand conformer 86
          29          28           1
SMALL
USER_CHARGES
 
@<TRIPOS>ATOM
       1    C1      19.782096   18.953723   19.488482 C.3        1 MOL1        -0.2427
       2    H1      20.828177   18.621456   19.506715 H          1 MOL1         0.0958
       3    H2      19.370418   18.711833   18.500078 H          1 MOL1         0.0958
       4    H3      19.765586   20.045483   19.593251 H          1 MOL1         0.0958
       5    C2      18.959930   18.262518   20.599883 C.3        1 MOL1        -0.1412
       6    H4      18.900685   17.187931   20.377339 H          1 MOL1         0.0947
       7    H5      17.926874   18.637015   20.583588 H          1 MOL1         0.0947
       8    C3      19.559988   18.442314   22.015433 C.3        1 MOL1        -0.1437
       9    H6      18.990705   17.808159   22.706743 H          1 MOL1         0.0947
      10    H7      20.591988   18.065697   22.026603 H          1 MOL1         0.0947
      11    C4      19.532643   19.909347   22.514946 C.3        1 MOL1        -0.1437
      12    H8      18.500166   20.284714   22.508060 H          1 MOL1         0.0947
      13    H9      20.096108   20.542233   21.817446 H          1 MOL1         0.0947
      14    C5      20.142892   20.095101   23.926174 C.3        1 MOL1        -0.1437
      15    H10     21.173970   19.715480   23.933998 H          1 MOL1         0.0947
      16    H11     20.209597   21.171863   24.134665 H          1 MOL1         0.0947
      17    C6      19.326239   19.415528   25.051716 C.3        1 MOL1        -0.1437
      18    H12     19.316697   18.329430   24.898552 H          1 MOL1         0.0947
      19    H13     18.282545   19.755960   25.004594 H          1 MOL1         0.0947
      20    C7      19.907653   19.731976   26.450014 C.3        1 MOL1        -0.1477
      21    H14     20.942759   19.371406   26.517425 H          1 MOL1         0.0947
      22    H15     19.945080   20.820394   26.591004 H          1 MOL1         0.0947
      23    C8      19.074527   19.121729   27.593548 C.3        1 MOL1         0.0145
      24    H16     18.041252   19.472294   27.523980 H          1 MOL1         0.0921
      25    H17     19.482032   19.449299   28.553850 H          1 MOL1         0.0921
      26    N1      19.058031   17.605764   27.594804 N.4        1 MOL1        -0.5969
      27    H18     18.651295   17.230232   26.732431 H          1 MOL1         0.3603
      28    H19     18.506687   17.231850   28.375080 H          1 MOL1         0.3603
      29    H20     20.002182   17.215212   27.680604 H          1 MOL1         0.3603
@<TRIPOS>BOND
    1     1     2    1
    2     1     3    1
    3     1     4    1
    4     1     5    1
    5     5     6    1
    6     5     7    1
    7     5     8    1
    8     8     9    1
    9     8    10    1
   10     8    11    1
   11    11    12    1
   12    11    13    1
   13    11    14    1
   14    14    15    1
   15    14    16    1
   16    14    17    1
   17    17    18    1
   18    17    19    1
   19    17    20    1
   20    20    21    1
   21    20    22    1
   22    20    23    1
   23    23    24    1
   24    23    25    1
   25    23    26    1
   26    26    27    1
   27    26    28    1
   28    26    29    1
@<TRIPOS>SUBSTRUCTURE
       1 MOL1            1 RESIDUE      1      MOL     
@<SCITEGIC>MOL_PROPERTY
VM2 Rank
SciTegic.value.IntegerValue
86

@<SCITEGIC>MOL_PROPERTY
Conf_Id
SciTegic.value.IntegerValue
235

@<SCITEGIC>MOL_PROPERTY
Probability
SciTegic.value.DoubleValue
0.35

@<SCITEGIC>MOL_PROPERTY
Sum Probability
SciTegic.value.DoubleValue
77.55

@<SCITEGIC>MOL_PROPERTY
Delta G
SciTegic.value.DoubleValue
1.610

@<SCITEGIC>MOL_PROPERTY
G
SciTegic.value.DoubleValue
59.756

@<SCITEGIC>MOL_PROPERTY
E
SciTegic.value.DoubleValue
22.321

@<SCITEGIC>MOL_PROPERTY
-TS
SciTegic.value.DoubleValue
37.435

@<SCITEGIC>MOL_PROPERTY
U+W
SciTegic.value.DoubleValue
-1.824

@<SCITEGIC>MOL_PROPERTY
U
SciTegic.value.DoubleValue
50.173

@<SCITEGIC>MOL_PROPERTY
W
SciTegic.value.DoubleValue
-51.996

@<SCITEGIC>MOL_PROPERTY
W(PB)
SciTegic.value.DoubleValue
-54.483

@<SCITEGIC>MOL_PROPERTY
W(SA)
SciTegic.value.DoubleValue
2.487

@<SCITEGIC>MOL_PROPERTY
Valence
SciTegic.value.DoubleValue
3.804

@<SCITEGIC>MOL_PROPERTY
Coulomb
SciTegic.value.DoubleValue
45.246

@<SCITEGIC>MOL_PROPERTY
VdW
SciTegic.value.DoubleValue
1.123

@<SCITEGIC>MOL_PROPERTY
VdW6
SciTegic.value.DoubleValue
-8.691

@<SCITEGIC>MOL_PROPERTY
VdW12
SciTegic.value.DoubleValue
9.815

@<SCITEGIC>MOL_PROPERTY
Bond
SciTegic.value.DoubleValue
0.250

@<SCITEGIC>MOL_PROPERTY
Angle
SciTegic.value.DoubleValue
0.987

@<SCITEGIC>MOL_PROPERTY
Pdih
SciTegic.value.DoubleValue
2.567

@<SCITEGIC>MOL_PROPERTY
Idih
SciTegic.value.DoubleValue
0.000

@<SCITEGIC>MOL_PROPERTY
Tether
SciTegic.value.DoubleValue
0.000

@<TRIPOS>MOLECULE
guest-3_vm2.mol2 : vm2 ligand conformer 87
          29          28           1
SMALL
USER_CHARGES
 
@<TRIPOS>ATOM
       1    C1      19.709688   19.212846   19.452016 C.3        1 MOL1        -0.2427
       2    H1      19.909268   18.141734   19.318196 H          1 MOL1         0.0958
       3    H2      19.364720   19.612651   18.489682 H          1 MOL1         0.0958
       4    H3      20.655812   19.711777   19.695137 H          1 MOL1         0.0958
       5    C2      18.644562   19.447144   20.547248 C.3        1 MOL1        -0.1412
       6    H4      17.685186   19.040320   20.198152 H          1 MOL1         0.0947
       7    H5      18.488168   20.525909   20.686971 H          1 MOL1         0.0947
       8    C3      18.997028   18.789012   21.903272 C.3        1 MOL1        -0.1437
       9    H6      18.127882   18.892285   22.565229 H          1 MOL1         0.0947
      10    H7      19.150809   17.710879   21.758474 H          1 MOL1         0.0947
      11    C4      20.243981   19.408857   22.583893 C.3        1 MOL1        -0.1437
      12    H8      20.089071   20.486407   22.731637 H          1 MOL1         0.0947
      13    H9      21.110189   19.309801   21.917239 H          1 MOL1         0.0947
      14    C5      20.604990   18.746259   23.936313 C.3        1 MOL1        -0.1437
      15    H10     20.759263   17.668536   23.788011 H          1 MOL1         0.0947
      16    H11     21.568775   19.151826   24.273973 H          1 MOL1         0.0947
      17    C6      19.548568   18.976927   25.043638 C.3        1 MOL1        -0.1437
      18    H12     18.599496   18.502265   24.762516 H          1 MOL1         0.0947
      19    H13     19.353639   20.053358   25.138945 H          1 MOL1         0.0947
      20    C7      20.012913   18.404540   26.403766 C.3        1 MOL1        -0.1477
      21    H14     20.245286   17.337433   26.288547 H          1 MOL1         0.0947
      22    H15     20.942442   18.895301   26.721731 H          1 MOL1         0.0947
      23    C8      18.948552   18.555649   27.507534 C.3        1 MOL1         0.0145
      24    H16     19.297852   18.062089   28.418540 H          1 MOL1         0.0921
      25    H17     18.019884   18.072406   27.192196 H          1 MOL1         0.0921
      26    N1      18.633719   19.996766   27.857321 N.4        1 MOL1        -0.5969
      27    H18     17.931388   20.063070   28.602261 H          1 MOL1         0.3603
      28    H19     18.265843   20.510929   27.050762 H          1 MOL1         0.3603
      29    H20     19.465632   20.499322   28.183911 H          1 MOL1         0.3603
@<TRIPOS>BOND
    1     1     2    1
    2     1     3    1
    3     1     4    1
    4     1     5    1
    5     5     6    1
    6     5     7    1
    7     5     8    1
    8     8     9    1
    9     8    10    1
   10     8    11    1
   11    11    12    1
   12    11    13    1
   13    11    14    1
   14    14    15    1
   15    14    16    1
   16    14    17    1
   17    17    18    1
   18    17    19    1
   19    17    20    1
   20    20    21    1
   21    20    22    1
   22    20    23    1
   23    23    24    1
   24    23    25    1
   25    23    26    1
   26    26    27    1
   27    26    28    1
   28    26    29    1
@<TRIPOS>SUBSTRUCTURE
       1 MOL1            1 RESIDUE      1      MOL     
@<SCITEGIC>MOL_PROPERTY
VM2 Rank
SciTegic.value.IntegerValue
87

@<SCITEGIC>MOL_PROPERTY
Conf_Id
SciTegic.value.IntegerValue
942

@<SCITEGIC>MOL_PROPERTY
Probability
SciTegic.value.DoubleValue
0.35

@<SCITEGIC>MOL_PROPERTY
Sum Probability
SciTegic.value.DoubleValue
77.90

@<SCITEGIC>MOL_PROPERTY
Delta G
SciTegic.value.DoubleValue
1.614

@<SCITEGIC>MOL_PROPERTY
G
SciTegic.value.DoubleValue
59.761

@<SCITEGIC>MOL_PROPERTY
E
SciTegic.value.DoubleValue
22.316

@<SCITEGIC>MOL_PROPERTY
-TS
SciTegic.value.DoubleValue
37.445

@<SCITEGIC>MOL_PROPERTY
U+W
SciTegic.value.DoubleValue
-1.829

@<SCITEGIC>MOL_PROPERTY
U
SciTegic.value.DoubleValue
49.938

@<SCITEGIC>MOL_PROPERTY
W
SciTegic.value.DoubleValue
-51.767

@<SCITEGIC>MOL_PROPERTY
W(PB)
SciTegic.value.DoubleValue
-54.247

@<SCITEGIC>MOL_PROPERTY
W(SA)
SciTegic.value.DoubleValue
2.481

@<SCITEGIC>MOL_PROPERTY
Valence
SciTegic.value.DoubleValue
3.804

@<SCITEGIC>MOL_PROPERTY
Coulomb
SciTegic.value.DoubleValue
45.009

@<SCITEGIC>MOL_PROPERTY
VdW
SciTegic.value.DoubleValue
1.125

@<SCITEGIC>MOL_PROPERTY
VdW6
SciTegic.value.DoubleValue
-8.684

@<SCITEGIC>MOL_PROPERTY
VdW12
SciTegic.value.DoubleValue
9.808

@<SCITEGIC>MOL_PROPERTY
Bond
SciTegic.value.DoubleValue
0.248

@<SCITEGIC>MOL_PROPERTY
Angle
SciTegic.value.DoubleValue
0.990

@<SCITEGIC>MOL_PROPERTY
Pdih
SciTegic.value.DoubleValue
2.567

@<SCITEGIC>MOL_PROPERTY
Idih
SciTegic.value.DoubleValue
0.000

@<SCITEGIC>MOL_PROPERTY
Tether
SciTegic.value.DoubleValue
0.000

@<TRIPOS>MOLECULE
guest-3_vm2.mol2 : vm2 ligand conformer 88
          29          28           1
SMALL
USER_CHARGES
 
@<TRIPOS>ATOM
       1    C1      20.813012   19.882941   20.001191 C.3        1 MOL1        -0.2427
       2    H1      21.518592   20.438002   20.633089 H          1 MOL1         0.0958
       3    H2      21.282678   18.931947   19.717880 H          1 MOL1         0.0958
       4    H3      20.651171   20.465202   19.084779 H          1 MOL1         0.0958
       5    C2      19.478062   19.644171   20.737887 C.3        1 MOL1        -0.1412
       6    H4      18.781994   19.118406   20.069371 H          1 MOL1         0.0947
       7    H5      19.016433   20.611954   20.979046 H          1 MOL1         0.0947
       8    C3      19.677915   18.825278   22.032199 C.3        1 MOL1        -0.1437
       9    H6      20.136716   17.857636   21.786658 H          1 MOL1         0.0947
      10    H7      20.381815   19.356334   22.686300 H          1 MOL1         0.0947
      11    C4      18.341185   18.590343   22.775425 C.3        1 MOL1        -0.1437
      12    H8      17.625005   18.125875   22.083642 H          1 MOL1         0.0947
      13    H9      17.900103   19.554250   23.061359 H          1 MOL1         0.0947
      14    C5      18.475270   17.676866   24.021358 C.3        1 MOL1        -0.1437
      15    H10     17.480788   17.543663   24.469055 H          1 MOL1         0.0947
      16    H11     18.793362   16.677029   23.695262 H          1 MOL1         0.0947
      17    C6      19.454895   18.177349   25.114447 C.3        1 MOL1        -0.1437
      18    H12     20.478765   18.202048   24.718450 H          1 MOL1         0.0947
      19    H13     19.463583   17.437182   25.925313 H          1 MOL1         0.0947
      20    C7      19.083090   19.566614   25.690318 C.3        1 MOL1        -0.1477
      21    H14     19.115216   20.319130   24.892529 H          1 MOL1         0.0947
      22    H15     18.052977   19.553416   26.070309 H          1 MOL1         0.0947
      23    C8      20.039292   20.020713   26.809912 C.3        1 MOL1         0.0145
      24    H16     19.788653   21.042410   27.107976 H          1 MOL1         0.0921
      25    H17     21.068122   20.015963   26.439967 H          1 MOL1         0.0921
      26    N1      19.981278   19.153724   28.052262 N.4        1 MOL1        -0.5969
      27    H18     20.242215   18.183524   27.850383 H          1 MOL1         0.3603
      28    H19     19.040775   19.136298   28.460202 H          1 MOL1         0.3603
      29    H20     20.618700   19.490937   28.782011 H          1 MOL1         0.3603
@<TRIPOS>BOND
    1     1     2    1
    2     1     3    1
    3     1     4    1
    4     1     5    1
    5     5     6    1
    6     5     7    1
    7     5     8    1
    8     8     9    1
    9     8    10    1
   10     8    11    1
   11    11    12    1
   12    11    13    1
   13    11    14    1
   14    14    15    1
   15    14    16    1
   16    14    17    1
   17    17    18    1
   18    17    19    1
   19    17    20    1
   20    20    21    1
   21    20    22    1
   22    20    23    1
   23    23    24    1
   24    23    25    1
   25    23    26    1
   26    26    27    1
   27    26    28    1
   28    26    29    1
@<TRIPOS>SUBSTRUCTURE
       1 MOL1            1 RESIDUE      1      MOL     
@<SCITEGIC>MOL_PROPERTY
VM2 Rank
SciTegic.value.IntegerValue
88

@<SCITEGIC>MOL_PROPERTY
Conf_Id
SciTegic.value.IntegerValue
2638

@<SCITEGIC>MOL_PROPERTY
Probability
SciTegic.value.DoubleValue
0.35

@<SCITEGIC>MOL_PROPERTY
Sum Probability
SciTegic.value.DoubleValue
78.25

@<SCITEGIC>MOL_PROPERTY
Delta G
SciTegic.value.DoubleValue
1.621

@<SCITEGIC>MOL_PROPERTY
G
SciTegic.value.DoubleValue
59.767

@<SCITEGIC>MOL_PROPERTY
E
SciTegic.value.DoubleValue
22.035

@<SCITEGIC>MOL_PROPERTY
-TS
SciTegic.value.DoubleValue
37.732

@<SCITEGIC>MOL_PROPERTY
U+W
SciTegic.value.DoubleValue
-2.110

@<SCITEGIC>MOL_PROPERTY
U
SciTegic.value.DoubleValue
49.725

@<SCITEGIC>MOL_PROPERTY
W
SciTegic.value.DoubleValue
-51.835

@<SCITEGIC>MOL_PROPERTY
W(PB)
SciTegic.value.DoubleValue
-54.328

@<SCITEGIC>MOL_PROPERTY
W(SA)
SciTegic.value.DoubleValue
2.493

@<SCITEGIC>MOL_PROPERTY
Valence
SciTegic.value.DoubleValue
3.695

@<SCITEGIC>MOL_PROPERTY
Coulomb
SciTegic.value.DoubleValue
45.138

@<SCITEGIC>MOL_PROPERTY
VdW
SciTegic.value.DoubleValue
0.892

@<SCITEGIC>MOL_PROPERTY
VdW6
SciTegic.value.DoubleValue
-9.156

@<SCITEGIC>MOL_PROPERTY
VdW12
SciTegic.value.DoubleValue
10.048

@<SCITEGIC>MOL_PROPERTY
Bond
SciTegic.value.DoubleValue
0.255

@<SCITEGIC>MOL_PROPERTY
Angle
SciTegic.value.DoubleValue
1.154

@<SCITEGIC>MOL_PROPERTY
Pdih
SciTegic.value.DoubleValue
2.287

@<SCITEGIC>MOL_PROPERTY
Idih
SciTegic.value.DoubleValue
0.000

@<SCITEGIC>MOL_PROPERTY
Tether
SciTegic.value.DoubleValue
0.000

@<TRIPOS>MOLECULE
guest-3_vm2.mol2 : vm2 ligand conformer 89
          29          28           1
SMALL
USER_CHARGES
 
@<TRIPOS>ATOM
       1    C1      20.371878   20.329620   20.215781 C.3        1 MOL1        -0.2427
       2    H1      20.246081   21.004477   21.071447 H          1 MOL1         0.0958
       3    H2      21.384848   19.908451   20.254984 H          1 MOL1         0.0958
       4    H3      20.295357   20.935824   19.303864 H          1 MOL1         0.0958
       5    C2      19.304949   19.211455   20.212610 C.3        1 MOL1        -0.1412
       6    H4      19.393773   18.640438   19.277835 H          1 MOL1         0.0947
       7    H5      18.301032   19.658467   20.205621 H          1 MOL1         0.0947
       8    C3      19.434194   18.233620   21.405403 C.3        1 MOL1        -0.1437
       9    H6      18.716211   17.414219   21.262842 H          1 MOL1         0.0947
      10    H7      20.432533   17.774841   21.397268 H          1 MOL1         0.0947
      11    C4      19.176922   18.898636   22.778909 C.3        1 MOL1        -0.1437
      12    H8      18.197783   19.396705   22.766905 H          1 MOL1         0.0947
      13    H9      19.930736   19.675504   22.954386 H          1 MOL1         0.0947
      14    C5      19.217763   17.865667   23.930815 C.3        1 MOL1        -0.1437
      15    H10     18.512240   17.053545   23.707177 H          1 MOL1         0.0947
      16    H11     20.213618   17.403947   23.979624 H          1 MOL1         0.0947
      17    C6      18.853656   18.461330   25.313113 C.3        1 MOL1        -0.1437
      18    H12     18.779990   17.634591   26.031876 H          1 MOL1         0.0947
      19    H13     17.855651   18.918610   25.265196 H          1 MOL1         0.0947
      20    C7      19.879787   19.501179   25.829303 C.3        1 MOL1        -0.1477
      21    H14     20.884843   19.059458   25.852141 H          1 MOL1         0.0947
      22    H15     19.925734   20.352829   25.139434 H          1 MOL1         0.0947
      23    C8      19.524319   20.042356   27.227570 C.3        1 MOL1         0.0145
      24    H16     18.516085   20.465034   27.213501 H          1 MOL1         0.0921
      25    H17     20.224108   20.838301   27.496465 H          1 MOL1         0.0921
      26    N1      19.580530   18.994136   28.321495 N.4        1 MOL1        -0.5969
      27    H18     19.352475   19.389970   29.240134 H          1 MOL1         0.3603
      28    H19     20.512916   18.574656   28.398854 H          1 MOL1         0.3603
      29    H20     18.918019   18.231248   28.150461 H          1 MOL1         0.3603
@<TRIPOS>BOND
    1     1     2    1
    2     1     3    1
    3     1     4    1
    4     1     5    1
    5     5     6    1
    6     5     7    1
    7     5     8    1
    8     8     9    1
    9     8    10    1
   10     8    11    1
   11    11    12    1
   12    11    13    1
   13    11    14    1
   14    14    15    1
   15    14    16    1
   16    14    17    1
   17    17    18    1
   18    17    19    1
   19    17    20    1
   20    20    21    1
   21    20    22    1
   22    20    23    1
   23    23    24    1
   24    23    25    1
   25    23    26    1
   26    26    27    1
   27    26    28    1
   28    26    29    1
@<TRIPOS>SUBSTRUCTURE
       1 MOL1            1 RESIDUE      1      MOL     
@<SCITEGIC>MOL_PROPERTY
VM2 Rank
SciTegic.value.IntegerValue
89

@<SCITEGIC>MOL_PROPERTY
Conf_Id
SciTegic.value.IntegerValue
170

@<SCITEGIC>MOL_PROPERTY
Probability
SciTegic.value.DoubleValue
0.35

@<SCITEGIC>MOL_PROPERTY
Sum Probability
SciTegic.value.DoubleValue
78.60

@<SCITEGIC>MOL_PROPERTY
Delta G
SciTegic.value.DoubleValue
1.622

@<SCITEGIC>MOL_PROPERTY
G
SciTegic.value.DoubleValue
59.768

@<SCITEGIC>MOL_PROPERTY
E
SciTegic.value.DoubleValue
22.294

@<SCITEGIC>MOL_PROPERTY
-TS
SciTegic.value.DoubleValue
37.474

@<SCITEGIC>MOL_PROPERTY
U+W
SciTegic.value.DoubleValue
-1.851

@<SCITEGIC>MOL_PROPERTY
U
SciTegic.value.DoubleValue
49.690

@<SCITEGIC>MOL_PROPERTY
W
SciTegic.value.DoubleValue
-51.541

@<SCITEGIC>MOL_PROPERTY
W(PB)
SciTegic.value.DoubleValue
-54.029

@<SCITEGIC>MOL_PROPERTY
W(SA)
SciTegic.value.DoubleValue
2.489

@<SCITEGIC>MOL_PROPERTY
Valence
SciTegic.value.DoubleValue
3.753

@<SCITEGIC>MOL_PROPERTY
Coulomb
SciTegic.value.DoubleValue
44.825

@<SCITEGIC>MOL_PROPERTY
VdW
SciTegic.value.DoubleValue
1.112

@<SCITEGIC>MOL_PROPERTY
VdW6
SciTegic.value.DoubleValue
-8.728

@<SCITEGIC>MOL_PROPERTY
VdW12
SciTegic.value.DoubleValue
9.840

@<SCITEGIC>MOL_PROPERTY
Bond
SciTegic.value.DoubleValue
0.247

@<SCITEGIC>MOL_PROPERTY
Angle
SciTegic.value.DoubleValue
0.961

@<SCITEGIC>MOL_PROPERTY
Pdih
SciTegic.value.DoubleValue
2.544

@<SCITEGIC>MOL_PROPERTY
Idih
SciTegic.value.DoubleValue
0.000

@<SCITEGIC>MOL_PROPERTY
Tether
SciTegic.value.DoubleValue
0.000

@<TRIPOS>MOLECULE
guest-3_vm2.mol2 : vm2 ligand conformer 90
          29          28           1
SMALL
USER_CHARGES
 
@<TRIPOS>ATOM
       1    C1      19.271051   18.986523   19.266343 C.3        1 MOL1        -0.2427
       2    H1      18.319541   19.117954   18.734942 H          1 MOL1         0.0958
       3    H2      19.936982   19.808909   18.974000 H          1 MOL1         0.0958
       4    H3      19.720245   18.044776   18.924929 H          1 MOL1         0.0958
       5    C2      19.045098   18.972524   20.793002 C.3        1 MOL1        -0.1412
       6    H4      18.352906   18.159025   21.051356 H          1 MOL1         0.0947
       7    H5      18.558875   19.911261   21.089899 H          1 MOL1         0.0947
       8    C3      20.373894   18.792432   21.564146 C.3        1 MOL1        -0.1437
       9    H6      20.879995   17.888637   21.197677 H          1 MOL1         0.0947
      10    H7      21.046634   19.632819   21.344215 H          1 MOL1         0.0947
      11    C4      20.187090   18.663691   23.095752 C.3        1 MOL1        -0.1437
      12    H8      21.161561   18.431360   23.546866 H          1 MOL1         0.0947
      13    H9      19.534484   17.806485   23.307364 H          1 MOL1         0.0947
      14    C5      19.616644   19.944160   23.756314 C.3        1 MOL1        -0.1437
      15    H10     20.209417   20.810097   23.430853 H          1 MOL1         0.0947
      16    H11     18.590188   20.122737   23.409991 H          1 MOL1         0.0947
      17    C6      19.628553   19.894031   25.303649 C.3        1 MOL1        -0.1437
      18    H12     19.305251   20.871866   25.686871 H          1 MOL1         0.0947
      19    H13     20.659359   19.749476   25.653783 H          1 MOL1         0.0947
      20    C7      18.708771   18.794232   25.890054 C.3        1 MOL1        -0.1477
      21    H14     17.701697   18.896809   25.464554 H          1 MOL1         0.0947
      22    H15     19.071523   17.798509   25.605206 H          1 MOL1         0.0947
      23    C8      18.600243   18.870967   27.424934 C.3        1 MOL1         0.0145
      24    H16     17.882121   18.125002   27.776167 H          1 MOL1         0.0921
      25    H17     18.237351   19.859379   27.719428 H          1 MOL1         0.0921
      26    N1      19.912656   18.619440   28.140807 N.4        1 MOL1        -0.5969
      27    H18     20.624299   19.309391   27.880419 H          1 MOL1         0.3603
      28    H19     20.293751   17.693036   27.922278 H          1 MOL1         0.3603
      29    H20     19.805761   18.667366   29.160045 H          1 MOL1         0.3603
@<TRIPOS>BOND
    1     1     2    1
    2     1     3    1
    3     1     4    1
    4     1     5    1
    5     5     6    1
    6     5     7    1
    7     5     8    1
    8     8     9    1
    9     8    10    1
   10     8    11    1
   11    11    12    1
   12    11    13    1
   13    11    14    1
   14    14    15    1
   15    14    16    1
   16    14    17    1
   17    17    18    1
   18    17    19    1
   19    17    20    1
   20    20    21    1
   21    20    22    1
   22    20    23    1
   23    23    24    1
   24    23    25    1
   25    23    26    1
   26    26    27    1
   27    26    28    1
   28    26    29    1
@<TRIPOS>SUBSTRUCTURE
       1 MOL1            1 RESIDUE      1      MOL     
@<SCITEGIC>MOL_PROPERTY
VM2 Rank
SciTegic.value.IntegerValue
90

@<SCITEGIC>MOL_PROPERTY
Conf_Id
SciTegic.value.IntegerValue
2948

@<SCITEGIC>MOL_PROPERTY
Probability
SciTegic.value.DoubleValue
0.35

@<SCITEGIC>MOL_PROPERTY
Sum Probability
SciTegic.value.DoubleValue
78.94

@<SCITEGIC>MOL_PROPERTY
Delta G
SciTegic.value.DoubleValue
1.623

@<SCITEGIC>MOL_PROPERTY
G
SciTegic.value.DoubleValue
59.769

@<SCITEGIC>MOL_PROPERTY
E
SciTegic.value.DoubleValue
22.242

@<SCITEGIC>MOL_PROPERTY
-TS
SciTegic.value.DoubleValue
37.527

@<SCITEGIC>MOL_PROPERTY
U+W
SciTegic.value.DoubleValue
-1.902

@<SCITEGIC>MOL_PROPERTY
U
SciTegic.value.DoubleValue
49.798

@<SCITEGIC>MOL_PROPERTY
W
SciTegic.value.DoubleValue
-51.700

@<SCITEGIC>MOL_PROPERTY
W(PB)
SciTegic.value.DoubleValue
-54.200

@<SCITEGIC>MOL_PROPERTY
W(SA)
SciTegic.value.DoubleValue
2.500

@<SCITEGIC>MOL_PROPERTY
Valence
SciTegic.value.DoubleValue
3.728

@<SCITEGIC>MOL_PROPERTY
Coulomb
SciTegic.value.DoubleValue
45.048

@<SCITEGIC>MOL_PROPERTY
VdW
SciTegic.value.DoubleValue
1.022

@<SCITEGIC>MOL_PROPERTY
VdW6
SciTegic.value.DoubleValue
-8.813

@<SCITEGIC>MOL_PROPERTY
VdW12
SciTegic.value.DoubleValue
9.835

@<SCITEGIC>MOL_PROPERTY
Bond
SciTegic.value.DoubleValue
0.243

@<SCITEGIC>MOL_PROPERTY
Angle
SciTegic.value.DoubleValue
0.890

@<SCITEGIC>MOL_PROPERTY
Pdih
SciTegic.value.DoubleValue
2.595

@<SCITEGIC>MOL_PROPERTY
Idih
SciTegic.value.DoubleValue
0.000

@<SCITEGIC>MOL_PROPERTY
Tether
SciTegic.value.DoubleValue
0.000

@<TRIPOS>MOLECULE
guest-3_vm2.mol2 : vm2 ligand conformer 91
          29          28           1
SMALL
USER_CHARGES
 
@<TRIPOS>ATOM
       1    C1      20.048000   17.737060   19.952927 C.3        1 MOL1        -0.2427
       2    H1      21.017005   18.187296   19.700824 H          1 MOL1         0.0958
       3    H2      20.234879   16.836401   20.552194 H          1 MOL1         0.0958
       4    H3      19.567346   17.425212   19.016575 H          1 MOL1         0.0958
       5    C2      19.154457   18.736481   20.717493 C.3        1 MOL1        -0.1412
       6    H4      18.181618   18.269885   20.926625 H          1 MOL1         0.0947
       7    H5      18.957016   19.609938   20.080359 H          1 MOL1         0.0947
       8    C3      19.808800   19.192342   22.040295 C.3        1 MOL1        -0.1437
       9    H6      20.009135   18.310429   22.662743 H          1 MOL1         0.0947
      10    H7      20.779433   19.660759   21.826817 H          1 MOL1         0.0947
      11    C4      18.911374   20.189727   22.811188 C.3        1 MOL1        -0.1437
      12    H8      17.956266   19.711396   23.064948 H          1 MOL1         0.0947
      13    H9      18.659942   21.029354   22.148604 H          1 MOL1         0.0947
      14    C5      19.575273   20.762348   24.090292 C.3        1 MOL1        -0.1437
      15    H10     20.458478   21.347693   23.799574 H          1 MOL1         0.0947
      16    H11     18.882886   21.476510   24.556920 H          1 MOL1         0.0947
      17    C6      20.002180   19.712397   25.148756 C.3        1 MOL1        -0.1437
      18    H12     20.465564   20.247453   25.988050 H          1 MOL1         0.0947
      19    H13     20.785160   19.061503   24.737644 H          1 MOL1         0.0947
      20    C7      18.827576   18.849910   25.674443 C.3        1 MOL1        -0.1477
      21    H14     18.032689   19.496499   26.069130 H          1 MOL1         0.0947
      22    H15     18.387851   18.278928   24.847158 H          1 MOL1         0.0947
      23    C8      19.265250   17.849684   26.761646 C.3        1 MOL1         0.0145
      24    H16     20.070316   17.217346   26.377728 H          1 MOL1         0.0921
      25    H17     18.420818   17.205984   27.022628 H          1 MOL1         0.0921
      26    N1      19.751091   18.508051   28.037959 N.4        1 MOL1        -0.5969
      27    H18     20.569565   19.101618   27.870894 H          1 MOL1         0.3603
      28    H19     20.021280   17.815257   28.744774 H          1 MOL1         0.3603
      29    H20     19.027913   19.100173   28.459472 H          1 MOL1         0.3603
@<TRIPOS>BOND
    1     1     2    1
    2     1     3    1
    3     1     4    1
    4     1     5    1
    5     5     6    1
    6     5     7    1
    7     5     8    1
    8     8     9    1
    9     8    10    1
   10     8    11    1
   11    11    12    1
   12    11    13    1
   13    11    14    1
   14    14    15    1
   15    14    16    1
   16    14    17    1
   17    17    18    1
   18    17    19    1
   19    17    20    1
   20    20    21    1
   21    20    22    1
   22    20    23    1
   23    23    24    1
   24    23    25    1
   25    23    26    1
   26    26    27    1
   27    26    28    1
   28    26    29    1
@<TRIPOS>SUBSTRUCTURE
       1 MOL1            1 RESIDUE      1      MOL     
@<SCITEGIC>MOL_PROPERTY
VM2 Rank
SciTegic.value.IntegerValue
91

@<SCITEGIC>MOL_PROPERTY
Conf_Id
SciTegic.value.IntegerValue
2637

@<SCITEGIC>MOL_PROPERTY
Probability
SciTegic.value.DoubleValue
0.34

@<SCITEGIC>MOL_PROPERTY
Sum Probability
SciTegic.value.DoubleValue
79.29

@<SCITEGIC>MOL_PROPERTY
Delta G
SciTegic.value.DoubleValue
1.628

@<SCITEGIC>MOL_PROPERTY
G
SciTegic.value.DoubleValue
59.774

@<SCITEGIC>MOL_PROPERTY
E
SciTegic.value.DoubleValue
22.042

@<SCITEGIC>MOL_PROPERTY
-TS
SciTegic.value.DoubleValue
37.732

@<SCITEGIC>MOL_PROPERTY
U+W
SciTegic.value.DoubleValue
-2.102

@<SCITEGIC>MOL_PROPERTY
U
SciTegic.value.DoubleValue
49.725

@<SCITEGIC>MOL_PROPERTY
W
SciTegic.value.DoubleValue
-51.827

@<SCITEGIC>MOL_PROPERTY
W(PB)
SciTegic.value.DoubleValue
-54.310

@<SCITEGIC>MOL_PROPERTY
W(SA)
SciTegic.value.DoubleValue
2.482

@<SCITEGIC>MOL_PROPERTY
Valence
SciTegic.value.DoubleValue
3.695

@<SCITEGIC>MOL_PROPERTY
Coulomb
SciTegic.value.DoubleValue
45.138

@<SCITEGIC>MOL_PROPERTY
VdW
SciTegic.value.DoubleValue
0.892

@<SCITEGIC>MOL_PROPERTY
VdW6
SciTegic.value.DoubleValue
-9.155

@<SCITEGIC>MOL_PROPERTY
VdW12
SciTegic.value.DoubleValue
10.047

@<SCITEGIC>MOL_PROPERTY
Bond
SciTegic.value.DoubleValue
0.255

@<SCITEGIC>MOL_PROPERTY
Angle
SciTegic.value.DoubleValue
1.154

@<SCITEGIC>MOL_PROPERTY
Pdih
SciTegic.value.DoubleValue
2.287

@<SCITEGIC>MOL_PROPERTY
Idih
SciTegic.value.DoubleValue
0.000

@<SCITEGIC>MOL_PROPERTY
Tether
SciTegic.value.DoubleValue
0.000

@<TRIPOS>MOLECULE
guest-3_vm2.mol2 : vm2 ligand conformer 92
          29          28           1
SMALL
USER_CHARGES
 
@<TRIPOS>ATOM
       1    C1      20.812381   19.088360   19.928241 C.3        1 MOL1        -0.2427
       2    H1      21.626762   18.493652   20.362213 H          1 MOL1         0.0958
       3    H2      20.155273   18.410783   19.367581 H          1 MOL1         0.0958
       4    H3      21.254710   19.795846   19.214912 H          1 MOL1         0.0958
       5    C2      20.028376   19.839195   21.025233 C.3        1 MOL1        -0.1412
       6    H4      19.243967   20.451202   20.558333 H          1 MOL1         0.0947
       7    H5      20.703513   20.532320   21.546410 H          1 MOL1         0.0947
       8    C3      19.394363   18.865473   22.042869 C.3        1 MOL1        -0.1437
       9    H6      18.718460   18.176058   21.518494 H          1 MOL1         0.0947
      10    H7      20.186269   18.254119   22.494968 H          1 MOL1         0.0947
      11    C4      18.612161   19.617134   23.146222 C.3        1 MOL1        -0.1437
      12    H8      17.867202   20.271503   22.672941 H          1 MOL1         0.0947
      13    H9      19.291162   20.281890   23.696341 H          1 MOL1         0.0947
      14    C5      17.876261   18.675340   24.133760 C.3        1 MOL1        -0.1437
      15    H10     17.306438   19.286113   24.846913 H          1 MOL1         0.0947
      16    H11     17.126772   18.094461   23.578796 H          1 MOL1         0.0947
      17    C6      18.787863   17.690708   24.914766 C.3        1 MOL1        -0.1437
      18    H12     19.223388   16.961493   24.218796 H          1 MOL1         0.0947
      19    H13     18.161891   17.105236   25.602293 H          1 MOL1         0.0947
      20    C7      19.925675   18.361348   25.723525 C.3        1 MOL1        -0.1477
      21    H14     20.493446   17.582471   26.249567 H          1 MOL1         0.0947
      22    H15     20.632897   18.850882   25.041841 H          1 MOL1         0.0947
      23    C8      19.401729   19.382893   26.749585 C.3        1 MOL1         0.0145
      24    H16     18.708567   18.891139   27.437335 H          1 MOL1         0.0921
      25    H17     18.865214   20.182758   26.232586 H          1 MOL1         0.0921
      26    N1      20.505190   20.017549   27.570799 N.4        1 MOL1        -0.5969
      27    H18     20.135217   20.694273   28.247377 H          1 MOL1         0.3603
      28    H19     21.178248   20.519912   26.982662 H          1 MOL1         0.3603
      29    H20     21.032809   19.319215   28.104999 H          1 MOL1         0.3603
@<TRIPOS>BOND
    1     1     2    1
    2     1     3    1
    3     1     4    1
    4     1     5    1
    5     5     6    1
    6     5     7    1
    7     5     8    1
    8     8     9    1
    9     8    10    1
   10     8    11    1
   11    11    12    1
   12    11    13    1
   13    11    14    1
   14    14    15    1
   15    14    16    1
   16    14    17    1
   17    17    18    1
   18    17    19    1
   19    17    20    1
   20    20    21    1
   21    20    22    1
   22    20    23    1
   23    23    24    1
   24    23    25    1
   25    23    26    1
   26    26    27    1
   27    26    28    1
   28    26    29    1
@<TRIPOS>SUBSTRUCTURE
       1 MOL1            1 RESIDUE      1      MOL     
@<SCITEGIC>MOL_PROPERTY
VM2 Rank
SciTegic.value.IntegerValue
92

@<SCITEGIC>MOL_PROPERTY
Conf_Id
SciTegic.value.IntegerValue
775

@<SCITEGIC>MOL_PROPERTY
Probability
SciTegic.value.DoubleValue
0.34

@<SCITEGIC>MOL_PROPERTY
Sum Probability
SciTegic.value.DoubleValue
79.63

@<SCITEGIC>MOL_PROPERTY
Delta G
SciTegic.value.DoubleValue
1.636

@<SCITEGIC>MOL_PROPERTY
G
SciTegic.value.DoubleValue
59.782

@<SCITEGIC>MOL_PROPERTY
E
SciTegic.value.DoubleValue
21.903

@<SCITEGIC>MOL_PROPERTY
-TS
SciTegic.value.DoubleValue
37.879

@<SCITEGIC>MOL_PROPERTY
U+W
SciTegic.value.DoubleValue
-2.241

@<SCITEGIC>MOL_PROPERTY
U
SciTegic.value.DoubleValue
50.029

@<SCITEGIC>MOL_PROPERTY
W
SciTegic.value.DoubleValue
-52.270

@<SCITEGIC>MOL_PROPERTY
W(PB)
SciTegic.value.DoubleValue
-54.754

@<SCITEGIC>MOL_PROPERTY
W(SA)
SciTegic.value.DoubleValue
2.484

@<SCITEGIC>MOL_PROPERTY
Valence
SciTegic.value.DoubleValue
3.797

@<SCITEGIC>MOL_PROPERTY
Coulomb
SciTegic.value.DoubleValue
45.604

@<SCITEGIC>MOL_PROPERTY
VdW
SciTegic.value.DoubleValue
0.628

@<SCITEGIC>MOL_PROPERTY
VdW6
SciTegic.value.DoubleValue
-9.561

@<SCITEGIC>MOL_PROPERTY
VdW12
SciTegic.value.DoubleValue
10.189

@<SCITEGIC>MOL_PROPERTY
Bond
SciTegic.value.DoubleValue
0.256

@<SCITEGIC>MOL_PROPERTY
Angle
SciTegic.value.DoubleValue
1.236

@<SCITEGIC>MOL_PROPERTY
Pdih
SciTegic.value.DoubleValue
2.305

@<SCITEGIC>MOL_PROPERTY
Idih
SciTegic.value.DoubleValue
0.000

@<SCITEGIC>MOL_PROPERTY
Tether
SciTegic.value.DoubleValue
0.000

@<TRIPOS>MOLECULE
guest-3_vm2.mol2 : vm2 ligand conformer 93
          29          28           1
SMALL
USER_CHARGES
 
@<TRIPOS>ATOM
       1    C1      20.306721   19.203681   19.378352 C.3        1 MOL1        -0.2427
       2    H1      21.300223   19.577331   19.658670 H          1 MOL1         0.0958
       3    H2      20.378892   18.118344   19.229744 H          1 MOL1         0.0958
       4    H3      20.034594   19.658214   18.416900 H          1 MOL1         0.0958
       5    C2      19.259714   19.546935   20.459044 C.3        1 MOL1        -0.1412
       6    H4      18.271612   19.191637   20.134569 H          1 MOL1         0.0947
       7    H5      19.186191   20.638676   20.561965 H          1 MOL1         0.0947
       8    C3      19.618711   18.917979   21.823492 C.3        1 MOL1        -0.1437
       9    H6      19.688762   17.826777   21.716055 H          1 MOL1         0.0947
      10    H7      20.610836   19.273465   22.130365 H          1 MOL1         0.0947
      11    C4      18.571368   19.265334   22.908745 C.3        1 MOL1        -0.1437
      12    H8      17.574829   18.976377   22.547143 H          1 MOL1         0.0947
      13    H9      18.540588   20.353144   23.060095 H          1 MOL1         0.0947
      14    C5      18.822379   18.559466   24.264003 C.3        1 MOL1        -0.1437
      15    H10     17.960767   18.758529   24.914613 H          1 MOL1         0.0947
      16    H11     18.849348   17.471660   24.112038 H          1 MOL1         0.0947
      17    C6      20.122203   19.020898   24.970869 C.3        1 MOL1        -0.1437
      18    H12     20.110551   20.111861   25.095152 H          1 MOL1         0.0947
      19    H13     20.987463   18.794653   24.334708 H          1 MOL1         0.0947
      20    C7      20.345428   18.336095   26.342853 C.3        1 MOL1        -0.1477
      21    H14     20.430748   17.251198   26.195964 H          1 MOL1         0.0947
      22    H15     21.306954   18.664818   26.759055 H          1 MOL1         0.0947
      23    C8      19.231898   18.609890   27.374163 C.3        1 MOL1         0.0145
      24    H16     19.457862   18.077402   28.301993 H          1 MOL1         0.0921
      25    H17     18.276167   18.239299   26.995083 H          1 MOL1         0.0921
      26    N1      19.065578   20.077722   27.713479 N.4        1 MOL1        -0.5969
      27    H18     18.323957   20.227317   28.406341 H          1 MOL1         0.3603
      28    H19     18.821439   20.630111   26.885470 H          1 MOL1         0.3603
      29    H20     19.925635   20.477575   28.102809 H          1 MOL1         0.3603
@<TRIPOS>BOND
    1     1     2    1
    2     1     3    1
    3     1     4    1
    4     1     5    1
    5     5     6    1
    6     5     7    1
    7     5     8    1
    8     8     9    1
    9     8    10    1
   10     8    11    1
   11    11    12    1
   12    11    13    1
   13    11    14    1
   14    14    15    1
   15    14    16    1
   16    14    17    1
   17    17    18    1
   18    17    19    1
   19    17    20    1
   20    20    21    1
   21    20    22    1
   22    20    23    1
   23    23    24    1
   24    23    25    1
   25    23    26    1
   26    26    27    1
   27    26    28    1
   28    26    29    1
@<TRIPOS>SUBSTRUCTURE
       1 MOL1            1 RESIDUE      1      MOL     
@<SCITEGIC>MOL_PROPERTY
VM2 Rank
SciTegic.value.IntegerValue
93

@<SCITEGIC>MOL_PROPERTY
Conf_Id
SciTegic.value.IntegerValue
1652

@<SCITEGIC>MOL_PROPERTY
Probability
SciTegic.value.DoubleValue
0.33

@<SCITEGIC>MOL_PROPERTY
Sum Probability
SciTegic.value.DoubleValue
79.96

@<SCITEGIC>MOL_PROPERTY
Delta G
SciTegic.value.DoubleValue
1.648

@<SCITEGIC>MOL_PROPERTY
G
SciTegic.value.DoubleValue
59.794

@<SCITEGIC>MOL_PROPERTY
E
SciTegic.value.DoubleValue
22.252

@<SCITEGIC>MOL_PROPERTY
-TS
SciTegic.value.DoubleValue
37.542

@<SCITEGIC>MOL_PROPERTY
U+W
SciTegic.value.DoubleValue
-1.893

@<SCITEGIC>MOL_PROPERTY
U
SciTegic.value.DoubleValue
49.850

@<SCITEGIC>MOL_PROPERTY
W
SciTegic.value.DoubleValue
-51.742

@<SCITEGIC>MOL_PROPERTY
W(PB)
SciTegic.value.DoubleValue
-54.215

@<SCITEGIC>MOL_PROPERTY
W(SA)
SciTegic.value.DoubleValue
2.472

@<SCITEGIC>MOL_PROPERTY
Valence
SciTegic.value.DoubleValue
3.555

@<SCITEGIC>MOL_PROPERTY
Coulomb
SciTegic.value.DoubleValue
45.336

@<SCITEGIC>MOL_PROPERTY
VdW
SciTegic.value.DoubleValue
0.959

@<SCITEGIC>MOL_PROPERTY
VdW6
SciTegic.value.DoubleValue
-8.885

@<SCITEGIC>MOL_PROPERTY
VdW12
SciTegic.value.DoubleValue
9.844

@<SCITEGIC>MOL_PROPERTY
Bond
SciTegic.value.DoubleValue
0.239

@<SCITEGIC>MOL_PROPERTY
Angle
SciTegic.value.DoubleValue
0.939

@<SCITEGIC>MOL_PROPERTY
Pdih
SciTegic.value.DoubleValue
2.377

@<SCITEGIC>MOL_PROPERTY
Idih
SciTegic.value.DoubleValue
0.000

@<SCITEGIC>MOL_PROPERTY
Tether
SciTegic.value.DoubleValue
0.000

@<TRIPOS>MOLECULE
guest-3_vm2.mol2 : vm2 ligand conformer 94
          29          28           1
SMALL
USER_CHARGES
 
@<TRIPOS>ATOM
       1    C1      21.315973   19.164489   20.364158 C.3        1 MOL1        -0.2427
       2    H1      22.121274   19.261026   21.104018 H          1 MOL1         0.0958
       3    H2      21.270001   18.115528   20.043522 H          1 MOL1         0.0958
       4    H3      21.585848   19.772424   19.490880 H          1 MOL1         0.0958
       5    C2      19.964953   19.624335   20.951615 C.3        1 MOL1        -0.1412
       6    H4      19.187115   19.549114   20.178856 H          1 MOL1         0.0947
       7    H5      20.031501   20.684726   21.232689 H          1 MOL1         0.0947
       8    C3      19.561012   18.783400   22.182605 C.3        1 MOL1        -0.1437
       9    H6      19.492437   17.724730   21.896905 H          1 MOL1         0.0947
      10    H7      20.350142   18.859439   22.941970 H          1 MOL1         0.0947
      11    C4      18.209789   19.247525   22.776958 C.3        1 MOL1        -0.1437
      12    H8      17.448234   19.235194   21.985076 H          1 MOL1         0.0947
      13    H9      18.287015   20.292913   23.103742 H          1 MOL1         0.0947
      14    C5      17.709088   18.361712   23.947057 C.3        1 MOL1        -0.1437
      15    H10     16.735186   18.741850   24.284952 H          1 MOL1         0.0947
      16    H11     17.520460   17.347129   23.569936 H          1 MOL1         0.0947
      17    C6      18.663171   18.270415   25.165857 C.3        1 MOL1        -0.1437
      18    H12     19.594534   17.771210   24.869819 H          1 MOL1         0.0947
      19    H13     18.198540   17.620787   25.920529 H          1 MOL1         0.0947
      20    C7      18.974931   19.644398   25.809259 C.3        1 MOL1        -0.1477
      21    H14     19.528757   20.279774   25.106464 H          1 MOL1         0.0947
      22    H15     18.033391   20.164319   26.030359 H          1 MOL1         0.0947
      23    C8      19.781276   19.516370   27.115651 C.3        1 MOL1         0.0145
      24    H16     19.238162   18.883984   27.823094 H          1 MOL1         0.0921
      25    H17     19.903177   20.505367   27.565691 H          1 MOL1         0.0921
      26    N1      21.163808   18.925357   26.921840 N.4        1 MOL1        -0.5969
      27    H18     21.733035   19.490684   26.283496 H          1 MOL1         0.3603
      28    H19     21.119591   17.978477   26.532463 H          1 MOL1         0.3603
      29    H20     21.678183   18.862785   27.807322 H          1 MOL1         0.3603
@<TRIPOS>BOND
    1     1     2    1
    2     1     3    1
    3     1     4    1
    4     1     5    1
    5     5     6    1
    6     5     7    1
    7     5     8    1
    8     8     9    1
    9     8    10    1
   10     8    11    1
   11    11    12    1
   12    11    13    1
   13    11    14    1
   14    14    15    1
   15    14    16    1
   16    14    17    1
   17    17    18    1
   18    17    19    1
   19    17    20    1
   20    20    21    1
   21    20    22    1
   22    20    23    1
   23    23    24    1
   24    23    25    1
   25    23    26    1
   26    26    27    1
   27    26    28    1
   28    26    29    1
@<TRIPOS>SUBSTRUCTURE
       1 MOL1            1 RESIDUE      1      MOL     
@<SCITEGIC>MOL_PROPERTY
VM2 Rank
SciTegic.value.IntegerValue
94

@<SCITEGIC>MOL_PROPERTY
Conf_Id
SciTegic.value.IntegerValue
1172

@<SCITEGIC>MOL_PROPERTY
Probability
SciTegic.value.DoubleValue
0.32

@<SCITEGIC>MOL_PROPERTY
Sum Probability
SciTegic.value.DoubleValue
80.28

@<SCITEGIC>MOL_PROPERTY
Delta G
SciTegic.value.DoubleValue
1.665

@<SCITEGIC>MOL_PROPERTY
G
SciTegic.value.DoubleValue
59.812

@<SCITEGIC>MOL_PROPERTY
E
SciTegic.value.DoubleValue
22.066

@<SCITEGIC>MOL_PROPERTY
-TS
SciTegic.value.DoubleValue
37.746

@<SCITEGIC>MOL_PROPERTY
U+W
SciTegic.value.DoubleValue
-2.079

@<SCITEGIC>MOL_PROPERTY
U
SciTegic.value.DoubleValue
50.322

@<SCITEGIC>MOL_PROPERTY
W
SciTegic.value.DoubleValue
-52.401

@<SCITEGIC>MOL_PROPERTY
W(PB)
SciTegic.value.DoubleValue
-54.871

@<SCITEGIC>MOL_PROPERTY
W(SA)
SciTegic.value.DoubleValue
2.470

@<SCITEGIC>MOL_PROPERTY
Valence
SciTegic.value.DoubleValue
3.655

@<SCITEGIC>MOL_PROPERTY
Coulomb
SciTegic.value.DoubleValue
45.884

@<SCITEGIC>MOL_PROPERTY
VdW
SciTegic.value.DoubleValue
0.784

@<SCITEGIC>MOL_PROPERTY
VdW6
SciTegic.value.DoubleValue
-9.261

@<SCITEGIC>MOL_PROPERTY
VdW12
SciTegic.value.DoubleValue
10.045

@<SCITEGIC>MOL_PROPERTY
Bond
SciTegic.value.DoubleValue
0.250

@<SCITEGIC>MOL_PROPERTY
Angle
SciTegic.value.DoubleValue
1.077

@<SCITEGIC>MOL_PROPERTY
Pdih
SciTegic.value.DoubleValue
2.328

@<SCITEGIC>MOL_PROPERTY
Idih
SciTegic.value.DoubleValue
0.000

@<SCITEGIC>MOL_PROPERTY
Tether
SciTegic.value.DoubleValue
0.000

@<TRIPOS>MOLECULE
guest-3_vm2.mol2 : vm2 ligand conformer 95
          29          28           1
SMALL
USER_CHARGES
 
@<TRIPOS>ATOM
       1    C1      20.094445   18.607592   19.365026 C.3        1 MOL1        -0.2427
       2    H1      20.838148   19.408102   19.258542 H          1 MOL1         0.0958
       3    H2      20.624435   17.679571   19.616276 H          1 MOL1         0.0958
       4    H3      19.609955   18.465729   18.390251 H          1 MOL1         0.0958
       5    C2      19.050868   18.960491   20.445929 C.3        1 MOL1        -0.1412
       6    H4      18.302686   18.157713   20.506498 H          1 MOL1         0.0947
       7    H5      18.514131   19.872674   20.149785 H          1 MOL1         0.0947
       8    C3      19.707192   19.166454   21.829040 C.3        1 MOL1        -0.1437
       9    H6      20.247127   18.252257   22.107545 H          1 MOL1         0.0947
      10    H7      20.452455   19.971140   21.763971 H          1 MOL1         0.0947
      11    C4      18.660725   19.516296   22.914341 C.3        1 MOL1        -0.1437
      12    H8      17.947399   18.687697   23.022848 H          1 MOL1         0.0947
      13    H9      18.076135   20.383976   22.578589 H          1 MOL1         0.0947
      14    C5      19.282106   19.850346   24.292846 C.3        1 MOL1        -0.1437
      15    H10     19.992516   20.681348   24.183763 H          1 MOL1         0.0947
      16    H11     18.479430   20.214906   24.947141 H          1 MOL1         0.0947
      17    C6      19.987822   18.643820   24.962459 C.3        1 MOL1        -0.1437
      18    H12     20.810215   18.297326   24.323574 H          1 MOL1         0.0947
      19    H13     19.287636   17.801842   25.043665 H          1 MOL1         0.0947
      20    C7      20.574283   18.978510   26.357151 C.3        1 MOL1        -0.1477
      21    H14     21.105800   18.099991   26.746389 H          1 MOL1         0.0947
      22    H15     21.328038   19.770135   26.252079 H          1 MOL1         0.0947
      23    C8      19.523915   19.429450   27.392472 C.3        1 MOL1         0.0145
      24    H16     19.022882   20.335289   27.041927 H          1 MOL1         0.0921
      25    H17     20.022481   19.662022   28.337362 H          1 MOL1         0.0921
      26    N1      18.462643   18.385042   27.675737 N.4        1 MOL1        -0.5969
      27    H18     18.870910   17.516573   28.036625 H          1 MOL1         0.3603
      28    H19     17.935946   18.144671   26.830072 H          1 MOL1         0.3603
      29    H20     17.783766   18.710456   28.372636 H          1 MOL1         0.3603
@<TRIPOS>BOND
    1     1     2    1
    2     1     3    1
    3     1     4    1
    4     1     5    1
    5     5     6    1
    6     5     7    1
    7     5     8    1
    8     8     9    1
    9     8    10    1
   10     8    11    1
   11    11    12    1
   12    11    13    1
   13    11    14    1
   14    14    15    1
   15    14    16    1
   16    14    17    1
   17    17    18    1
   18    17    19    1
   19    17    20    1
   20    20    21    1
   21    20    22    1
   22    20    23    1
   23    23    24    1
   24    23    25    1
   25    23    26    1
   26    26    27    1
   27    26    28    1
   28    26    29    1
@<TRIPOS>SUBSTRUCTURE
       1 MOL1            1 RESIDUE      1      MOL     
@<SCITEGIC>MOL_PROPERTY
VM2 Rank
SciTegic.value.IntegerValue
95

@<SCITEGIC>MOL_PROPERTY
Conf_Id
SciTegic.value.IntegerValue
1051

@<SCITEGIC>MOL_PROPERTY
Probability
SciTegic.value.DoubleValue
0.32

@<SCITEGIC>MOL_PROPERTY
Sum Probability
SciTegic.value.DoubleValue
80.61

@<SCITEGIC>MOL_PROPERTY
Delta G
SciTegic.value.DoubleValue
1.665

@<SCITEGIC>MOL_PROPERTY
G
SciTegic.value.DoubleValue
59.812

@<SCITEGIC>MOL_PROPERTY
E
SciTegic.value.DoubleValue
22.270

@<SCITEGIC>MOL_PROPERTY
-TS
SciTegic.value.DoubleValue
37.542

@<SCITEGIC>MOL_PROPERTY
U+W
SciTegic.value.DoubleValue
-1.874

@<SCITEGIC>MOL_PROPERTY
U
SciTegic.value.DoubleValue
49.850

@<SCITEGIC>MOL_PROPERTY
W
SciTegic.value.DoubleValue
-51.724

@<SCITEGIC>MOL_PROPERTY
W(PB)
SciTegic.value.DoubleValue
-54.202

@<SCITEGIC>MOL_PROPERTY
W(SA)
SciTegic.value.DoubleValue
2.478

@<SCITEGIC>MOL_PROPERTY
Valence
SciTegic.value.DoubleValue
3.555

@<SCITEGIC>MOL_PROPERTY
Coulomb
SciTegic.value.DoubleValue
45.336

@<SCITEGIC>MOL_PROPERTY
VdW
SciTegic.value.DoubleValue
0.959

@<SCITEGIC>MOL_PROPERTY
VdW6
SciTegic.value.DoubleValue
-8.885

@<SCITEGIC>MOL_PROPERTY
VdW12
SciTegic.value.DoubleValue
9.844

@<SCITEGIC>MOL_PROPERTY
Bond
SciTegic.value.DoubleValue
0.239

@<SCITEGIC>MOL_PROPERTY
Angle
SciTegic.value.DoubleValue
0.938

@<SCITEGIC>MOL_PROPERTY
Pdih
SciTegic.value.DoubleValue
2.377

@<SCITEGIC>MOL_PROPERTY
Idih
SciTegic.value.DoubleValue
0.000

@<SCITEGIC>MOL_PROPERTY
Tether
SciTegic.value.DoubleValue
0.000

@<TRIPOS>MOLECULE
guest-3_vm2.mol2 : vm2 ligand conformer 96
          29          28           1
SMALL
USER_CHARGES
 
@<TRIPOS>ATOM
       1    C1      18.931630   20.126979   19.922573 C.3        1 MOL1        -0.2427
       2    H1      18.428828   20.668276   20.733539 H          1 MOL1         0.0958
       3    H2      19.885631   20.628161   19.713460 H          1 MOL1         0.0958
       4    H3      18.302553   20.215348   19.027375 H          1 MOL1         0.0958
       5    C2      19.152408   18.640602   20.283694 C.3        1 MOL1        -0.1412
       6    H4      19.544466   18.116247   19.401031 H          1 MOL1         0.0947
       7    H5      18.187312   18.169840   20.517536 H          1 MOL1         0.0947
       8    C3      20.134993   18.433257   21.461414 C.3        1 MOL1        -0.1437
       9    H6      20.316827   17.355970   21.578442 H          1 MOL1         0.0947
      10    H7      21.105082   18.885487   21.213163 H          1 MOL1         0.0947
      11    C4      19.619170   19.006713   22.802986 C.3        1 MOL1        -0.1437
      12    H8      18.623615   18.593251   23.009419 H          1 MOL1         0.0947
      13    H9      19.505455   20.095755   22.724082 H          1 MOL1         0.0947
      14    C5      20.580908   18.680522   23.970902 C.3        1 MOL1        -0.1437
      15    H10     20.651932   17.591752   24.100537 H          1 MOL1         0.0947
      16    H11     21.590290   19.026131   23.708045 H          1 MOL1         0.0947
      17    C6      20.173462   19.336759   25.313043 C.3        1 MOL1        -0.1437
      18    H12     20.111022   20.426389   25.185652 H          1 MOL1         0.0947
      19    H13     20.977376   19.156544   26.038849 H          1 MOL1         0.0947
      20    C7      18.836224   18.800757   25.883131 C.3        1 MOL1        -0.1477
      21    H14     18.020127   19.016414   25.182511 H          1 MOL1         0.0947
      22    H15     18.881883   17.708581   25.987249 H          1 MOL1         0.0947
      23    C8      18.474508   19.431917   27.241500 C.3        1 MOL1         0.0145
      24    H16     17.481096   19.091381   27.545975 H          1 MOL1         0.0921
      25    H17     18.447406   20.520750   27.146112 H          1 MOL1         0.0921
      26    N1      19.440696   19.080492   28.355758 N.4        1 MOL1        -0.5969
      27    H18     19.493033   18.067978   28.508626 H          1 MOL1         0.3603
      28    H19     19.163551   19.504674   29.247863 H          1 MOL1         0.3603
      29    H20     20.390658   19.405757   28.150947 H          1 MOL1         0.3603
@<TRIPOS>BOND
    1     1     2    1
    2     1     3    1
    3     1     4    1
    4     1     5    1
    5     5     6    1
    6     5     7    1
    7     5     8    1
    8     8     9    1
    9     8    10    1
   10     8    11    1
   11    11    12    1
   12    11    13    1
   13    11    14    1
   14    14    15    1
   15    14    16    1
   16    14    17    1
   17    17    18    1
   18    17    19    1
   19    17    20    1
   20    20    21    1
   21    20    22    1
   22    20    23    1
   23    23    24    1
   24    23    25    1
   25    23    26    1
   26    26    27    1
   27    26    28    1
   28    26    29    1
@<TRIPOS>SUBSTRUCTURE
       1 MOL1            1 RESIDUE      1      MOL     
@<SCITEGIC>MOL_PROPERTY
VM2 Rank
SciTegic.value.IntegerValue
96

@<SCITEGIC>MOL_PROPERTY
Conf_Id
SciTegic.value.IntegerValue
2863

@<SCITEGIC>MOL_PROPERTY
Probability
SciTegic.value.DoubleValue
0.32

@<SCITEGIC>MOL_PROPERTY
Sum Probability
SciTegic.value.DoubleValue
80.93

@<SCITEGIC>MOL_PROPERTY
Delta G
SciTegic.value.DoubleValue
1.668

@<SCITEGIC>MOL_PROPERTY
G
SciTegic.value.DoubleValue
59.815

@<SCITEGIC>MOL_PROPERTY
E
SciTegic.value.DoubleValue
22.333

@<SCITEGIC>MOL_PROPERTY
-TS
SciTegic.value.DoubleValue
37.482

@<SCITEGIC>MOL_PROPERTY
U+W
SciTegic.value.DoubleValue
-1.812

@<SCITEGIC>MOL_PROPERTY
U
SciTegic.value.DoubleValue
49.648

@<SCITEGIC>MOL_PROPERTY
W
SciTegic.value.DoubleValue
-51.459

@<SCITEGIC>MOL_PROPERTY
W(PB)
SciTegic.value.DoubleValue
-53.952

@<SCITEGIC>MOL_PROPERTY
W(SA)
SciTegic.value.DoubleValue
2.493

@<SCITEGIC>MOL_PROPERTY
Valence
SciTegic.value.DoubleValue
3.752

@<SCITEGIC>MOL_PROPERTY
Coulomb
SciTegic.value.DoubleValue
44.787

@<SCITEGIC>MOL_PROPERTY
VdW
SciTegic.value.DoubleValue
1.108

@<SCITEGIC>MOL_PROPERTY
VdW6
SciTegic.value.DoubleValue
-8.715

@<SCITEGIC>MOL_PROPERTY
VdW12
SciTegic.value.DoubleValue
9.824

@<SCITEGIC>MOL_PROPERTY
Bond
SciTegic.value.DoubleValue
0.245

@<SCITEGIC>MOL_PROPERTY
Angle
SciTegic.value.DoubleValue
0.961

@<SCITEGIC>MOL_PROPERTY
Pdih
SciTegic.value.DoubleValue
2.547

@<SCITEGIC>MOL_PROPERTY
Idih
SciTegic.value.DoubleValue
0.000

@<SCITEGIC>MOL_PROPERTY
Tether
SciTegic.value.DoubleValue
0.000

@<TRIPOS>MOLECULE
guest-3_vm2.mol2 : vm2 ligand conformer 97
          29          28           1
SMALL
USER_CHARGES
 
@<TRIPOS>ATOM
       1    C1      19.548482   19.204654   19.175605 C.3        1 MOL1        -0.2427
       2    H1      20.484267   19.697832   18.881816 H          1 MOL1         0.0958
       3    H2      19.654159   18.128766   18.984420 H          1 MOL1         0.0958
       4    H3      18.749042   19.585500   18.526843 H          1 MOL1         0.0958
       5    C2      19.220787   19.474147   20.659539 C.3        1 MOL1        -0.1412
       6    H4      18.260365   19.001080   20.902634 H          1 MOL1         0.0947
       7    H5      19.092565   20.554649   20.813577 H          1 MOL1         0.0947
       8    C3      20.332667   18.941397   21.594067 C.3        1 MOL1        -0.1437
       9    H6      20.422243   17.852179   21.480975 H          1 MOL1         0.0947
      10    H7      21.295886   19.364015   21.276384 H          1 MOL1         0.0947
      11    C4      20.113624   19.292495   23.086413 C.3        1 MOL1        -0.1437
      12    H8      20.018910   20.381389   23.197537 H          1 MOL1         0.0947
      13    H9      21.017655   19.002765   23.637001 H          1 MOL1         0.0947
      14    C5      18.880660   18.592334   23.712623 C.3        1 MOL1        -0.1437
      15    H10     17.976190   18.882843   23.163184 H          1 MOL1         0.0947
      16    H11     18.974959   17.503552   23.599853 H          1 MOL1         0.0947
      17    C6      18.664114   18.942419   25.205456 C.3        1 MOL1        -0.1437
      18    H12     17.705397   18.512348   25.527158 H          1 MOL1         0.0947
      19    H13     18.566303   20.031075   25.312015 H          1 MOL1         0.0947
      20    C7      19.785806   18.415161   26.134887 C.3        1 MOL1        -0.1477
      21    H14     19.938479   17.343597   25.949971 H          1 MOL1         0.0947
      22    H15     20.737516   18.912888   25.910722 H          1 MOL1         0.0947
      23    C8      19.456341   18.610513   27.627164 C.3        1 MOL1         0.0145
      24    H16     20.241822   18.153960   28.235529 H          1 MOL1         0.0921
      25    H17     18.510517   18.115495   27.863283 H          1 MOL1         0.0921
      26    N1      19.341519   20.064881   28.039245 N.4        1 MOL1        -0.5969
      27    H18     19.131507   20.162051   29.038758 H          1 MOL1         0.3603
      28    H19     18.595357   20.545767   27.527128 H          1 MOL1         0.3603
      29    H20     20.210627   20.579748   27.863794 H          1 MOL1         0.3603
@<TRIPOS>BOND
    1     1     2    1
    2     1     3    1
    3     1     4    1
    4     1     5    1
    5     5     6    1
    6     5     7    1
    7     5     8    1
    8     8     9    1
    9     8    10    1
   10     8    11    1
   11    11    12    1
   12    11    13    1
   13    11    14    1
   14    14    15    1
   15    14    16    1
   16    14    17    1
   17    17    18    1
   18    17    19    1
   19    17    20    1
   20    20    21    1
   21    20    22    1
   22    20    23    1
   23    23    24    1
   24    23    25    1
   25    23    26    1
   26    26    27    1
   27    26    28    1
   28    26    29    1
@<TRIPOS>SUBSTRUCTURE
       1 MOL1            1 RESIDUE      1      MOL     
@<SCITEGIC>MOL_PROPERTY
VM2 Rank
SciTegic.value.IntegerValue
97

@<SCITEGIC>MOL_PROPERTY
Conf_Id
SciTegic.value.IntegerValue
870

@<SCITEGIC>MOL_PROPERTY
Probability
SciTegic.value.DoubleValue
0.31

@<SCITEGIC>MOL_PROPERTY
Sum Probability
SciTegic.value.DoubleValue
81.24

@<SCITEGIC>MOL_PROPERTY
Delta G
SciTegic.value.DoubleValue
1.686

@<SCITEGIC>MOL_PROPERTY
G
SciTegic.value.DoubleValue
59.832

@<SCITEGIC>MOL_PROPERTY
E
SciTegic.value.DoubleValue
22.394

@<SCITEGIC>MOL_PROPERTY
-TS
SciTegic.value.DoubleValue
37.438

@<SCITEGIC>MOL_PROPERTY
U+W
SciTegic.value.DoubleValue
-1.750

@<SCITEGIC>MOL_PROPERTY
U
SciTegic.value.DoubleValue
49.985

@<SCITEGIC>MOL_PROPERTY
W
SciTegic.value.DoubleValue
-51.735

@<SCITEGIC>MOL_PROPERTY
W(PB)
SciTegic.value.DoubleValue
-54.248

@<SCITEGIC>MOL_PROPERTY
W(SA)
SciTegic.value.DoubleValue
2.513

@<SCITEGIC>MOL_PROPERTY
Valence
SciTegic.value.DoubleValue
3.839

@<SCITEGIC>MOL_PROPERTY
Coulomb
SciTegic.value.DoubleValue
45.043

@<SCITEGIC>MOL_PROPERTY
VdW
SciTegic.value.DoubleValue
1.103

@<SCITEGIC>MOL_PROPERTY
VdW6
SciTegic.value.DoubleValue
-8.716

@<SCITEGIC>MOL_PROPERTY
VdW12
SciTegic.value.DoubleValue
9.819

@<SCITEGIC>MOL_PROPERTY
Bond
SciTegic.value.DoubleValue
0.253

@<SCITEGIC>MOL_PROPERTY
Angle
SciTegic.value.DoubleValue
0.991

@<SCITEGIC>MOL_PROPERTY
Pdih
SciTegic.value.DoubleValue
2.595

@<SCITEGIC>MOL_PROPERTY
Idih
SciTegic.value.DoubleValue
0.000

@<SCITEGIC>MOL_PROPERTY
Tether
SciTegic.value.DoubleValue
0.000

@<TRIPOS>MOLECULE
guest-3_vm2.mol2 : vm2 ligand conformer 98
          29          28           1
SMALL
USER_CHARGES
 
@<TRIPOS>ATOM
       1    C1      19.843753   19.128211   19.492369 C.3        1 MOL1        -0.2427
       2    H1      19.139687   18.289356   19.554030 H          1 MOL1         0.0958
       3    H2      19.691437   19.614757   18.520255 H          1 MOL1         0.0958
       4    H3      20.864129   18.723765   19.508931 H          1 MOL1         0.0958
       5    C2      19.627660   20.138657   20.641820 C.3        1 MOL1        -0.1412
       6    H4      18.590610   20.501945   20.625454 H          1 MOL1         0.0947
       7    H5      20.263662   21.016849   20.462787 H          1 MOL1         0.0947
       8    C3      19.959451   19.564308   22.040468 C.3        1 MOL1        -0.1437
       9    H6      20.997160   19.203723   22.051864 H          1 MOL1         0.0947
      10    H7      19.908975   20.387453   22.764366 H          1 MOL1         0.0947
      11    C4      19.004760   18.425801   22.481844 C.3        1 MOL1        -0.1437
      12    H8      19.051698   17.607522   21.751938 H          1 MOL1         0.0947
      13    H9      17.967397   18.787439   22.474698 H          1 MOL1         0.0947
      14    C5      19.340704   17.840661   23.875840 C.3        1 MOL1        -0.1437
      15    H10     18.709526   16.956458   24.040555 H          1 MOL1         0.0947
      16    H11     20.379671   17.483211   23.884125 H          1 MOL1         0.0947
      17    C6      19.120885   18.837988   25.038852 C.3        1 MOL1        -0.1437
      18    H12     18.097404   19.235233   24.993094 H          1 MOL1         0.0947
      19    H13     19.801428   19.691182   24.928946 H          1 MOL1         0.0947
      20    C7      19.352263   18.170385   26.415145 C.3        1 MOL1        -0.1477
      21    H14     18.692238   17.298114   26.512320 H          1 MOL1         0.0947
      22    H15     20.381597   17.793586   26.482173 H          1 MOL1         0.0947
      23    C8      19.075306   19.123609   27.593627 C.3        1 MOL1         0.0145
      24    H16     19.171221   18.574618   28.534345 H          1 MOL1         0.0921
      25    H17     18.053655   19.506886   27.524923 H          1 MOL1         0.0921
      26    N1      20.019218   20.308379   27.655037 N.4        1 MOL1        -0.5969
      27    H18     19.816688   20.915095   28.457221 H          1 MOL1         0.3603
      28    H19     19.952787   20.890147   26.814037 H          1 MOL1         0.3603
      29    H20     20.996760   20.011696   27.742805 H          1 MOL1         0.3603
@<TRIPOS>BOND
    1     1     2    1
    2     1     3    1
    3     1     4    1
    4     1     5    1
    5     5     6    1
    6     5     7    1
    7     5     8    1
    8     8     9    1
    9     8    10    1
   10     8    11    1
   11    11    12    1
   12    11    13    1
   13    11    14    1
   14    14    15    1
   15    14    16    1
   16    14    17    1
   17    17    18    1
   18    17    19    1
   19    17    20    1
   20    20    21    1
   21    20    22    1
   22    20    23    1
   23    23    24    1
   24    23    25    1
   25    23    26    1
   26    26    27    1
   27    26    28    1
   28    26    29    1
@<TRIPOS>SUBSTRUCTURE
       1 MOL1            1 RESIDUE      1      MOL     
@<SCITEGIC>MOL_PROPERTY
VM2 Rank
SciTegic.value.IntegerValue
98

@<SCITEGIC>MOL_PROPERTY
Conf_Id
SciTegic.value.IntegerValue
2872

@<SCITEGIC>MOL_PROPERTY
Probability
SciTegic.value.DoubleValue
0.31

@<SCITEGIC>MOL_PROPERTY
Sum Probability
SciTegic.value.DoubleValue
81.55

@<SCITEGIC>MOL_PROPERTY
Delta G
SciTegic.value.DoubleValue
1.687

@<SCITEGIC>MOL_PROPERTY
G
SciTegic.value.DoubleValue
59.833

@<SCITEGIC>MOL_PROPERTY
E
SciTegic.value.DoubleValue
22.399

@<SCITEGIC>MOL_PROPERTY
-TS
SciTegic.value.DoubleValue
37.434

@<SCITEGIC>MOL_PROPERTY
U+W
SciTegic.value.DoubleValue
-1.746

@<SCITEGIC>MOL_PROPERTY
U
SciTegic.value.DoubleValue
50.173

@<SCITEGIC>MOL_PROPERTY
W
SciTegic.value.DoubleValue
-51.918

@<SCITEGIC>MOL_PROPERTY
W(PB)
SciTegic.value.DoubleValue
-54.448

@<SCITEGIC>MOL_PROPERTY
W(SA)
SciTegic.value.DoubleValue
2.530

@<SCITEGIC>MOL_PROPERTY
Valence
SciTegic.value.DoubleValue
3.803

@<SCITEGIC>MOL_PROPERTY
Coulomb
SciTegic.value.DoubleValue
45.246

@<SCITEGIC>MOL_PROPERTY
VdW
SciTegic.value.DoubleValue
1.124

@<SCITEGIC>MOL_PROPERTY
VdW6
SciTegic.value.DoubleValue
-8.692

@<SCITEGIC>MOL_PROPERTY
VdW12
SciTegic.value.DoubleValue
9.815

@<SCITEGIC>MOL_PROPERTY
Bond
SciTegic.value.DoubleValue
0.250

@<SCITEGIC>MOL_PROPERTY
Angle
SciTegic.value.DoubleValue
0.987

@<SCITEGIC>MOL_PROPERTY
Pdih
SciTegic.value.DoubleValue
2.567

@<SCITEGIC>MOL_PROPERTY
Idih
SciTegic.value.DoubleValue
0.000

@<SCITEGIC>MOL_PROPERTY
Tether
SciTegic.value.DoubleValue
0.000

@<TRIPOS>MOLECULE
guest-3_vm2.mol2 : vm2 ligand conformer 99
          29          28           1
SMALL
USER_CHARGES
 
@<TRIPOS>ATOM
       1    C1      20.911538   18.511823   19.900227 C.3        1 MOL1        -0.2427
       2    H1      21.827572   19.043114   20.189800 H          1 MOL1         0.0958
       3    H2      21.017130   17.460509   20.198262 H          1 MOL1         0.0958
       4    H3      20.833859   18.545713   18.805759 H          1 MOL1         0.0958
       5    C2      19.668939   19.151805   20.554668 C.3        1 MOL1        -0.1412
       6    H4      18.766530   18.620608   20.220926 H          1 MOL1         0.0947
       7    H5      19.570719   20.191019   20.210789 H          1 MOL1         0.0947
       8    C3      19.753261   19.117761   22.096649 C.3        1 MOL1        -0.1437
       9    H6      19.860003   18.075973   22.425846 H          1 MOL1         0.0947
      10    H7      20.655520   19.651682   22.425213 H          1 MOL1         0.0947
      11    C4      18.505795   19.755658   22.753859 C.3        1 MOL1        -0.1437
      12    H8      17.607001   19.191396   22.469217 H          1 MOL1         0.0947
      13    H9      18.371491   20.770798   22.355405 H          1 MOL1         0.0947
      14    C5      18.596573   19.843253   24.296926 C.3        1 MOL1        -0.1437
      15    H10     19.485348   20.425886   24.573692 H          1 MOL1         0.0947
      16    H11     17.729259   20.408729   24.664666 H          1 MOL1         0.0947
      17    C6      18.626663   18.458863   24.992381 C.3        1 MOL1        -0.1437
      18    H12     19.536006   17.912783   24.711638 H          1 MOL1         0.0947
      19    H13     17.782428   17.855627   24.631156 H          1 MOL1         0.0947
      20    C7      18.539167   18.555111   26.536074 C.3        1 MOL1        -0.1477
      21    H14     17.582087   19.014618   26.816605 H          1 MOL1         0.0947
      22    H15     18.529812   17.543564   26.963255 H          1 MOL1         0.0947
      23    C8      19.683564   19.364604   27.178828 C.3        1 MOL1         0.0145
      24    H16     19.534474   19.408022   28.261120 H          1 MOL1         0.0921
      25    H17     19.674650   20.387436   26.793553 H          1 MOL1         0.0921
      26    N1      21.058501   18.779121   26.925387 N.4        1 MOL1        -0.5969
      27    H18     21.271440   18.738553   25.923784 H          1 MOL1         0.3603
      28    H19     21.138582   17.825123   27.292350 H          1 MOL1         0.3603
      29    H20     21.797317   19.335086   27.369814 H          1 MOL1         0.3603
@<TRIPOS>BOND
    1     1     2    1
    2     1     3    1
    3     1     4    1
    4     1     5    1
    5     5     6    1
    6     5     7    1
    7     5     8    1
    8     8     9    1
    9     8    10    1
   10     8    11    1
   11    11    12    1
   12    11    13    1
   13    11    14    1
   14    14    15    1
   15    14    16    1
   16    14    17    1
   17    17    18    1
   18    17    19    1
   19    17    20    1
   20    20    21    1
   21    20    22    1
   22    20    23    1
   23    23    24    1
   24    23    25    1
   25    23    26    1
   26    26    27    1
   27    26    28    1
   28    26    29    1
@<TRIPOS>SUBSTRUCTURE
       1 MOL1            1 RESIDUE      1      MOL     
@<SCITEGIC>MOL_PROPERTY
VM2 Rank
SciTegic.value.IntegerValue
99

@<SCITEGIC>MOL_PROPERTY
Conf_Id
SciTegic.value.IntegerValue
1868

@<SCITEGIC>MOL_PROPERTY
Probability
SciTegic.value.DoubleValue
0.31

@<SCITEGIC>MOL_PROPERTY
Sum Probability
SciTegic.value.DoubleValue
81.86

@<SCITEGIC>MOL_PROPERTY
Delta G
SciTegic.value.DoubleValue
1.687

@<SCITEGIC>MOL_PROPERTY
G
SciTegic.value.DoubleValue
59.834

@<SCITEGIC>MOL_PROPERTY
E
SciTegic.value.DoubleValue
22.248

@<SCITEGIC>MOL_PROPERTY
-TS
SciTegic.value.DoubleValue
37.586

@<SCITEGIC>MOL_PROPERTY
U+W
SciTegic.value.DoubleValue
-1.897

@<SCITEGIC>MOL_PROPERTY
U
SciTegic.value.DoubleValue
50.207

@<SCITEGIC>MOL_PROPERTY
W
SciTegic.value.DoubleValue
-52.104

@<SCITEGIC>MOL_PROPERTY
W(PB)
SciTegic.value.DoubleValue
-54.586

@<SCITEGIC>MOL_PROPERTY
W(SA)
SciTegic.value.DoubleValue
2.482

@<SCITEGIC>MOL_PROPERTY
Valence
SciTegic.value.DoubleValue
3.485

@<SCITEGIC>MOL_PROPERTY
Coulomb
SciTegic.value.DoubleValue
45.881

@<SCITEGIC>MOL_PROPERTY
VdW
SciTegic.value.DoubleValue
0.841

@<SCITEGIC>MOL_PROPERTY
VdW6
SciTegic.value.DoubleValue
-9.001

@<SCITEGIC>MOL_PROPERTY
VdW12
SciTegic.value.DoubleValue
9.843

@<SCITEGIC>MOL_PROPERTY
Bond
SciTegic.value.DoubleValue
0.232

@<SCITEGIC>MOL_PROPERTY
Angle
SciTegic.value.DoubleValue
0.850

@<SCITEGIC>MOL_PROPERTY
Pdih
SciTegic.value.DoubleValue
2.402

@<SCITEGIC>MOL_PROPERTY
Idih
SciTegic.value.DoubleValue
0.000

@<SCITEGIC>MOL_PROPERTY
Tether
SciTegic.value.DoubleValue
0.000

@<TRIPOS>MOLECULE
guest-3_vm2.mol2 : vm2 ligand conformer 100
          29          28           1
SMALL
USER_CHARGES
 
@<TRIPOS>ATOM
       1    C1      19.422371   17.661518   20.156093 C.3        1 MOL1        -0.2427
       2    H1      20.473188   17.346691   20.197249 H          1 MOL1         0.0958
       3    H2      18.887043   17.184247   20.986188 H          1 MOL1         0.0958
       4    H3      18.992850   17.276522   19.222166 H          1 MOL1         0.0958
       5    C2      19.301024   19.201237   20.212462 C.3        1 MOL1        -0.1412
       6    H4      18.240474   19.489071   20.202232 H          1 MOL1         0.0947
       7    H5      19.743316   19.624561   19.299811 H          1 MOL1         0.0947
       8    C3      20.002062   19.829597   21.441011 C.3        1 MOL1        -0.1437
       9    H6      21.065893   19.554878   21.436776 H          1 MOL1         0.0947
      10    H7      19.964732   20.923164   21.341225 H          1 MOL1         0.0947
      11    C4      19.363579   19.422531   22.790672 C.3        1 MOL1        -0.1437
      12    H8      19.455122   18.337979   22.924535 H          1 MOL1         0.0947
      13    H9      18.290099   19.655458   22.772923 H          1 MOL1         0.0947
      14    C5      20.031360   20.151063   23.981845 C.3        1 MOL1        -0.1437
      15    H10     21.094280   19.877778   24.034849 H          1 MOL1         0.0947
      16    H11     20.000420   21.234330   23.800477 H          1 MOL1         0.0947
      17    C6      19.353453   19.865051   25.344481 C.3        1 MOL1        -0.1437
      18    H12     18.291695   20.143246   25.292596 H          1 MOL1         0.0947
      19    H13     19.808409   20.523219   26.096394 H          1 MOL1         0.0947
      20    C7      19.484798   18.391353   25.804530 C.3        1 MOL1        -0.1477
      21    H14     18.992281   17.730261   25.080845 H          1 MOL1         0.0947
      22    H15     20.542551   18.097671   25.830734 H          1 MOL1         0.0947
      23    C8      18.847629   18.141425   27.185084 C.3        1 MOL1         0.0145
      24    H16     18.883579   17.072500   27.412341 H          1 MOL1         0.0921
      25    H17     17.799307   18.451482   27.168416 H          1 MOL1         0.0921
      26    N1      19.537724   18.874227   28.318822 N.4        1 MOL1        -0.5969
      27    H18     20.524313   18.607037   28.399705 H          1 MOL1         0.3603
      28    H19     19.097868   18.675444   29.224141 H          1 MOL1         0.3603
      29    H20     19.508467   19.890130   28.187451 H          1 MOL1         0.3603
@<TRIPOS>BOND
    1     1     2    1
    2     1     3    1
    3     1     4    1
    4     1     5    1
    5     5     6    1
    6     5     7    1
    7     5     8    1
    8     8     9    1
    9     8    10    1
   10     8    11    1
   11    11    12    1
   12    11    13    1
   13    11    14    1
   14    14    15    1
   15    14    16    1
   16    14    17    1
   17    17    18    1
   18    17    19    1
   19    17    20    1
   20    20    21    1
   21    20    22    1
   22    20    23    1
   23    23    24    1
   24    23    25    1
   25    23    26    1
   26    26    27    1
   27    26    28    1
   28    26    29    1
@<TRIPOS>SUBSTRUCTURE
       1 MOL1            1 RESIDUE      1      MOL     
@<SCITEGIC>MOL_PROPERTY
VM2 Rank
SciTegic.value.IntegerValue
100

@<SCITEGIC>MOL_PROPERTY
Conf_Id
SciTegic.value.IntegerValue
573

@<SCITEGIC>MOL_PROPERTY
Probability
SciTegic.value.DoubleValue
0.31

@<SCITEGIC>MOL_PROPERTY
Sum Probability
SciTegic.value.DoubleValue
82.17

@<SCITEGIC>MOL_PROPERTY
Delta G
SciTegic.value.DoubleValue
1.690

@<SCITEGIC>MOL_PROPERTY
G
SciTegic.value.DoubleValue
59.836

@<SCITEGIC>MOL_PROPERTY
E
SciTegic.value.DoubleValue
22.362

@<SCITEGIC>MOL_PROPERTY
-TS
SciTegic.value.DoubleValue
37.474

@<SCITEGIC>MOL_PROPERTY
U+W
SciTegic.value.DoubleValue
-1.782

@<SCITEGIC>MOL_PROPERTY
U
SciTegic.value.DoubleValue
49.690

@<SCITEGIC>MOL_PROPERTY
W
SciTegic.value.DoubleValue
-51.473

@<SCITEGIC>MOL_PROPERTY
W(PB)
SciTegic.value.DoubleValue
-53.993

@<SCITEGIC>MOL_PROPERTY
W(SA)
SciTegic.value.DoubleValue
2.521

@<SCITEGIC>MOL_PROPERTY
Valence
SciTegic.value.DoubleValue
3.753

@<SCITEGIC>MOL_PROPERTY
Coulomb
SciTegic.value.DoubleValue
44.825

@<SCITEGIC>MOL_PROPERTY
VdW
SciTegic.value.DoubleValue
1.112

@<SCITEGIC>MOL_PROPERTY
VdW6
SciTegic.value.DoubleValue
-8.728

@<SCITEGIC>MOL_PROPERTY
VdW12
SciTegic.value.DoubleValue
9.840

@<SCITEGIC>MOL_PROPERTY
Bond
SciTegic.value.DoubleValue
0.247

@<SCITEGIC>MOL_PROPERTY
Angle
SciTegic.value.DoubleValue
0.961

@<SCITEGIC>MOL_PROPERTY
Pdih
SciTegic.value.DoubleValue
2.545

@<SCITEGIC>MOL_PROPERTY
Idih
SciTegic.value.DoubleValue
0.000

@<SCITEGIC>MOL_PROPERTY
Tether
SciTegic.value.DoubleValue
0.000

@<TRIPOS>MOLECULE
guest-3_vm2.mol2 : vm2 ligand conformer 101
          29          28           1
SMALL
USER_CHARGES
 
@<TRIPOS>ATOM
       1    C1      19.979299   19.288070   19.172554 C.3        1 MOL1        -0.2427
       2    H1      20.061089   20.206516   18.576895 H          1 MOL1         0.0958
       3    H2      20.948763   18.774281   19.134948 H          1 MOL1         0.0958
       4    H3      19.231121   18.642261   18.694650 H          1 MOL1         0.0958
       5    C2      19.581980   19.615830   20.627473 C.3        1 MOL1        -0.1412
       6    H4      18.623860   20.154024   20.630682 H          1 MOL1         0.0947
       7    H5      20.330817   20.295020   21.055513 H          1 MOL1         0.0947
       8    C3      19.465049   18.335493   21.488040 C.3        1 MOL1        -0.1437
       9    H6      18.775177   17.637625   20.993685 H          1 MOL1         0.0947
      10    H7      20.438188   17.827230   21.531379 H          1 MOL1         0.0947
      11    C4      18.950093   18.595265   22.925341 C.3        1 MOL1        -0.1437
      12    H8      18.763081   17.622096   23.396502 H          1 MOL1         0.0947
      13    H9      17.980146   19.109288   22.880592 H          1 MOL1         0.0947
      14    C5      19.936748   19.412364   23.798188 C.3        1 MOL1        -0.1437
      15    H10     20.906343   18.897728   23.844037 H          1 MOL1         0.0947
      16    H11     20.124811   20.383946   23.323875 H          1 MOL1         0.0947
      17    C6      19.421667   19.677100   25.234614 C.3        1 MOL1        -0.1437
      18    H12     18.444053   20.176692   25.188839 H          1 MOL1         0.0947
      19    H13     20.107773   20.386088   25.716433 H          1 MOL1         0.0947
      20    C7      19.315141   18.397993   26.102721 C.3        1 MOL1        -0.1477
      21    H14     18.595453   17.701927   25.654934 H          1 MOL1         0.0947
      22    H15     20.282129   17.878327   26.128198 H          1 MOL1         0.0947
      23    C8      18.853441   18.694794   27.542590 C.3        1 MOL1         0.0145
      24    H16     18.702422   17.752292   28.075901 H          1 MOL1         0.0921
      25    H17     17.900698   19.230701   27.520738 H          1 MOL1         0.0921
      26    N1      19.840582   19.521090   28.343480 N.4        1 MOL1        -0.5969
      27    H18     20.752029   19.057480   28.418496 H          1 MOL1         0.3603
      28    H19     19.509347   19.688156   29.300019 H          1 MOL1         0.3603
      29    H20     20.001359   20.438869   27.916868 H          1 MOL1         0.3603
@<TRIPOS>BOND
    1     1     2    1
    2     1     3    1
    3     1     4    1
    4     1     5    1
    5     5     6    1
    6     5     7    1
    7     5     8    1
    8     8     9    1
    9     8    10    1
   10     8    11    1
   11    11    12    1
   12    11    13    1
   13    11    14    1
   14    14    15    1
   15    14    16    1
   16    14    17    1
   17    17    18    1
   18    17    19    1
   19    17    20    1
   20    20    21    1
   21    20    22    1
   22    20    23    1
   23    23    24    1
   24    23    25    1
   25    23    26    1
   26    26    27    1
   27    26    28    1
   28    26    29    1
@<TRIPOS>SUBSTRUCTURE
       1 MOL1            1 RESIDUE      1      MOL     
@<SCITEGIC>MOL_PROPERTY
VM2 Rank
SciTegic.value.IntegerValue
101

@<SCITEGIC>MOL_PROPERTY
Conf_Id
SciTegic.value.IntegerValue
1938

@<SCITEGIC>MOL_PROPERTY
Probability
SciTegic.value.DoubleValue
0.31

@<SCITEGIC>MOL_PROPERTY
Sum Probability
SciTegic.value.DoubleValue
82.48

@<SCITEGIC>MOL_PROPERTY
Delta G
SciTegic.value.DoubleValue
1.693

@<SCITEGIC>MOL_PROPERTY
G
SciTegic.value.DoubleValue
59.839

@<SCITEGIC>MOL_PROPERTY
E
SciTegic.value.DoubleValue
22.449

@<SCITEGIC>MOL_PROPERTY
-TS
SciTegic.value.DoubleValue
37.391

@<SCITEGIC>MOL_PROPERTY
U+W
SciTegic.value.DoubleValue
-1.696

@<SCITEGIC>MOL_PROPERTY
U
SciTegic.value.DoubleValue
49.901

@<SCITEGIC>MOL_PROPERTY
W
SciTegic.value.DoubleValue
-51.597

@<SCITEGIC>MOL_PROPERTY
W(PB)
SciTegic.value.DoubleValue
-54.070

@<SCITEGIC>MOL_PROPERTY
W(SA)
SciTegic.value.DoubleValue
2.473

@<SCITEGIC>MOL_PROPERTY
Valence
SciTegic.value.DoubleValue
3.877

@<SCITEGIC>MOL_PROPERTY
Coulomb
SciTegic.value.DoubleValue
44.864

@<SCITEGIC>MOL_PROPERTY
VdW
SciTegic.value.DoubleValue
1.159

@<SCITEGIC>MOL_PROPERTY
VdW6
SciTegic.value.DoubleValue
-8.668

@<SCITEGIC>MOL_PROPERTY
VdW12
SciTegic.value.DoubleValue
9.827

@<SCITEGIC>MOL_PROPERTY
Bond
SciTegic.value.DoubleValue
0.259

@<SCITEGIC>MOL_PROPERTY
Angle
SciTegic.value.DoubleValue
1.041

@<SCITEGIC>MOL_PROPERTY
Pdih
SciTegic.value.DoubleValue
2.578

@<SCITEGIC>MOL_PROPERTY
Idih
SciTegic.value.DoubleValue
0.000

@<SCITEGIC>MOL_PROPERTY
Tether
SciTegic.value.DoubleValue
0.000

@<TRIPOS>MOLECULE
guest-3_vm2.mol2 : vm2 ligand conformer 102
          29          28           1
SMALL
USER_CHARGES
 
@<TRIPOS>ATOM
       1    C1      19.625402   18.975629   19.446693 C.3        1 MOL1        -0.2427
       2    H1      20.040746   17.982251   19.656168 H          1 MOL1         0.0958
       3    H2      19.119277   18.922204   18.474112 H          1 MOL1         0.0958
       4    H3      20.458153   19.684702   19.353071 H          1 MOL1         0.0958
       5    C2      18.635860   19.422590   20.546673 C.3        1 MOL1        -0.1412
       6    H4      17.831642   18.680139   20.645247 H          1 MOL1         0.0947
       7    H5      18.153685   20.357270   20.227839 H          1 MOL1         0.0947
       8    C3      19.305239   19.655548   21.922833 C.3        1 MOL1        -0.1437
       9    H6      20.107342   20.399096   21.819130 H          1 MOL1         0.0947
      10    H7      18.556696   20.097987   22.592311 H          1 MOL1         0.0947
      11    C4      19.870765   18.360976   22.560490 C.3        1 MOL1        -0.1437
      12    H8      20.614117   17.917035   21.886028 H          1 MOL1         0.0947
      13    H9      19.067999   17.618653   22.667568 H          1 MOL1         0.0947
      14    C5      20.550152   18.592241   23.932842 C.3        1 MOL1        -0.1437
      15    H10     21.036059   17.655978   24.240551 H          1 MOL1         0.0947
      16    H11     21.352741   19.334890   23.825123 H          1 MOL1         0.0947
      17    C6      19.570149   19.037378   25.044977 C.3        1 MOL1        -0.1437
      18    H12     18.737596   18.323538   25.100394 H          1 MOL1         0.0947
      19    H13     19.138538   20.015602   24.796261 H          1 MOL1         0.0947
      20    C7      20.272538   19.133276   26.419980 C.3        1 MOL1        -0.1477
      21    H14     20.678236   18.153468   26.705213 H          1 MOL1         0.0947
      22    H15     21.128552   19.816954   26.343734 H          1 MOL1         0.0947
      23    C8      19.336734   19.645336   27.531764 C.3        1 MOL1         0.0145
      24    H16     18.926924   20.618675   27.248827 H          1 MOL1         0.0921
      25    H17     19.906471   19.770668   28.456552 H          1 MOL1         0.0921
      26    N1      18.177160   18.715028   27.828749 N.4        1 MOL1        -0.5969
      27    H18     17.578567   18.581336   27.007744 H          1 MOL1         0.3603
      28    H19     17.580506   19.078144   28.580249 H          1 MOL1         0.3603
      29    H20     18.499627   17.787448   28.123562 H          1 MOL1         0.3603
@<TRIPOS>BOND
    1     1     2    1
    2     1     3    1
    3     1     4    1
    4     1     5    1
    5     5     6    1
    6     5     7    1
    7     5     8    1
    8     8     9    1
    9     8    10    1
   10     8    11    1
   11    11    12    1
   12    11    13    1
   13    11    14    1
   14    14    15    1
   15    14    16    1
   16    14    17    1
   17    17    18    1
   18    17    19    1
   19    17    20    1
   20    20    21    1
   21    20    22    1
   22    20    23    1
   23    23    24    1
   24    23    25    1
   25    23    26    1
   26    26    27    1
   27    26    28    1
   28    26    29    1
@<TRIPOS>SUBSTRUCTURE
       1 MOL1            1 RESIDUE      1      MOL     
@<SCITEGIC>MOL_PROPERTY
VM2 Rank
SciTegic.value.IntegerValue
102

@<SCITEGIC>MOL_PROPERTY
Conf_Id
SciTegic.value.IntegerValue
626

@<SCITEGIC>MOL_PROPERTY
Probability
SciTegic.value.DoubleValue
0.31

@<SCITEGIC>MOL_PROPERTY
Sum Probability
SciTegic.value.DoubleValue
82.79

@<SCITEGIC>MOL_PROPERTY
Delta G
SciTegic.value.DoubleValue
1.697

@<SCITEGIC>MOL_PROPERTY
G
SciTegic.value.DoubleValue
59.843

@<SCITEGIC>MOL_PROPERTY
E
SciTegic.value.DoubleValue
22.399

@<SCITEGIC>MOL_PROPERTY
-TS
SciTegic.value.DoubleValue
37.444

@<SCITEGIC>MOL_PROPERTY
U+W
SciTegic.value.DoubleValue
-1.746

@<SCITEGIC>MOL_PROPERTY
U
SciTegic.value.DoubleValue
49.938

@<SCITEGIC>MOL_PROPERTY
W
SciTegic.value.DoubleValue
-51.684

@<SCITEGIC>MOL_PROPERTY
W(PB)
SciTegic.value.DoubleValue
-54.166

@<SCITEGIC>MOL_PROPERTY
W(SA)
SciTegic.value.DoubleValue
2.482

@<SCITEGIC>MOL_PROPERTY
Valence
SciTegic.value.DoubleValue
3.804

@<SCITEGIC>MOL_PROPERTY
Coulomb
SciTegic.value.DoubleValue
45.009

@<SCITEGIC>MOL_PROPERTY
VdW
SciTegic.value.DoubleValue
1.125

@<SCITEGIC>MOL_PROPERTY
VdW6
SciTegic.value.DoubleValue
-8.684

@<SCITEGIC>MOL_PROPERTY
VdW12
SciTegic.value.DoubleValue
9.809

@<SCITEGIC>MOL_PROPERTY
Bond
SciTegic.value.DoubleValue
0.248

@<SCITEGIC>MOL_PROPERTY
Angle
SciTegic.value.DoubleValue
0.989

@<SCITEGIC>MOL_PROPERTY
Pdih
SciTegic.value.DoubleValue
2.567

@<SCITEGIC>MOL_PROPERTY
Idih
SciTegic.value.DoubleValue
0.000

@<SCITEGIC>MOL_PROPERTY
Tether
SciTegic.value.DoubleValue
0.000

@<TRIPOS>MOLECULE
guest-3_vm2.mol2 : vm2 ligand conformer 103
          29          28           1
SMALL
USER_CHARGES
 
@<TRIPOS>ATOM
       1    C1      20.027807   18.506040   19.332326 C.3        1 MOL1        -0.2427
       2    H1      20.606770   19.392982   19.043566 H          1 MOL1         0.0958
       3    H2      20.562731   17.620204   18.966015 H          1 MOL1         0.0958
       4    H3      19.057611   18.549281   18.820387 H          1 MOL1         0.0958
       5    C2      19.845167   18.437863   20.863316 C.3        1 MOL1        -0.1412
       6    H4      20.832504   18.354985   21.336712 H          1 MOL1         0.0947
       7    H5      19.288994   17.526500   21.123600 H          1 MOL1         0.0947
       8    C3      19.096550   19.678935   21.403780 C.3        1 MOL1        -0.1437
       9    H6      19.677843   20.585714   21.186855 H          1 MOL1         0.0947
      10    H7      18.145734   19.786017   20.863623 H          1 MOL1         0.0947
      11    C4      18.794159   19.606184   22.920556 C.3        1 MOL1        -0.1437
      12    H8      18.190833   18.711683   23.123347 H          1 MOL1         0.0947
      13    H9      18.171864   20.469637   23.193105 H          1 MOL1         0.0947
      14    C5      20.068358   19.602534   23.802654 C.3        1 MOL1        -0.1437
      15    H10     20.639001   18.679025   23.638344 H          1 MOL1         0.0947
      16    H11     20.720635   20.430117   23.491504 H          1 MOL1         0.0947
      17    C6      19.772598   19.753802   25.315036 C.3        1 MOL1        -0.1437
      18    H12     19.216774   20.685385   25.490022 H          1 MOL1         0.0947
      19    H13     20.730080   19.862297   25.841366 H          1 MOL1         0.0947
      20    C7      18.988771   18.558574   25.912860 C.3        1 MOL1        -0.1477
      21    H14     18.013707   18.468937   25.418124 H          1 MOL1         0.0947
      22    H15     19.527036   17.621017   25.720411 H          1 MOL1         0.0947
      23    C8      18.741572   18.708099   27.426408 C.3        1 MOL1         0.0145
      24    H16     18.105164   17.888942   27.772096 H          1 MOL1         0.0921
      25    H17     18.222348   19.649890   27.623448 H          1 MOL1         0.0921
      26    N1      20.009018   18.685969   28.258064 N.4        1 MOL1        -0.5969
      27    H18     20.531385   17.812710   28.132221 H          1 MOL1         0.3603
      28    H19     19.808249   18.773719   29.260352 H          1 MOL1         0.3603
      29    H20     20.639288   19.454888   28.009678 H          1 MOL1         0.3603
@<TRIPOS>BOND
    1     1     2    1
    2     1     3    1
    3     1     4    1
    4     1     5    1
    5     5     6    1
    6     5     7    1
    7     5     8    1
    8     8     9    1
    9     8    10    1
   10     8    11    1
   11    11    12    1
   12    11    13    1
   13    11    14    1
   14    14    15    1
   15    14    16    1
   16    14    17    1
   17    17    18    1
   18    17    19    1
   19    17    20    1
   20    20    21    1
   21    20    22    1
   22    20    23    1
   23    23    24    1
   24    23    25    1
   25    23    26    1
   26    26    27    1
   27    26    28    1
   28    26    29    1
@<TRIPOS>SUBSTRUCTURE
       1 MOL1            1 RESIDUE      1      MOL     
@<SCITEGIC>MOL_PROPERTY
VM2 Rank
SciTegic.value.IntegerValue
103

@<SCITEGIC>MOL_PROPERTY
Conf_Id
SciTegic.value.IntegerValue
1246

@<SCITEGIC>MOL_PROPERTY
Probability
SciTegic.value.DoubleValue
0.31

@<SCITEGIC>MOL_PROPERTY
Sum Probability
SciTegic.value.DoubleValue
83.10

@<SCITEGIC>MOL_PROPERTY
Delta G
SciTegic.value.DoubleValue
1.697

@<SCITEGIC>MOL_PROPERTY
G
SciTegic.value.DoubleValue
59.844

@<SCITEGIC>MOL_PROPERTY
E
SciTegic.value.DoubleValue
22.341

@<SCITEGIC>MOL_PROPERTY
-TS
SciTegic.value.DoubleValue
37.503

@<SCITEGIC>MOL_PROPERTY
U+W
SciTegic.value.DoubleValue
-1.803

@<SCITEGIC>MOL_PROPERTY
U
SciTegic.value.DoubleValue
49.751

@<SCITEGIC>MOL_PROPERTY
W
SciTegic.value.DoubleValue
-51.554

@<SCITEGIC>MOL_PROPERTY
W(PB)
SciTegic.value.DoubleValue
-54.050

@<SCITEGIC>MOL_PROPERTY
W(SA)
SciTegic.value.DoubleValue
2.496

@<SCITEGIC>MOL_PROPERTY
Valence
SciTegic.value.DoubleValue
3.759

@<SCITEGIC>MOL_PROPERTY
Coulomb
SciTegic.value.DoubleValue
44.916

@<SCITEGIC>MOL_PROPERTY
VdW
SciTegic.value.DoubleValue
1.076

@<SCITEGIC>MOL_PROPERTY
VdW6
SciTegic.value.DoubleValue
-8.771

@<SCITEGIC>MOL_PROPERTY
VdW12
SciTegic.value.DoubleValue
9.848

@<SCITEGIC>MOL_PROPERTY
Bond
SciTegic.value.DoubleValue
0.248

@<SCITEGIC>MOL_PROPERTY
Angle
SciTegic.value.DoubleValue
0.934

@<SCITEGIC>MOL_PROPERTY
Pdih
SciTegic.value.DoubleValue
2.577

@<SCITEGIC>MOL_PROPERTY
Idih
SciTegic.value.DoubleValue
0.000

@<SCITEGIC>MOL_PROPERTY
Tether
SciTegic.value.DoubleValue
0.000

@<TRIPOS>MOLECULE
guest-3_vm2.mol2 : vm2 ligand conformer 104
          29          28           1
SMALL
USER_CHARGES
 
@<TRIPOS>ATOM
       1    C1      20.537856   18.469727   20.135323 C.3        1 MOL1        -0.2427
       2    H1      20.793854   17.681995   20.854644 H          1 MOL1         0.0958
       3    H2      19.624865   18.168826   19.605291 H          1 MOL1         0.0958
       4    H3      21.351250   18.522056   19.400086 H          1 MOL1         0.0958
       5    C2      20.350597   19.836137   20.832677 C.3        1 MOL1        -0.1412
       6    H4      20.217601   20.610549   20.064340 H          1 MOL1         0.0947
       7    H5      21.266169   20.100134   21.380165 H          1 MOL1         0.0947
       8    C3      19.137093   19.875484   21.792490 C.3        1 MOL1        -0.1437
       9    H6      19.014658   20.904476   22.157824 H          1 MOL1         0.0947
      10    H7      18.221291   19.633902   21.235584 H          1 MOL1         0.0947
      11    C4      19.278433   18.923135   23.003862 C.3        1 MOL1        -0.1437
      12    H8      20.225925   19.134049   23.516610 H          1 MOL1         0.0947
      13    H9      19.324408   17.882353   22.657718 H          1 MOL1         0.0947
      14    C5      18.097873   19.076681   23.992384 C.3        1 MOL1        -0.1437
      15    H10     18.074072   20.101993   24.385273 H          1 MOL1         0.0947
      16    H11     17.154441   18.940173   23.445920 H          1 MOL1         0.0947
      17    C6      18.134157   18.061332   25.163742 C.3        1 MOL1        -0.1437
      18    H12     18.047946   17.042981   24.760317 H          1 MOL1         0.0947
      19    H13     17.244307   18.214401   25.789957 H          1 MOL1         0.0947
      20    C7      19.396046   18.142259   26.058364 C.3        1 MOL1        -0.1477
      21    H14     19.304508   17.404584   26.866617 H          1 MOL1         0.0947
      22    H15     20.285009   17.856881   25.481553 H          1 MOL1         0.0947
      23    C8      19.601885   19.539197   26.672675 C.3        1 MOL1         0.0145
      24    H16     18.720577   19.817950   27.256547 H          1 MOL1         0.0921
      25    H17     19.735588   20.276163   25.876449 H          1 MOL1         0.0921
      26    N1      20.810060   19.614049   27.583483 N.4        1 MOL1        -0.5969
      27    H18     20.734612   18.962361   28.371554 H          1 MOL1         0.3603
      28    H19     20.929206   20.552008   27.981779 H          1 MOL1         0.3603
      29    H20     21.677763   19.387760   27.086285 H          1 MOL1         0.3603
@<TRIPOS>BOND
    1     1     2    1
    2     1     3    1
    3     1     4    1
    4     1     5    1
    5     5     6    1
    6     5     7    1
    7     5     8    1
    8     8     9    1
    9     8    10    1
   10     8    11    1
   11    11    12    1
   12    11    13    1
   13    11    14    1
   14    14    15    1
   15    14    16    1
   16    14    17    1
   17    17    18    1
   18    17    19    1
   19    17    20    1
   20    20    21    1
   21    20    22    1
   22    20    23    1
   23    23    24    1
   24    23    25    1
   25    23    26    1
   26    26    27    1
   27    26    28    1
   28    26    29    1
@<TRIPOS>SUBSTRUCTURE
       1 MOL1            1 RESIDUE      1      MOL     
@<SCITEGIC>MOL_PROPERTY
VM2 Rank
SciTegic.value.IntegerValue
104

@<SCITEGIC>MOL_PROPERTY
Conf_Id
SciTegic.value.IntegerValue
2969

@<SCITEGIC>MOL_PROPERTY
Probability
SciTegic.value.DoubleValue
0.30

@<SCITEGIC>MOL_PROPERTY
Sum Probability
SciTegic.value.DoubleValue
83.40

@<SCITEGIC>MOL_PROPERTY
Delta G
SciTegic.value.DoubleValue
1.708

@<SCITEGIC>MOL_PROPERTY
G
SciTegic.value.DoubleValue
59.854

@<SCITEGIC>MOL_PROPERTY
E
SciTegic.value.DoubleValue
22.216

@<SCITEGIC>MOL_PROPERTY
-TS
SciTegic.value.DoubleValue
37.638

@<SCITEGIC>MOL_PROPERTY
U+W
SciTegic.value.DoubleValue
-1.929

@<SCITEGIC>MOL_PROPERTY
U
SciTegic.value.DoubleValue
50.132

@<SCITEGIC>MOL_PROPERTY
W
SciTegic.value.DoubleValue
-52.061

@<SCITEGIC>MOL_PROPERTY
W(PB)
SciTegic.value.DoubleValue
-54.530

@<SCITEGIC>MOL_PROPERTY
W(SA)
SciTegic.value.DoubleValue
2.469

@<SCITEGIC>MOL_PROPERTY
Valence
SciTegic.value.DoubleValue
3.843

@<SCITEGIC>MOL_PROPERTY
Coulomb
SciTegic.value.DoubleValue
45.436

@<SCITEGIC>MOL_PROPERTY
VdW
SciTegic.value.DoubleValue
0.853

@<SCITEGIC>MOL_PROPERTY
VdW6
SciTegic.value.DoubleValue
-9.162

@<SCITEGIC>MOL_PROPERTY
VdW12
SciTegic.value.DoubleValue
10.015

@<SCITEGIC>MOL_PROPERTY
Bond
SciTegic.value.DoubleValue
0.247

@<SCITEGIC>MOL_PROPERTY
Angle
SciTegic.value.DoubleValue
1.127

@<SCITEGIC>MOL_PROPERTY
Pdih
SciTegic.value.DoubleValue
2.470

@<SCITEGIC>MOL_PROPERTY
Idih
SciTegic.value.DoubleValue
0.000

@<SCITEGIC>MOL_PROPERTY
Tether
SciTegic.value.DoubleValue
0.000

@<TRIPOS>MOLECULE
guest-3_vm2.mol2 : vm2 ligand conformer 105
          29          28           1
SMALL
USER_CHARGES
 
@<TRIPOS>ATOM
       1    C1      20.726743   18.998920   20.147388 C.3        1 MOL1        -0.2427
       2    H1      21.412818   19.418059   20.893781 H          1 MOL1         0.0958
       3    H2      21.334240   18.473245   19.399368 H          1 MOL1         0.0958
       4    H3      20.217365   19.829990   19.642527 H          1 MOL1         0.0958
       5    C2      19.707767   18.032482   20.792472 C.3        1 MOL1        -0.1412
       6    H4      20.242232   17.227606   21.316144 H          1 MOL1         0.0947
       7    H5      19.126051   17.547862   19.995922 H          1 MOL1         0.0947
       8    C3      18.729224   18.731289   21.766897 C.3        1 MOL1        -0.1437
       9    H6      18.180511   19.519319   21.232929 H          1 MOL1         0.0947
      10    H7      17.978575   17.998071   22.092781 H          1 MOL1         0.0947
      11    C4      19.423609   19.330782   23.013012 C.3        1 MOL1        -0.1437
      12    H8      20.122143   20.120771   22.707849 H          1 MOL1         0.0947
      13    H9      20.016964   18.548215   23.503576 H          1 MOL1         0.0947
      14    C5      18.397971   19.919135   24.011202 C.3        1 MOL1        -0.1437
      15    H10     17.761165   20.642869   23.483937 H          1 MOL1         0.0947
      16    H11     17.725763   19.125231   24.363402 H          1 MOL1         0.0947
      17    C6      19.051376   20.635416   25.221298 C.3        1 MOL1        -0.1437
      18    H12     18.256382   21.054575   25.853516 H          1 MOL1         0.0947
      19    H13     19.633983   21.493994   24.859867 H          1 MOL1         0.0947
      20    C7      19.965265   19.739610   26.093995 C.3        1 MOL1        -0.1477
      21    H14     20.842494   19.421424   25.516383 H          1 MOL1         0.0947
      22    H15     20.349273   20.336236   26.932081 H          1 MOL1         0.0947
      23    C8      19.233068   18.504075   26.649437 C.3        1 MOL1         0.0145
      24    H16     18.882013   17.880863   25.822795 H          1 MOL1         0.0921
      25    H17     18.365855   18.822255   27.234257 H          1 MOL1         0.0921
      26    N1      20.108975   17.646291   27.539299 N.4        1 MOL1        -0.5969
      27    H18     20.931259   17.292667   27.039180 H          1 MOL1         0.3603
      28    H19     19.602789   16.829314   27.898363 H          1 MOL1         0.3603
      29    H20     20.451383   18.167015   28.353578 H          1 MOL1         0.3603
@<TRIPOS>BOND
    1     1     2    1
    2     1     3    1
    3     1     4    1
    4     1     5    1
    5     5     6    1
    6     5     7    1
    7     5     8    1
    8     8     9    1
    9     8    10    1
   10     8    11    1
   11    11    12    1
   12    11    13    1
   13    11    14    1
   14    14    15    1
   15    14    16    1
   16    14    17    1
   17    17    18    1
   18    17    19    1
   19    17    20    1
   20    20    21    1
   21    20    22    1
   22    20    23    1
   23    23    24    1
   24    23    25    1
   25    23    26    1
   26    26    27    1
   27    26    28    1
   28    26    29    1
@<TRIPOS>SUBSTRUCTURE
       1 MOL1            1 RESIDUE      1      MOL     
@<SCITEGIC>MOL_PROPERTY
VM2 Rank
SciTegic.value.IntegerValue
105

@<SCITEGIC>MOL_PROPERTY
Conf_Id
SciTegic.value.IntegerValue
1969

@<SCITEGIC>MOL_PROPERTY
Probability
SciTegic.value.DoubleValue
0.30

@<SCITEGIC>MOL_PROPERTY
Sum Probability
SciTegic.value.DoubleValue
83.70

@<SCITEGIC>MOL_PROPERTY
Delta G
SciTegic.value.DoubleValue
1.710

@<SCITEGIC>MOL_PROPERTY
G
SciTegic.value.DoubleValue
59.856

@<SCITEGIC>MOL_PROPERTY
E
SciTegic.value.DoubleValue
22.218

@<SCITEGIC>MOL_PROPERTY
-TS
SciTegic.value.DoubleValue
37.638

@<SCITEGIC>MOL_PROPERTY
U+W
SciTegic.value.DoubleValue
-1.926

@<SCITEGIC>MOL_PROPERTY
U
SciTegic.value.DoubleValue
50.132

@<SCITEGIC>MOL_PROPERTY
W
SciTegic.value.DoubleValue
-52.058

@<SCITEGIC>MOL_PROPERTY
W(PB)
SciTegic.value.DoubleValue
-54.557

@<SCITEGIC>MOL_PROPERTY
W(SA)
SciTegic.value.DoubleValue
2.499

@<SCITEGIC>MOL_PROPERTY
Valence
SciTegic.value.DoubleValue
3.843

@<SCITEGIC>MOL_PROPERTY
Coulomb
SciTegic.value.DoubleValue
45.436

@<SCITEGIC>MOL_PROPERTY
VdW
SciTegic.value.DoubleValue
0.853

@<SCITEGIC>MOL_PROPERTY
VdW6
SciTegic.value.DoubleValue
-9.163

@<SCITEGIC>MOL_PROPERTY
VdW12
SciTegic.value.DoubleValue
10.015

@<SCITEGIC>MOL_PROPERTY
Bond
SciTegic.value.DoubleValue
0.247

@<SCITEGIC>MOL_PROPERTY
Angle
SciTegic.value.DoubleValue
1.127

@<SCITEGIC>MOL_PROPERTY
Pdih
SciTegic.value.DoubleValue
2.470

@<SCITEGIC>MOL_PROPERTY
Idih
SciTegic.value.DoubleValue
0.000

@<SCITEGIC>MOL_PROPERTY
Tether
SciTegic.value.DoubleValue
0.000

@<TRIPOS>MOLECULE
guest-3_vm2.mol2 : vm2 ligand conformer 106
          29          28           1
SMALL
USER_CHARGES
 
@<TRIPOS>ATOM
       1    C1      20.887202   17.960917   20.337213 C.3        1 MOL1        -0.2427
       2    H1      21.518996   18.814560   20.059064 H          1 MOL1         0.0958
       3    H2      21.439767   17.347977   21.061229 H          1 MOL1         0.0958
       4    H3      20.724464   17.354424   19.436817 H          1 MOL1         0.0958
       5    C2      19.541432   18.435500   20.925001 C.3        1 MOL1        -0.1412
       6    H4      18.918913   17.561569   21.162860 H          1 MOL1         0.0947
       7    H5      18.997148   19.015907   20.166891 H          1 MOL1         0.0947
       8    C3      19.742487   19.292861   22.193930 C.3        1 MOL1        -0.1437
       9    H6      20.295267   18.705252   22.938439 H          1 MOL1         0.0947
      10    H7      20.362350   20.166961   21.951385 H          1 MOL1         0.0947
      11    C4      18.393761   19.763904   22.788514 C.3        1 MOL1        -0.1437
      12    H8      17.788425   18.892991   23.072537 H          1 MOL1         0.0947
      13    H9      17.822539   20.286051   22.008603 H          1 MOL1         0.0947
      14    C5      18.549076   20.719587   23.999729 C.3        1 MOL1        -0.1437
      15    H10     19.049421   21.639000   23.665794 H          1 MOL1         0.0947
      16    H11     17.549431   21.027462   24.336010 H          1 MOL1         0.0947
      17    C6      19.328860   20.139014   25.207602 C.3        1 MOL1        -0.1437
      18    H12     19.368708   20.905536   25.993912 H          1 MOL1         0.0947
      19    H13     20.370206   19.948546   24.918461 H          1 MOL1         0.0947
      20    C7      18.693063   18.853037   25.791565 C.3        1 MOL1        -0.1477
      21    H14     17.631775   19.036830   26.005080 H          1 MOL1         0.0947
      22    H15     18.730686   18.039111   25.056409 H          1 MOL1         0.0947
      23    C8      19.380275   18.390820   27.090540 C.3        1 MOL1         0.0145
      24    H16     18.843414   17.530424   27.499207 H          1 MOL1         0.0921
      25    H17     19.348955   19.195452   27.830098 H          1 MOL1         0.0921
      26    N1      20.827844   17.982361   26.900906 N.4        1 MOL1        -0.5969
      27    H18     21.397428   18.758672   26.550094 H          1 MOL1         0.3603
      28    H19     20.920789   17.210406   26.232668 H          1 MOL1         0.3603
      29    H20     21.253420   17.670639   27.780843 H          1 MOL1         0.3603
@<TRIPOS>BOND
    1     1     2    1
    2     1     3    1
    3     1     4    1
    4     1     5    1
    5     5     6    1
    6     5     7    1
    7     5     8    1
    8     8     9    1
    9     8    10    1
   10     8    11    1
   11    11    12    1
   12    11    13    1
   13    11    14    1
   14    14    15    1
   15    14    16    1
   16    14    17    1
   17    17    18    1
   18    17    19    1
   19    17    20    1
   20    20    21    1
   21    20    22    1
   22    20    23    1
   23    23    24    1
   24    23    25    1
   25    23    26    1
   26    26    27    1
   27    26    28    1
   28    26    29    1
@<TRIPOS>SUBSTRUCTURE
       1 MOL1            1 RESIDUE      1      MOL     
@<SCITEGIC>MOL_PROPERTY
VM2 Rank
SciTegic.value.IntegerValue
106

@<SCITEGIC>MOL_PROPERTY
Conf_Id
SciTegic.value.IntegerValue
2764

@<SCITEGIC>MOL_PROPERTY
Probability
SciTegic.value.DoubleValue
0.29

@<SCITEGIC>MOL_PROPERTY
Sum Probability
SciTegic.value.DoubleValue
83.99

@<SCITEGIC>MOL_PROPERTY
Delta G
SciTegic.value.DoubleValue
1.721

@<SCITEGIC>MOL_PROPERTY
G
SciTegic.value.DoubleValue
59.867

@<SCITEGIC>MOL_PROPERTY
E
SciTegic.value.DoubleValue
22.121

@<SCITEGIC>MOL_PROPERTY
-TS
SciTegic.value.DoubleValue
37.746

@<SCITEGIC>MOL_PROPERTY
U+W
SciTegic.value.DoubleValue
-2.023

@<SCITEGIC>MOL_PROPERTY
U
SciTegic.value.DoubleValue
50.322

@<SCITEGIC>MOL_PROPERTY
W
SciTegic.value.DoubleValue
-52.346

@<SCITEGIC>MOL_PROPERTY
W(PB)
SciTegic.value.DoubleValue
-54.826

@<SCITEGIC>MOL_PROPERTY
W(SA)
SciTegic.value.DoubleValue
2.480

@<SCITEGIC>MOL_PROPERTY
Valence
SciTegic.value.DoubleValue
3.655

@<SCITEGIC>MOL_PROPERTY
Coulomb
SciTegic.value.DoubleValue
45.884

@<SCITEGIC>MOL_PROPERTY
VdW
SciTegic.value.DoubleValue
0.784

@<SCITEGIC>MOL_PROPERTY
VdW6
SciTegic.value.DoubleValue
-9.261

@<SCITEGIC>MOL_PROPERTY
VdW12
SciTegic.value.DoubleValue
10.045

@<SCITEGIC>MOL_PROPERTY
Bond
SciTegic.value.DoubleValue
0.250

@<SCITEGIC>MOL_PROPERTY
Angle
SciTegic.value.DoubleValue
1.077

@<SCITEGIC>MOL_PROPERTY
Pdih
SciTegic.value.DoubleValue
2.328

@<SCITEGIC>MOL_PROPERTY
Idih
SciTegic.value.DoubleValue
0.000

@<SCITEGIC>MOL_PROPERTY
Tether
SciTegic.value.DoubleValue
0.000

@<TRIPOS>MOLECULE
guest-3_vm2.mol2 : vm2 ligand conformer 107
          29          28           1
SMALL
USER_CHARGES
 
@<TRIPOS>ATOM
       1    C1      19.509451   19.094112   19.173110 C.3        1 MOL1        -0.2427
       2    H1      19.927309   18.132798   18.846768 H          1 MOL1         0.0958
       3    H2      18.658492   19.330142   18.521037 H          1 MOL1         0.0958
       4    H3      20.273789   19.867827   19.023423 H          1 MOL1         0.0958
       5    C2      19.064099   19.033537   20.649614 C.3        1 MOL1        -0.1412
       6    H4      18.279945   18.271927   20.762337 H          1 MOL1         0.0947
       7    H5      18.615106   19.996845   20.924825 H          1 MOL1         0.0947
       8    C3      20.249124   18.706467   21.588862 C.3        1 MOL1        -0.1437
       9    H6      20.733316   17.783481   21.241046 H          1 MOL1         0.0947
      10    H7      21.008177   19.497685   21.518009 H          1 MOL1         0.0947
      11    C4      19.836307   18.513625   23.068981 C.3        1 MOL1        -0.1437
      12    H8      20.712321   18.145404   23.617958 H          1 MOL1         0.0947
      13    H9      19.073818   17.725681   23.138004 H          1 MOL1         0.0947
      14    C5      19.313363   19.809457   23.739737 C.3        1 MOL1        -0.1437
      15    H10     20.075301   20.597786   23.668734 H          1 MOL1         0.0947
      16    H11     18.436256   20.177042   23.192094 H          1 MOL1         0.0947
      17    C6      18.903587   19.615909   25.220487 C.3        1 MOL1        -0.1437
      18    H12     18.139335   18.829902   25.285380 H          1 MOL1         0.0947
      19    H13     18.426761   20.541342   25.572344 H          1 MOL1         0.0947
      20    C7      20.093344   19.280045   26.154140 C.3        1 MOL1        -0.1477
      21    H14     20.520681   18.302756   25.897189 H          1 MOL1         0.0947
      22    H15     20.890468   20.021275   26.009488 H          1 MOL1         0.0947
      23    C8      19.693636   19.277725   27.642035 C.3        1 MOL1         0.0145
      24    H16     19.269058   20.248758   27.910743 H          1 MOL1         0.0921
      25    H17     20.582465   19.111824   28.256842 H          1 MOL1         0.0921
      26    N1      18.681089   18.207123   27.998033 N.4        1 MOL1        -0.5969
      27    H18     17.806069   18.325558   27.477852 H          1 MOL1         0.3603
      28    H19     18.442856   18.224966   28.995781 H          1 MOL1         0.3603
      29    H20     19.032796   17.266720   27.790271 H          1 MOL1         0.3603
@<TRIPOS>BOND
    1     1     2    1
    2     1     3    1
    3     1     4    1
    4     1     5    1
    5     5     6    1
    6     5     7    1
    7     5     8    1
    8     8     9    1
    9     8    10    1
   10     8    11    1
   11    11    12    1
   12    11    13    1
   13    11    14    1
   14    14    15    1
   15    14    16    1
   16    14    17    1
   17    17    18    1
   18    17    19    1
   19    17    20    1
   20    20    21    1
   21    20    22    1
   22    20    23    1
   23    23    24    1
   24    23    25    1
   25    23    26    1
   26    26    27    1
   27    26    28    1
   28    26    29    1
@<TRIPOS>SUBSTRUCTURE
       1 MOL1            1 RESIDUE      1      MOL     
@<SCITEGIC>MOL_PROPERTY
VM2 Rank
SciTegic.value.IntegerValue
107

@<SCITEGIC>MOL_PROPERTY
Conf_Id
SciTegic.value.IntegerValue
685

@<SCITEGIC>MOL_PROPERTY
Probability
SciTegic.value.DoubleValue
0.29

@<SCITEGIC>MOL_PROPERTY
Sum Probability
SciTegic.value.DoubleValue
84.28

@<SCITEGIC>MOL_PROPERTY
Delta G
SciTegic.value.DoubleValue
1.721

@<SCITEGIC>MOL_PROPERTY
G
SciTegic.value.DoubleValue
59.867

@<SCITEGIC>MOL_PROPERTY
E
SciTegic.value.DoubleValue
22.429

@<SCITEGIC>MOL_PROPERTY
-TS
SciTegic.value.DoubleValue
37.438

@<SCITEGIC>MOL_PROPERTY
U+W
SciTegic.value.DoubleValue
-1.715

@<SCITEGIC>MOL_PROPERTY
U
SciTegic.value.DoubleValue
49.985

@<SCITEGIC>MOL_PROPERTY
W
SciTegic.value.DoubleValue
-51.700

@<SCITEGIC>MOL_PROPERTY
W(PB)
SciTegic.value.DoubleValue
-54.216

@<SCITEGIC>MOL_PROPERTY
W(SA)
SciTegic.value.DoubleValue
2.516

@<SCITEGIC>MOL_PROPERTY
Valence
SciTegic.value.DoubleValue
3.839

@<SCITEGIC>MOL_PROPERTY
Coulomb
SciTegic.value.DoubleValue
45.043

@<SCITEGIC>MOL_PROPERTY
VdW
SciTegic.value.DoubleValue
1.103

@<SCITEGIC>MOL_PROPERTY
VdW6
SciTegic.value.DoubleValue
-8.716

@<SCITEGIC>MOL_PROPERTY
VdW12
SciTegic.value.DoubleValue
9.819

@<SCITEGIC>MOL_PROPERTY
Bond
SciTegic.value.DoubleValue
0.253

@<SCITEGIC>MOL_PROPERTY
Angle
SciTegic.value.DoubleValue
0.991

@<SCITEGIC>MOL_PROPERTY
Pdih
SciTegic.value.DoubleValue
2.595

@<SCITEGIC>MOL_PROPERTY
Idih
SciTegic.value.DoubleValue
0.000

@<SCITEGIC>MOL_PROPERTY
Tether
SciTegic.value.DoubleValue
0.000

@<TRIPOS>MOLECULE
guest-3_vm2.mol2 : vm2 ligand conformer 108
          29          28           1
SMALL
USER_CHARGES
 
@<TRIPOS>ATOM
       1    C1      21.368184   18.996493   20.896492 C.3        1 MOL1        -0.2427
       2    H1      21.645082   17.968513   21.164089 H          1 MOL1         0.0958
       3    H2      21.983234   19.297391   20.038531 H          1 MOL1         0.0958
       4    H3      21.629535   19.653093   21.735531 H          1 MOL1         0.0958
       5    C2      19.866195   19.093876   20.545417 C.3        1 MOL1        -0.1412
       6    H4      19.679480   18.519196   19.627471 H          1 MOL1         0.0947
       7    H5      19.607601   20.136483   20.313437 H          1 MOL1         0.0947
       8    C3      18.937123   18.560258   21.662360 C.3        1 MOL1        -0.1437
       9    H6      17.904650   18.561271   21.286550 H          1 MOL1         0.0947
      10    H7      19.186877   17.512163   21.877593 H          1 MOL1         0.0947
      11    C4      19.001562   19.390318   22.966717 C.3        1 MOL1        -0.1437
      12    H8      18.795658   20.445517   22.740745 H          1 MOL1         0.0947
      13    H9      20.016358   19.341946   23.380021 H          1 MOL1         0.0947
      14    C5      17.989358   18.880052   24.020141 C.3        1 MOL1        -0.1437
      15    H10     16.984880   18.867497   23.575038 H          1 MOL1         0.0947
      16    H11     18.218371   17.837504   24.278732 H          1 MOL1         0.0947
      17    C6      17.941409   19.746717   25.305102 C.3        1 MOL1        -0.1437
      18    H12     17.173613   19.337985   25.976545 H          1 MOL1         0.0947
      19    H13     17.605697   20.759743   25.043777 H          1 MOL1         0.0947
      20    C7      19.280674   19.844790   26.077268 C.3        1 MOL1        -0.1477
      21    H14     20.024607   20.380115   25.473628 H          1 MOL1         0.0947
      22    H15     19.124854   20.450160   26.980079 H          1 MOL1         0.0947
      23    C8      19.835938   18.467398   26.484307 C.3        1 MOL1         0.0145
      24    H16     20.033746   17.870589   25.590061 H          1 MOL1         0.0921
      25    H17     19.099001   17.939525   27.095527 H          1 MOL1         0.0921
      26    N1      21.123557   18.558096   27.277195 N.4        1 MOL1        -0.5969
      27    H18     21.867396   19.022452   26.745809 H          1 MOL1         0.3603
      28    H19     21.476257   17.630662   27.538084 H          1 MOL1         0.3603
      29    H20     20.999200   19.085923   28.147469 H          1 MOL1         0.3603
@<TRIPOS>BOND
    1     1     2    1
    2     1     3    1
    3     1     4    1
    4     1     5    1
    5     5     6    1
    6     5     7    1
    7     5     8    1
    8     8     9    1
    9     8    10    1
   10     8    11    1
   11    11    12    1
   12    11    13    1
   13    11    14    1
   14    14    15    1
   15    14    16    1
   16    14    17    1
   17    17    18    1
   18    17    19    1
   19    17    20    1
   20    20    21    1
   21    20    22    1
   22    20    23    1
   23    23    24    1
   24    23    25    1
   25    23    26    1
   26    26    27    1
   27    26    28    1
   28    26    29    1
@<TRIPOS>SUBSTRUCTURE
       1 MOL1            1 RESIDUE      1      MOL     
@<SCITEGIC>MOL_PROPERTY
VM2 Rank
SciTegic.value.IntegerValue
108

@<SCITEGIC>MOL_PROPERTY
Conf_Id
SciTegic.value.IntegerValue
196

@<SCITEGIC>MOL_PROPERTY
Probability
SciTegic.value.DoubleValue
0.29

@<SCITEGIC>MOL_PROPERTY
Sum Probability
SciTegic.value.DoubleValue
84.58

@<SCITEGIC>MOL_PROPERTY
Delta G
SciTegic.value.DoubleValue
1.721

@<SCITEGIC>MOL_PROPERTY
G
SciTegic.value.DoubleValue
59.867

@<SCITEGIC>MOL_PROPERTY
E
SciTegic.value.DoubleValue
22.230

@<SCITEGIC>MOL_PROPERTY
-TS
SciTegic.value.DoubleValue
37.638

@<SCITEGIC>MOL_PROPERTY
U+W
SciTegic.value.DoubleValue
-1.915

@<SCITEGIC>MOL_PROPERTY
U
SciTegic.value.DoubleValue
50.295

@<SCITEGIC>MOL_PROPERTY
W
SciTegic.value.DoubleValue
-52.210

@<SCITEGIC>MOL_PROPERTY
W(PB)
SciTegic.value.DoubleValue
-54.702

@<SCITEGIC>MOL_PROPERTY
W(SA)
SciTegic.value.DoubleValue
2.491

@<SCITEGIC>MOL_PROPERTY
Valence
SciTegic.value.DoubleValue
3.839

@<SCITEGIC>MOL_PROPERTY
Coulomb
SciTegic.value.DoubleValue
45.618

@<SCITEGIC>MOL_PROPERTY
VdW
SciTegic.value.DoubleValue
0.838

@<SCITEGIC>MOL_PROPERTY
VdW6
SciTegic.value.DoubleValue
-9.210

@<SCITEGIC>MOL_PROPERTY
VdW12
SciTegic.value.DoubleValue
10.049

@<SCITEGIC>MOL_PROPERTY
Bond
SciTegic.value.DoubleValue
0.249

@<SCITEGIC>MOL_PROPERTY
Angle
SciTegic.value.DoubleValue
1.131

@<SCITEGIC>MOL_PROPERTY
Pdih
SciTegic.value.DoubleValue
2.459

@<SCITEGIC>MOL_PROPERTY
Idih
SciTegic.value.DoubleValue
0.000

@<SCITEGIC>MOL_PROPERTY
Tether
SciTegic.value.DoubleValue
0.000

@<TRIPOS>MOLECULE
guest-3_vm2.mol2 : vm2 ligand conformer 109
          29          28           1
SMALL
USER_CHARGES
 
@<TRIPOS>ATOM
       1    C1      20.551523   18.355252   19.912203 C.3        1 MOL1        -0.2427
       2    H1      21.552231   18.283906   20.357979 H          1 MOL1         0.0958
       3    H2      20.457451   17.556297   19.165308 H          1 MOL1         0.0958
       4    H3      20.478370   19.317101   19.388048 H          1 MOL1         0.0958
       5    C2      19.453943   18.226053   20.989437 C.3        1 MOL1        -0.1412
       6    H4      19.531827   17.242347   21.473293 H          1 MOL1         0.0947
       7    H5      18.465996   18.266347   20.509663 H          1 MOL1         0.0947
       8    C3      19.563344   19.340212   22.053566 C.3        1 MOL1        -0.1437
       9    H6      20.556941   19.295336   22.518336 H          1 MOL1         0.0947
      10    H7      19.482453   20.321651   21.566392 H          1 MOL1         0.0947
      11    C4      18.466658   19.208895   23.137198 C.3        1 MOL1        -0.1437
      12    H8      18.565119   18.243534   23.650963 H          1 MOL1         0.0947
      13    H9      17.482564   19.191728   22.648914 H          1 MOL1         0.0947
      14    C5      18.477426   20.363818   24.171506 C.3        1 MOL1        -0.1437
      15    H10     18.271402   21.308982   23.650587 H          1 MOL1         0.0947
      16    H11     17.639861   20.222795   24.867875 H          1 MOL1         0.0947
      17    C6      19.794985   20.519171   24.977978 C.3        1 MOL1        -0.1437
      18    H12     19.669991   21.340559   25.697012 H          1 MOL1         0.0947
      19    H13     20.603026   20.836217   24.305398 H          1 MOL1         0.0947
      20    C7      20.241785   19.249057   25.743255 C.3        1 MOL1        -0.1477
      21    H14     20.490383   18.450429   25.032697 H          1 MOL1         0.0947
      22    H15     21.166404   19.472488   26.291791 H          1 MOL1         0.0947
      23    C8      19.175819   18.748328   26.735151 C.3        1 MOL1         0.0145
      24    H16     18.262030   18.488598   26.194366 H          1 MOL1         0.0921
      25    H17     18.939459   19.539525   27.451695 H          1 MOL1         0.0921
      26    N1      19.618516   17.527214   27.514706 N.4        1 MOL1        -0.5969
      27    H18     20.460981   17.713296   28.068826 H          1 MOL1         0.3603
      28    H19     19.831260   16.736565   26.897537 H          1 MOL1         0.3603
      29    H20     18.894639   17.210031   28.168914 H          1 MOL1         0.3603
@<TRIPOS>BOND
    1     1     2    1
    2     1     3    1
    3     1     4    1
    4     1     5    1
    5     5     6    1
    6     5     7    1
    7     5     8    1
    8     8     9    1
    9     8    10    1
   10     8    11    1
   11    11    12    1
   12    11    13    1
   13    11    14    1
   14    14    15    1
   15    14    16    1
   16    14    17    1
   17    17    18    1
   18    17    19    1
   19    17    20    1
   20    20    21    1
   21    20    22    1
   22    20    23    1
   23    23    24    1
   24    23    25    1
   25    23    26    1
   26    26    27    1
   27    26    28    1
   28    26    29    1
@<TRIPOS>SUBSTRUCTURE
       1 MOL1            1 RESIDUE      1      MOL     
@<SCITEGIC>MOL_PROPERTY
VM2 Rank
SciTegic.value.IntegerValue
109

@<SCITEGIC>MOL_PROPERTY
Conf_Id
SciTegic.value.IntegerValue
944

@<SCITEGIC>MOL_PROPERTY
Probability
SciTegic.value.DoubleValue
0.29

@<SCITEGIC>MOL_PROPERTY
Sum Probability
SciTegic.value.DoubleValue
84.87

@<SCITEGIC>MOL_PROPERTY
Delta G
SciTegic.value.DoubleValue
1.728

@<SCITEGIC>MOL_PROPERTY
G
SciTegic.value.DoubleValue
59.874

@<SCITEGIC>MOL_PROPERTY
E
SciTegic.value.DoubleValue
21.995

@<SCITEGIC>MOL_PROPERTY
-TS
SciTegic.value.DoubleValue
37.879

@<SCITEGIC>MOL_PROPERTY
U+W
SciTegic.value.DoubleValue
-2.150

@<SCITEGIC>MOL_PROPERTY
U
SciTegic.value.DoubleValue
50.030

@<SCITEGIC>MOL_PROPERTY
W
SciTegic.value.DoubleValue
-52.179

@<SCITEGIC>MOL_PROPERTY
W(PB)
SciTegic.value.DoubleValue
-54.679

@<SCITEGIC>MOL_PROPERTY
W(SA)
SciTegic.value.DoubleValue
2.500

@<SCITEGIC>MOL_PROPERTY
Valence
SciTegic.value.DoubleValue
3.797

@<SCITEGIC>MOL_PROPERTY
Coulomb
SciTegic.value.DoubleValue
45.605

@<SCITEGIC>MOL_PROPERTY
VdW
SciTegic.value.DoubleValue
0.628

@<SCITEGIC>MOL_PROPERTY
VdW6
SciTegic.value.DoubleValue
-9.562

@<SCITEGIC>MOL_PROPERTY
VdW12
SciTegic.value.DoubleValue
10.189

@<SCITEGIC>MOL_PROPERTY
Bond
SciTegic.value.DoubleValue
0.256

@<SCITEGIC>MOL_PROPERTY
Angle
SciTegic.value.DoubleValue
1.236

@<SCITEGIC>MOL_PROPERTY
Pdih
SciTegic.value.DoubleValue
2.305

@<SCITEGIC>MOL_PROPERTY
Idih
SciTegic.value.DoubleValue
0.000

@<SCITEGIC>MOL_PROPERTY
Tether
SciTegic.value.DoubleValue
0.000

@<TRIPOS>MOLECULE
guest-3_vm2.mol2 : vm2 ligand conformer 110
          29          28           1
SMALL
USER_CHARGES
 
@<TRIPOS>ATOM
       1    C1      20.262257   19.082313   19.690319 C.3        1 MOL1        -0.2427
       2    H1      21.189602   19.579233   20.003559 H          1 MOL1         0.0958
       3    H2      20.353179   18.011967   19.913197 H          1 MOL1         0.0958
       4    H3      20.176583   19.186701   18.600971 H          1 MOL1         0.0958
       5    C2      19.034039   19.705127   20.391712 C.3        1 MOL1        -0.1412
       6    H4      18.123027   19.174188   20.082087 H          1 MOL1         0.0947
       7    H5      18.917339   20.742382   20.047885 H          1 MOL1         0.0947
       8    C3      19.142807   19.702256   21.935482 C.3        1 MOL1        -0.1437
       9    H6      20.040015   20.260901   22.232720 H          1 MOL1         0.0947
      10    H7      18.284016   20.249991   22.347225 H          1 MOL1         0.0947
      11    C4      19.175494   18.278180   22.545407 C.3        1 MOL1        -0.1437
      12    H8      20.092686   17.758111   22.239028 H          1 MOL1         0.0947
      13    H9      18.337655   17.695085   22.139110 H          1 MOL1         0.0947
      14    C5      19.077346   18.268894   24.090489 C.3        1 MOL1        -0.1437
      15    H10     18.143547   18.759381   24.396383 H          1 MOL1         0.0947
      16    H11     19.004253   17.225879   24.428166 H          1 MOL1         0.0947
      17    C6      20.286735   18.942155   24.787050 C.3        1 MOL1        -0.1437
      18    H12     20.315069   20.012575   24.543840 H          1 MOL1         0.0947
      19    H13     21.217196   18.507798   24.396190 H          1 MOL1         0.0947
      20    C7      20.267630   18.774293   26.324383 C.3        1 MOL1        -0.1477
      21    H14     20.275230   17.706176   26.579437 H          1 MOL1         0.0947
      22    H15     21.188116   19.203844   26.741659 H          1 MOL1         0.0947
      23    C8      19.051550   19.454614   26.980189 C.3        1 MOL1         0.0145
      24    H16     18.128752   19.006045   26.603402 H          1 MOL1         0.0921
      25    H17     19.045396   20.518684   26.729039 H          1 MOL1         0.0921
      26    N1      19.046141   19.330167   28.489969 N.4        1 MOL1        -0.5969
      27    H18     19.877046   19.758599   28.911314 H          1 MOL1         0.3603
      28    H19     19.025374   18.350513   28.792177 H          1 MOL1         0.3603
      29    H20     18.228963   19.789270   28.907236 H          1 MOL1         0.3603
@<TRIPOS>BOND
    1     1     2    1
    2     1     3    1
    3     1     4    1
    4     1     5    1
    5     5     6    1
    6     5     7    1
    7     5     8    1
    8     8     9    1
    9     8    10    1
   10     8    11    1
   11    11    12    1
   12    11    13    1
   13    11    14    1
   14    14    15    1
   15    14    16    1
   16    14    17    1
   17    17    18    1
   18    17    19    1
   19    17    20    1
   20    20    21    1
   21    20    22    1
   22    20    23    1
   23    23    24    1
   24    23    25    1
   25    23    26    1
   26    26    27    1
   27    26    28    1
   28    26    29    1
@<TRIPOS>SUBSTRUCTURE
       1 MOL1            1 RESIDUE      1      MOL     
@<SCITEGIC>MOL_PROPERTY
VM2 Rank
SciTegic.value.IntegerValue
110

@<SCITEGIC>MOL_PROPERTY
Conf_Id
SciTegic.value.IntegerValue
1620

@<SCITEGIC>MOL_PROPERTY
Probability
SciTegic.value.DoubleValue
0.29

@<SCITEGIC>MOL_PROPERTY
Sum Probability
SciTegic.value.DoubleValue
85.16

@<SCITEGIC>MOL_PROPERTY
Delta G
SciTegic.value.DoubleValue
1.728

@<SCITEGIC>MOL_PROPERTY
G
SciTegic.value.DoubleValue
59.874

@<SCITEGIC>MOL_PROPERTY
E
SciTegic.value.DoubleValue
22.344

@<SCITEGIC>MOL_PROPERTY
-TS
SciTegic.value.DoubleValue
37.531

@<SCITEGIC>MOL_PROPERTY
U+W
SciTegic.value.DoubleValue
-1.801

@<SCITEGIC>MOL_PROPERTY
U
SciTegic.value.DoubleValue
49.749

@<SCITEGIC>MOL_PROPERTY
W
SciTegic.value.DoubleValue
-51.550

@<SCITEGIC>MOL_PROPERTY
W(PB)
SciTegic.value.DoubleValue
-54.049

@<SCITEGIC>MOL_PROPERTY
W(SA)
SciTegic.value.DoubleValue
2.499

@<SCITEGIC>MOL_PROPERTY
Valence
SciTegic.value.DoubleValue
3.885

@<SCITEGIC>MOL_PROPERTY
Coulomb
SciTegic.value.DoubleValue
44.883

@<SCITEGIC>MOL_PROPERTY
VdW
SciTegic.value.DoubleValue
0.980

@<SCITEGIC>MOL_PROPERTY
VdW6
SciTegic.value.DoubleValue
-8.856

@<SCITEGIC>MOL_PROPERTY
VdW12
SciTegic.value.DoubleValue
9.836

@<SCITEGIC>MOL_PROPERTY
Bond
SciTegic.value.DoubleValue
0.242

@<SCITEGIC>MOL_PROPERTY
Angle
SciTegic.value.DoubleValue
0.948

@<SCITEGIC>MOL_PROPERTY
Pdih
SciTegic.value.DoubleValue
2.696

@<SCITEGIC>MOL_PROPERTY
Idih
SciTegic.value.DoubleValue
0.000

@<SCITEGIC>MOL_PROPERTY
Tether
SciTegic.value.DoubleValue
0.000

@<TRIPOS>MOLECULE
guest-3_vm2.mol2 : vm2 ligand conformer 111
          29          28           1
SMALL
USER_CHARGES
 
@<TRIPOS>ATOM
       1    C1      20.319772   19.325427   19.350660 C.3        1 MOL1        -0.2427
       2    H1      21.299483   19.686954   19.012287 H          1 MOL1         0.0958
       3    H2      20.211252   18.284668   19.018561 H          1 MOL1         0.0958
       4    H3      19.548279   19.926020   18.851348 H          1 MOL1         0.0958
       5    C2      20.199852   19.432625   20.885607 C.3        1 MOL1        -0.1412
       6    H4      20.341773   20.479015   21.189883 H          1 MOL1         0.0947
       7    H5      21.010299   18.853474   21.347741 H          1 MOL1         0.0947
       8    C3      18.827571   18.924377   21.386927 C.3        1 MOL1        -0.1437
       9    H6      18.031030   19.464219   20.856473 H          1 MOL1         0.0947
      10    H7      18.707494   17.863864   21.125968 H          1 MOL1         0.0947
      11    C4      18.617906   19.111654   22.909528 C.3        1 MOL1        -0.1437
      12    H8      17.586137   18.826036   23.156427 H          1 MOL1         0.0947
      13    H9      18.713078   20.177197   23.156139 H          1 MOL1         0.0947
      14    C5      19.594961   18.274050   23.772937 C.3        1 MOL1        -0.1437
      15    H10     19.581634   17.233659   23.419973 H          1 MOL1         0.0947
      16    H11     20.623129   18.634585   23.637347 H          1 MOL1         0.0947
      17    C6      19.248852   18.283876   25.282163 C.3        1 MOL1        -0.1437
      18    H12     19.914836   17.573981   25.790178 H          1 MOL1         0.0947
      19    H13     18.226992   17.907093   25.427919 H          1 MOL1         0.0947
      20    C7      19.388284   19.680609   25.937938 C.3        1 MOL1        -0.1477
      21    H14     20.400506   20.073887   25.775099 H          1 MOL1         0.0947
      22    H15     18.696196   20.385714   25.461085 H          1 MOL1         0.0947
      23    C8      19.081072   19.660991   27.447749 C.3        1 MOL1         0.0145
      24    H16     18.080903   19.252129   27.614732 H          1 MOL1         0.0921
      25    H17     19.100537   20.683484   27.834614 H          1 MOL1         0.0921
      26    N1      20.065730   18.844393   28.261491 N.4        1 MOL1        -0.5969
      27    H18     20.071907   17.860814   27.973904 H          1 MOL1         0.3603
      28    H19     19.840668   18.863522   29.262276 H          1 MOL1         0.3603
      29    H20     21.024038   19.195404   28.162899 H          1 MOL1         0.3603
@<TRIPOS>BOND
    1     1     2    1
    2     1     3    1
    3     1     4    1
    4     1     5    1
    5     5     6    1
    6     5     7    1
    7     5     8    1
    8     8     9    1
    9     8    10    1
   10     8    11    1
   11    11    12    1
   12    11    13    1
   13    11    14    1
   14    14    15    1
   15    14    16    1
   16    14    17    1
   17    17    18    1
   18    17    19    1
   19    17    20    1
   20    20    21    1
   21    20    22    1
   22    20    23    1
   23    23    24    1
   24    23    25    1
   25    23    26    1
   26    26    27    1
   27    26    28    1
   28    26    29    1
@<TRIPOS>SUBSTRUCTURE
       1 MOL1            1 RESIDUE      1      MOL     
@<SCITEGIC>MOL_PROPERTY
VM2 Rank
SciTegic.value.IntegerValue
111

@<SCITEGIC>MOL_PROPERTY
Conf_Id
SciTegic.value.IntegerValue
1332

@<SCITEGIC>MOL_PROPERTY
Probability
SciTegic.value.DoubleValue
0.29

@<SCITEGIC>MOL_PROPERTY
Sum Probability
SciTegic.value.DoubleValue
85.45

@<SCITEGIC>MOL_PROPERTY
Delta G
SciTegic.value.DoubleValue
1.732

@<SCITEGIC>MOL_PROPERTY
G
SciTegic.value.DoubleValue
59.878

@<SCITEGIC>MOL_PROPERTY
E
SciTegic.value.DoubleValue
22.375

@<SCITEGIC>MOL_PROPERTY
-TS
SciTegic.value.DoubleValue
37.503

@<SCITEGIC>MOL_PROPERTY
U+W
SciTegic.value.DoubleValue
-1.769

@<SCITEGIC>MOL_PROPERTY
U
SciTegic.value.DoubleValue
49.751

@<SCITEGIC>MOL_PROPERTY
W
SciTegic.value.DoubleValue
-51.520

@<SCITEGIC>MOL_PROPERTY
W(PB)
SciTegic.value.DoubleValue
-54.042

@<SCITEGIC>MOL_PROPERTY
W(SA)
SciTegic.value.DoubleValue
2.521

@<SCITEGIC>MOL_PROPERTY
Valence
SciTegic.value.DoubleValue
3.759

@<SCITEGIC>MOL_PROPERTY
Coulomb
SciTegic.value.DoubleValue
44.916

@<SCITEGIC>MOL_PROPERTY
VdW
SciTegic.value.DoubleValue
1.076

@<SCITEGIC>MOL_PROPERTY
VdW6
SciTegic.value.DoubleValue
-8.772

@<SCITEGIC>MOL_PROPERTY
VdW12
SciTegic.value.DoubleValue
9.848

@<SCITEGIC>MOL_PROPERTY
Bond
SciTegic.value.DoubleValue
0.248

@<SCITEGIC>MOL_PROPERTY
Angle
SciTegic.value.DoubleValue
0.934

@<SCITEGIC>MOL_PROPERTY
Pdih
SciTegic.value.DoubleValue
2.577

@<SCITEGIC>MOL_PROPERTY
Idih
SciTegic.value.DoubleValue
0.000

@<SCITEGIC>MOL_PROPERTY
Tether
SciTegic.value.DoubleValue
0.000

@<TRIPOS>MOLECULE
guest-3_vm2.mol2 : vm2 ligand conformer 112
          29          28           1
SMALL
USER_CHARGES
 
@<TRIPOS>ATOM
       1    C1      20.938717   18.170613   20.413766 C.3        1 MOL1        -0.2427
       2    H1      21.283749   17.132259   20.325564 H          1 MOL1         0.0958
       3    H2      20.605827   18.500444   19.420989 H          1 MOL1         0.0958
       4    H3      21.797502   18.787459   20.709064 H          1 MOL1         0.0958
       5    C2      19.797151   18.279478   21.446556 C.3        1 MOL1        -0.1412
       6    H4      20.155738   17.904443   22.414367 H          1 MOL1         0.0947
       7    H5      18.965072   17.630111   21.140686 H          1 MOL1         0.0947
       8    C3      19.296634   19.735819   21.591656 C.3        1 MOL1        -0.1437
       9    H6      20.117481   20.377696   21.937698 H          1 MOL1         0.0947
      10    H7      19.014755   20.116443   20.600272 H          1 MOL1         0.0947
      11    C4      18.074518   19.881883   22.534910 C.3        1 MOL1        -0.1437
      12    H8      17.225961   19.331789   22.105391 H          1 MOL1         0.0947
      13    H9      17.768745   20.936980   22.554813 H          1 MOL1         0.0947
      14    C5      18.297375   19.395629   23.990203 C.3        1 MOL1        -0.1437
      15    H10     17.365487   19.549024   24.551629 H          1 MOL1         0.0947
      16    H11     18.476853   18.312990   23.993684 H          1 MOL1         0.0947
      17    C6      19.450600   20.132593   24.716585 C.3        1 MOL1        -0.1437
      18    H12     19.296451   21.217096   24.631721 H          1 MOL1         0.0947
      19    H13     20.407675   19.913113   24.224927 H          1 MOL1         0.0947
      20    C7      19.556187   19.760237   26.213832 C.3        1 MOL1        -0.1477
      21    H14     20.335252   20.377435   26.680773 H          1 MOL1         0.0947
      22    H15     18.614207   20.004479   26.722736 H          1 MOL1         0.0947
      23    C8      19.892924   18.273403   26.432312 C.3        1 MOL1         0.0145
      24    H16     20.832037   18.030839   25.927740 H          1 MOL1         0.0921
      25    H17     19.102404   17.648679   26.008643 H          1 MOL1         0.0921
      26    N1      20.039893   17.908344   27.895181 N.4        1 MOL1        -0.5969
      27    H18     20.263927   16.914862   28.019429 H          1 MOL1         0.3603
      28    H19     19.178836   18.088794   28.421952 H          1 MOL1         0.3603
      29    H20     20.788691   18.442439   28.348516 H          1 MOL1         0.3603
@<TRIPOS>BOND
    1     1     2    1
    2     1     3    1
    3     1     4    1
    4     1     5    1
    5     5     6    1
    6     5     7    1
    7     5     8    1
    8     8     9    1
    9     8    10    1
   10     8    11    1
   11    11    12    1
   12    11    13    1
   13    11    14    1
   14    14    15    1
   15    14    16    1
   16    14    17    1
   17    17    18    1
   18    17    19    1
   19    17    20    1
   20    20    21    1
   21    20    22    1
   22    20    23    1
   23    23    24    1
   24    23    25    1
   25    23    26    1
   26    26    27    1
   27    26    28    1
   28    26    29    1
@<TRIPOS>SUBSTRUCTURE
       1 MOL1            1 RESIDUE      1      MOL     
@<SCITEGIC>MOL_PROPERTY
VM2 Rank
SciTegic.value.IntegerValue
112

@<SCITEGIC>MOL_PROPERTY
Conf_Id
SciTegic.value.IntegerValue
342

@<SCITEGIC>MOL_PROPERTY
Probability
SciTegic.value.DoubleValue
0.28

@<SCITEGIC>MOL_PROPERTY
Sum Probability
SciTegic.value.DoubleValue
85.74

@<SCITEGIC>MOL_PROPERTY
Delta G
SciTegic.value.DoubleValue
1.741

@<SCITEGIC>MOL_PROPERTY
G
SciTegic.value.DoubleValue
59.887

@<SCITEGIC>MOL_PROPERTY
E
SciTegic.value.DoubleValue
22.148

@<SCITEGIC>MOL_PROPERTY
-TS
SciTegic.value.DoubleValue
37.739

@<SCITEGIC>MOL_PROPERTY
U+W
SciTegic.value.DoubleValue
-1.996

@<SCITEGIC>MOL_PROPERTY
U
SciTegic.value.DoubleValue
49.970

@<SCITEGIC>MOL_PROPERTY
W
SciTegic.value.DoubleValue
-51.966

@<SCITEGIC>MOL_PROPERTY
W(PB)
SciTegic.value.DoubleValue
-54.458

@<SCITEGIC>MOL_PROPERTY
W(SA)
SciTegic.value.DoubleValue
2.492

@<SCITEGIC>MOL_PROPERTY
Valence
SciTegic.value.DoubleValue
3.848

@<SCITEGIC>MOL_PROPERTY
Coulomb
SciTegic.value.DoubleValue
45.370

@<SCITEGIC>MOL_PROPERTY
VdW
SciTegic.value.DoubleValue
0.752

@<SCITEGIC>MOL_PROPERTY
VdW6
SciTegic.value.DoubleValue
-9.323

@<SCITEGIC>MOL_PROPERTY
VdW12
SciTegic.value.DoubleValue
10.075

@<SCITEGIC>MOL_PROPERTY
Bond
SciTegic.value.DoubleValue
0.251

@<SCITEGIC>MOL_PROPERTY
Angle
SciTegic.value.DoubleValue
1.161

@<SCITEGIC>MOL_PROPERTY
Pdih
SciTegic.value.DoubleValue
2.436

@<SCITEGIC>MOL_PROPERTY
Idih
SciTegic.value.DoubleValue
0.000

@<SCITEGIC>MOL_PROPERTY
Tether
SciTegic.value.DoubleValue
0.000

@<TRIPOS>MOLECULE
guest-3_vm2.mol2 : vm2 ligand conformer 113
          29          28           1
SMALL
USER_CHARGES
 
@<TRIPOS>ATOM
       1    C1      20.992730   18.740162   19.905179 C.3        1 MOL1        -0.2427
       2    H1      21.734526   19.475638   20.242892 H          1 MOL1         0.0958
       3    H2      21.363044   17.738751   20.160686 H          1 MOL1         0.0958
       4    H3      20.926447   18.806136   18.811426 H          1 MOL1         0.0958
       5    C2      19.616169   19.003854   20.551296 C.3        1 MOL1        -0.1412
       6    H4      18.888371   18.274908   20.168133 H          1 MOL1         0.0947
       7    H5      19.256978   19.998335   20.251481 H          1 MOL1         0.0947
       8    C3      19.681424   18.916123   22.092083 C.3        1 MOL1        -0.1437
       9    H6      20.038915   17.919855   22.386616 H          1 MOL1         0.0947
      10    H7      20.417606   19.642310   22.460566 H          1 MOL1         0.0947
      11    C4      18.302350   19.184297   22.741115 C.3        1 MOL1        -0.1437
      12    H8      17.562562   18.499002   22.304766 H          1 MOL1         0.0947
      13    H9      17.966179   20.200193   22.491741 H          1 MOL1         0.0947
      14    C5      18.295689   18.998061   24.278074 C.3        1 MOL1        -0.1437
      15    H10     17.261103   19.093872   24.635399 H          1 MOL1         0.0947
      16    H11     18.612359   17.974505   24.518980 H          1 MOL1         0.0947
      17    C6      19.184070   20.023061   25.027240 C.3        1 MOL1        -0.1437
      18    H12     18.916271   21.037762   24.702008 H          1 MOL1         0.0947
      19    H13     20.237764   19.882092   24.755610 H          1 MOL1         0.0947
      20    C7      19.033586   19.942901   26.566992 C.3        1 MOL1        -0.1477
      21    H14     19.659635   20.714793   27.033944 H          1 MOL1         0.0947
      22    H15     17.997636   20.181123   26.842500 H          1 MOL1         0.0947
      23    C8      19.399509   18.567708   27.161129 C.3        1 MOL1         0.0145
      24    H16     18.751616   17.796968   26.735814 H          1 MOL1         0.0921
      25    H17     19.241161   18.585572   28.242828 H          1 MOL1         0.0921
      26    N1      20.838473   18.161831   26.911893 N.4        1 MOL1        -0.5969
      27    H18     21.043323   18.098130   25.909807 H          1 MOL1         0.3603
      28    H19     21.053232   17.247072   27.323665 H          1 MOL1         0.3603
      29    H20     21.498257   18.835092   27.315122 H          1 MOL1         0.3603
@<TRIPOS>BOND
    1     1     2    1
    2     1     3    1
    3     1     4    1
    4     1     5    1
    5     5     6    1
    6     5     7    1
    7     5     8    1
    8     8     9    1
    9     8    10    1
   10     8    11    1
   11    11    12    1
   12    11    13    1
   13    11    14    1
   14    14    15    1
   15    14    16    1
   16    14    17    1
   17    17    18    1
   18    17    19    1
   19    17    20    1
   20    20    21    1
   21    20    22    1
   22    20    23    1
   23    23    24    1
   24    23    25    1
   25    23    26    1
   26    26    27    1
   27    26    28    1
   28    26    29    1
@<TRIPOS>SUBSTRUCTURE
       1 MOL1            1 RESIDUE      1      MOL     
@<SCITEGIC>MOL_PROPERTY
VM2 Rank
SciTegic.value.IntegerValue
113

@<SCITEGIC>MOL_PROPERTY
Conf_Id
SciTegic.value.IntegerValue
1964

@<SCITEGIC>MOL_PROPERTY
Probability
SciTegic.value.DoubleValue
0.28

@<SCITEGIC>MOL_PROPERTY
Sum Probability
SciTegic.value.DoubleValue
86.02

@<SCITEGIC>MOL_PROPERTY
Delta G
SciTegic.value.DoubleValue
1.745

@<SCITEGIC>MOL_PROPERTY
G
SciTegic.value.DoubleValue
59.891

@<SCITEGIC>MOL_PROPERTY
E
SciTegic.value.DoubleValue
22.305

@<SCITEGIC>MOL_PROPERTY
-TS
SciTegic.value.DoubleValue
37.586

@<SCITEGIC>MOL_PROPERTY
U+W
SciTegic.value.DoubleValue
-1.839

@<SCITEGIC>MOL_PROPERTY
U
SciTegic.value.DoubleValue
50.207

@<SCITEGIC>MOL_PROPERTY
W
SciTegic.value.DoubleValue
-52.046

@<SCITEGIC>MOL_PROPERTY
W(PB)
SciTegic.value.DoubleValue
-54.515

@<SCITEGIC>MOL_PROPERTY
W(SA)
SciTegic.value.DoubleValue
2.469

@<SCITEGIC>MOL_PROPERTY
Valence
SciTegic.value.DoubleValue
3.485

@<SCITEGIC>MOL_PROPERTY
Coulomb
SciTegic.value.DoubleValue
45.881

@<SCITEGIC>MOL_PROPERTY
VdW
SciTegic.value.DoubleValue
0.841

@<SCITEGIC>MOL_PROPERTY
VdW6
SciTegic.value.DoubleValue
-9.001

@<SCITEGIC>MOL_PROPERTY
VdW12
SciTegic.value.DoubleValue
9.843

@<SCITEGIC>MOL_PROPERTY
Bond
SciTegic.value.DoubleValue
0.232

@<SCITEGIC>MOL_PROPERTY
Angle
SciTegic.value.DoubleValue
0.851

@<SCITEGIC>MOL_PROPERTY
Pdih
SciTegic.value.DoubleValue
2.402

@<SCITEGIC>MOL_PROPERTY
Idih
SciTegic.value.DoubleValue
0.000

@<SCITEGIC>MOL_PROPERTY
Tether
SciTegic.value.DoubleValue
0.000

@<TRIPOS>MOLECULE
guest-3_vm2.mol2 : vm2 ligand conformer 114
          29          28           1
SMALL
USER_CHARGES
 
@<TRIPOS>ATOM
       1    C1      21.222389   18.965393   20.431918 C.3        1 MOL1        -0.2427
       2    H1      20.770138   18.960209   19.431592 H          1 MOL1         0.0958
       3    H2      22.147616   19.553856   20.380227 H          1 MOL1         0.0958
       4    H3      21.493075   17.933332   20.690360 H          1 MOL1         0.0958
       5    C2      20.254737   19.562256   21.475508 C.3        1 MOL1        -0.1412
       6    H4      20.025471   20.603009   21.207437 H          1 MOL1         0.0947
       7    H5      20.755831   19.587125   22.452330 H          1 MOL1         0.0947
       8    C3      18.943891   18.746573   21.569594 C.3        1 MOL1        -0.1437
       9    H6      18.499014   18.669795   20.567915 H          1 MOL1         0.0947
      10    H7      19.168623   17.717128   21.878261 H          1 MOL1         0.0947
      11    C4      17.891593   19.369163   22.523368 C.3        1 MOL1        -0.1437
      12    H8      16.987179   18.745590   22.505653 H          1 MOL1         0.0947
      13    H9      17.588478   20.348411   22.127979 H          1 MOL1         0.0947
      14    C5      18.350991   19.546704   23.993546 C.3        1 MOL1        -0.1437
      15    H10     19.174741   20.270470   24.037451 H          1 MOL1         0.0947
      16    H11     17.524314   19.995295   24.561449 H          1 MOL1         0.0947
      17    C6      18.767519   18.218432   24.673897 C.3        1 MOL1        -0.1437
      18    H12     19.654327   17.802100   24.177786 H          1 MOL1         0.0947
      19    H13     17.963230   17.480523   24.548509 H          1 MOL1         0.0947
      20    C7      19.063902   18.380484   26.183018 C.3        1 MOL1        -0.1477
      21    H14     18.172895   18.767452   26.695195 H          1 MOL1         0.0947
      22    H15     19.270107   17.391801   26.614173 H          1 MOL1         0.0947
      23    C8      20.262272   19.308743   26.455138 C.3        1 MOL1         0.0145
      24    H16     20.051311   20.308806   26.067752 H          1 MOL1         0.0921
      25    H17     21.149905   18.922165   25.947171 H          1 MOL1         0.0921
      26    N1      20.586706   19.440251   27.929013 N.4        1 MOL1        -0.5969
      27    H18     20.822361   18.535521   28.350200 H          1 MOL1         0.3603
      28    H19     19.798490   19.824559   28.460513 H          1 MOL1         0.3603
      29    H20     21.386956   20.062029   28.089105 H          1 MOL1         0.3603
@<TRIPOS>BOND
    1     1     2    1
    2     1     3    1
    3     1     4    1
    4     1     5    1
    5     5     6    1
    6     5     7    1
    7     5     8    1
    8     8     9    1
    9     8    10    1
   10     8    11    1
   11    11    12    1
   12    11    13    1
   13    11    14    1
   14    14    15    1
   15    14    16    1
   16    14    17    1
   17    17    18    1
   18    17    19    1
   19    17    20    1
   20    20    21    1
   21    20    22    1
   22    20    23    1
   23    23    24    1
   24    23    25    1
   25    23    26    1
   26    26    27    1
   27    26    28    1
   28    26    29    1
@<TRIPOS>SUBSTRUCTURE
       1 MOL1            1 RESIDUE      1      MOL     
@<SCITEGIC>MOL_PROPERTY
VM2 Rank
SciTegic.value.IntegerValue
114

@<SCITEGIC>MOL_PROPERTY
Conf_Id
SciTegic.value.IntegerValue
2252

@<SCITEGIC>MOL_PROPERTY
Probability
SciTegic.value.DoubleValue
0.28

@<SCITEGIC>MOL_PROPERTY
Sum Probability
SciTegic.value.DoubleValue
86.30

@<SCITEGIC>MOL_PROPERTY
Delta G
SciTegic.value.DoubleValue
1.746

@<SCITEGIC>MOL_PROPERTY
G
SciTegic.value.DoubleValue
59.892

@<SCITEGIC>MOL_PROPERTY
E
SciTegic.value.DoubleValue
22.153

@<SCITEGIC>MOL_PROPERTY
-TS
SciTegic.value.DoubleValue
37.739

@<SCITEGIC>MOL_PROPERTY
U+W
SciTegic.value.DoubleValue
-1.992

@<SCITEGIC>MOL_PROPERTY
U
SciTegic.value.DoubleValue
49.970

@<SCITEGIC>MOL_PROPERTY
W
SciTegic.value.DoubleValue
-51.962

@<SCITEGIC>MOL_PROPERTY
W(PB)
SciTegic.value.DoubleValue
-54.437

@<SCITEGIC>MOL_PROPERTY
W(SA)
SciTegic.value.DoubleValue
2.476

@<SCITEGIC>MOL_PROPERTY
Valence
SciTegic.value.DoubleValue
3.848

@<SCITEGIC>MOL_PROPERTY
Coulomb
SciTegic.value.DoubleValue
45.370

@<SCITEGIC>MOL_PROPERTY
VdW
SciTegic.value.DoubleValue
0.752

@<SCITEGIC>MOL_PROPERTY
VdW6
SciTegic.value.DoubleValue
-9.323

@<SCITEGIC>MOL_PROPERTY
VdW12
SciTegic.value.DoubleValue
10.075

@<SCITEGIC>MOL_PROPERTY
Bond
SciTegic.value.DoubleValue
0.251

@<SCITEGIC>MOL_PROPERTY
Angle
SciTegic.value.DoubleValue
1.161

@<SCITEGIC>MOL_PROPERTY
Pdih
SciTegic.value.DoubleValue
2.436

@<SCITEGIC>MOL_PROPERTY
Idih
SciTegic.value.DoubleValue
0.000

@<SCITEGIC>MOL_PROPERTY
Tether
SciTegic.value.DoubleValue
0.000

@<TRIPOS>MOLECULE
guest-3_vm2.mol2 : vm2 ligand conformer 115
          29          28           1
SMALL
USER_CHARGES
 
@<TRIPOS>ATOM
       1    C1      21.026505   18.037078   20.875085 C.3        1 MOL1        -0.2427
       2    H1      20.802310   17.330399   21.683637 H          1 MOL1         0.0958
       3    H2      21.325177   17.449575   19.997271 H          1 MOL1         0.0958
       4    H3      21.886819   18.647256   21.179332 H          1 MOL1         0.0958
       5    C2      19.805936   18.924625   20.541640 C.3        1 MOL1        -0.1412
       6    H4      18.950067   18.290137   20.272149 H          1 MOL1         0.0947
       7    H5      20.037322   19.523857   19.649941 H          1 MOL1         0.0947
       8    C3      19.407262   19.880415   21.691861 C.3        1 MOL1        -0.1437
       9    H6      20.259970   20.525432   21.944944 H          1 MOL1         0.0947
      10    H7      18.611765   20.546849   21.330913 H          1 MOL1         0.0947
      11    C4      18.914331   19.145430   22.961233 C.3        1 MOL1        -0.1437
      12    H8      19.725511   18.525321   23.361761 H          1 MOL1         0.0947
      13    H9      18.091256   18.467652   22.696524 H          1 MOL1         0.0947
      14    C5      18.437401   20.138192   24.048241 C.3        1 MOL1        -0.1437
      15    H10     19.269922   20.790305   24.344684 H          1 MOL1         0.0947
      16    H11     17.673141   20.800185   23.618216 H          1 MOL1         0.0947
      17    C6      17.834559   19.446651   25.298395 C.3        1 MOL1        -0.1437
      18    H12     16.938042   18.884904   25.001896 H          1 MOL1         0.0947
      19    H13     17.488276   20.221538   25.996283 H          1 MOL1         0.0947
      20    C7      18.799656   18.493995   26.047074 C.3        1 MOL1        -0.1477
      21    H14     18.283692   18.088006   26.927286 H          1 MOL1         0.0947
      22    H15     19.046533   17.633514   25.412242 H          1 MOL1         0.0947
      23    C8      20.094455   19.193354   26.500509 C.3        1 MOL1         0.0145
      24    H16     19.848175   20.043370   27.142486 H          1 MOL1         0.0921
      25    H17     20.637439   19.565819   25.627912 H          1 MOL1         0.0921
      26    N1      21.023895   18.278259   27.270962 N.4        1 MOL1        -0.5969
      27    H18     20.581765   17.913762   28.121318 H          1 MOL1         0.3603
      28    H19     21.879495   18.763065   27.563378 H          1 MOL1         0.3603
      29    H20     21.314518   17.469878   26.711180 H          1 MOL1         0.3603
@<TRIPOS>BOND
    1     1     2    1
    2     1     3    1
    3     1     4    1
    4     1     5    1
    5     5     6    1
    6     5     7    1
    7     5     8    1
    8     8     9    1
    9     8    10    1
   10     8    11    1
   11    11    12    1
   12    11    13    1
   13    11    14    1
   14    14    15    1
   15    14    16    1
   16    14    17    1
   17    17    18    1
   18    17    19    1
   19    17    20    1
   20    20    21    1
   21    20    22    1
   22    20    23    1
   23    23    24    1
   24    23    25    1
   25    23    26    1
   26    26    27    1
   27    26    28    1
   28    26    29    1
@<TRIPOS>SUBSTRUCTURE
       1 MOL1            1 RESIDUE      1      MOL     
@<SCITEGIC>MOL_PROPERTY
VM2 Rank
SciTegic.value.IntegerValue
115

@<SCITEGIC>MOL_PROPERTY
Conf_Id
SciTegic.value.IntegerValue
973

@<SCITEGIC>MOL_PROPERTY
Probability
SciTegic.value.DoubleValue
0.28

@<SCITEGIC>MOL_PROPERTY
Sum Probability
SciTegic.value.DoubleValue
86.58

@<SCITEGIC>MOL_PROPERTY
Delta G
SciTegic.value.DoubleValue
1.747

@<SCITEGIC>MOL_PROPERTY
G
SciTegic.value.DoubleValue
59.894

@<SCITEGIC>MOL_PROPERTY
E
SciTegic.value.DoubleValue
22.256

@<SCITEGIC>MOL_PROPERTY
-TS
SciTegic.value.DoubleValue
37.638

@<SCITEGIC>MOL_PROPERTY
U+W
SciTegic.value.DoubleValue
-1.889

@<SCITEGIC>MOL_PROPERTY
U
SciTegic.value.DoubleValue
50.295

@<SCITEGIC>MOL_PROPERTY
W
SciTegic.value.DoubleValue
-52.184

@<SCITEGIC>MOL_PROPERTY
W(PB)
SciTegic.value.DoubleValue
-54.686

@<SCITEGIC>MOL_PROPERTY
W(SA)
SciTegic.value.DoubleValue
2.502

@<SCITEGIC>MOL_PROPERTY
Valence
SciTegic.value.DoubleValue
3.839

@<SCITEGIC>MOL_PROPERTY
Coulomb
SciTegic.value.DoubleValue
45.618

@<SCITEGIC>MOL_PROPERTY
VdW
SciTegic.value.DoubleValue
0.839

@<SCITEGIC>MOL_PROPERTY
VdW6
SciTegic.value.DoubleValue
-9.210

@<SCITEGIC>MOL_PROPERTY
VdW12
SciTegic.value.DoubleValue
10.049

@<SCITEGIC>MOL_PROPERTY
Bond
SciTegic.value.DoubleValue
0.249

@<SCITEGIC>MOL_PROPERTY
Angle
SciTegic.value.DoubleValue
1.131

@<SCITEGIC>MOL_PROPERTY
Pdih
SciTegic.value.DoubleValue
2.459

@<SCITEGIC>MOL_PROPERTY
Idih
SciTegic.value.DoubleValue
0.000

@<SCITEGIC>MOL_PROPERTY
Tether
SciTegic.value.DoubleValue
0.000

@<TRIPOS>MOLECULE
guest-3_vm2.mol2 : vm2 ligand conformer 116
          29          28           1
SMALL
USER_CHARGES
 
@<TRIPOS>ATOM
       1    C1      20.340920   18.058275   19.906569 C.3        1 MOL1        -0.2427
       2    H1      19.454633   18.271856   19.294910 H          1 MOL1         0.0958
       3    H2      21.164963   18.687875   19.546319 H          1 MOL1         0.0958
       4    H3      20.620623   17.009848   19.740457 H          1 MOL1         0.0958
       5    C2      20.057645   18.316338   21.401575 C.3        1 MOL1        -0.1412
       6    H4      20.951418   18.066334   21.990074 H          1 MOL1         0.0947
       7    H5      19.257793   17.641549   21.734136 H          1 MOL1         0.0947
       8    C3      19.656843   19.787929   21.659830 C.3        1 MOL1        -0.1437
       9    H6      20.434563   20.447042   21.249959 H          1 MOL1         0.0947
      10    H7      18.733936   20.022473   21.111725 H          1 MOL1         0.0947
      11    C4      19.470070   20.123100   23.159728 C.3        1 MOL1        -0.1437
      12    H8      19.300791   21.204270   23.257133 H          1 MOL1         0.0947
      13    H9      20.403590   19.905187   23.695106 H          1 MOL1         0.0947
      14    C5      18.288937   19.366205   23.817693 C.3        1 MOL1        -0.1437
      15    H10     17.389069   19.502639   23.202289 H          1 MOL1         0.0947
      16    H11     18.489759   18.287438   23.827843 H          1 MOL1         0.0947
      17    C6      17.974411   19.848278   25.257333 C.3        1 MOL1        -0.1437
      18    H12     17.107170   19.288955   25.634771 H          1 MOL1         0.0947
      19    H13     17.663623   20.901642   25.225021 H          1 MOL1         0.0947
      20    C7      19.143368   19.699479   26.262670 C.3        1 MOL1        -0.1477
      21    H14     19.972779   20.357972   25.974681 H          1 MOL1         0.0947
      22    H15     18.806913   20.042604   27.250027 H          1 MOL1         0.0947
      23    C8      19.648316   18.249330   26.378466 C.3        1 MOL1         0.0145
      24    H16     20.024006   17.911169   25.409193 H          1 MOL1         0.0921
      25    H17     18.824386   17.595427   26.676566 H          1 MOL1         0.0921
      26    N1      20.763489   18.089067   27.391135 N.4        1 MOL1        -0.5969
      27    H18     20.466161   18.365322   28.332794 H          1 MOL1         0.3603
      28    H19     21.580885   18.660319   27.152709 H          1 MOL1         0.3603
      29    H20     21.085350   17.116849   27.452644 H          1 MOL1         0.3603
@<TRIPOS>BOND
    1     1     2    1
    2     1     3    1
    3     1     4    1
    4     1     5    1
    5     5     6    1
    6     5     7    1
    7     5     8    1
    8     8     9    1
    9     8    10    1
   10     8    11    1
   11    11    12    1
   12    11    13    1
   13    11    14    1
   14    14    15    1
   15    14    16    1
   16    14    17    1
   17    17    18    1
   18    17    19    1
   19    17    20    1
   20    20    21    1
   21    20    22    1
   22    20    23    1
   23    23    24    1
   24    23    25    1
   25    23    26    1
   26    26    27    1
   27    26    28    1
   28    26    29    1
@<TRIPOS>SUBSTRUCTURE
       1 MOL1            1 RESIDUE      1      MOL     
@<SCITEGIC>MOL_PROPERTY
VM2 Rank
SciTegic.value.IntegerValue
116

@<SCITEGIC>MOL_PROPERTY
Conf_Id
SciTegic.value.IntegerValue
1169

@<SCITEGIC>MOL_PROPERTY
Probability
SciTegic.value.DoubleValue
0.28

@<SCITEGIC>MOL_PROPERTY
Sum Probability
SciTegic.value.DoubleValue
86.86

@<SCITEGIC>MOL_PROPERTY
Delta G
SciTegic.value.DoubleValue
1.754

@<SCITEGIC>MOL_PROPERTY
G
SciTegic.value.DoubleValue
59.900

@<SCITEGIC>MOL_PROPERTY
E
SciTegic.value.DoubleValue
22.256

@<SCITEGIC>MOL_PROPERTY
-TS
SciTegic.value.DoubleValue
37.645

@<SCITEGIC>MOL_PROPERTY
U+W
SciTegic.value.DoubleValue
-1.889

@<SCITEGIC>MOL_PROPERTY
U
SciTegic.value.DoubleValue
50.347

@<SCITEGIC>MOL_PROPERTY
W
SciTegic.value.DoubleValue
-52.236

@<SCITEGIC>MOL_PROPERTY
W(PB)
SciTegic.value.DoubleValue
-54.725

@<SCITEGIC>MOL_PROPERTY
W(SA)
SciTegic.value.DoubleValue
2.490

@<SCITEGIC>MOL_PROPERTY
Valence
SciTegic.value.DoubleValue
3.843

@<SCITEGIC>MOL_PROPERTY
Coulomb
SciTegic.value.DoubleValue
45.716

@<SCITEGIC>MOL_PROPERTY
VdW
SciTegic.value.DoubleValue
0.787

@<SCITEGIC>MOL_PROPERTY
VdW6
SciTegic.value.DoubleValue
-9.277

@<SCITEGIC>MOL_PROPERTY
VdW12
SciTegic.value.DoubleValue
10.064

@<SCITEGIC>MOL_PROPERTY
Bond
SciTegic.value.DoubleValue
0.250

@<SCITEGIC>MOL_PROPERTY
Angle
SciTegic.value.DoubleValue
1.092

@<SCITEGIC>MOL_PROPERTY
Pdih
SciTegic.value.DoubleValue
2.501

@<SCITEGIC>MOL_PROPERTY
Idih
SciTegic.value.DoubleValue
0.000

@<SCITEGIC>MOL_PROPERTY
Tether
SciTegic.value.DoubleValue
0.000

@<TRIPOS>MOLECULE
guest-3_vm2.mol2 : vm2 ligand conformer 117
          29          28           1
SMALL
USER_CHARGES
 
@<TRIPOS>ATOM
       1    C1      20.510541   18.284074   20.357389 C.3        1 MOL1        -0.2427
       2    H1      20.346940   17.519313   21.126877 H          1 MOL1         0.0958
       3    H2      19.790202   18.116323   19.546269 H          1 MOL1         0.0958
       4    H3      21.518118   18.132178   19.949285 H          1 MOL1         0.0958
       5    C2      20.370740   19.709347   20.937932 C.3        1 MOL1        -0.1412
       6    H4      20.658352   20.435727   20.165098 H          1 MOL1         0.0947
       7    H5      21.086148   19.846709   21.759719 H          1 MOL1         0.0947
       8    C3      18.934464   20.041702   21.416544 C.3        1 MOL1        -0.1437
       9    H6      18.914883   21.076866   21.784168 H          1 MOL1         0.0947
      10    H7      18.257781   20.017326   20.551328 H          1 MOL1         0.0947
      11    C4      18.368886   19.105931   22.515950 C.3        1 MOL1        -0.1437
      12    H8      18.275308   18.083916   22.125545 H          1 MOL1         0.0947
      13    H9      17.347464   19.432502   22.755079 H          1 MOL1         0.0947
      14    C5      19.211250   19.096416   23.813824 C.3        1 MOL1        -0.1437
      15    H10     20.213057   18.698885   23.604591 H          1 MOL1         0.0947
      16    H11     19.342286   20.128179   24.166021 H          1 MOL1         0.0947
      17    C6      18.548262   18.240109   24.919087 C.3        1 MOL1        -0.1437
      18    H12     18.373879   17.225900   24.533912 H          1 MOL1         0.0947
      19    H13     17.560333   18.653045   25.166146 H          1 MOL1         0.0947
      20    C7      19.402185   18.142403   26.204956 C.3        1 MOL1        -0.1477
      21    H14     18.912363   17.454153   26.906606 H          1 MOL1         0.0947
      22    H15     20.380452   17.704413   25.965879 H          1 MOL1         0.0947
      23    C8      19.599582   19.506195   26.892695 C.3        1 MOL1         0.0145
      24    H16     18.625820   19.941962   27.131988 H          1 MOL1         0.0921
      25    H17     20.126354   20.187576   26.219714 H          1 MOL1         0.0921
      26    N1      20.398089   19.411823   28.176622 N.4        1 MOL1        -0.5969
      27    H18     21.336994   19.032476   28.015303 H          1 MOL1         0.3603
      28    H19     19.941763   18.805448   28.866239 H          1 MOL1         0.3603
      29    H20     20.518262   20.329753   28.618924 H          1 MOL1         0.3603
@<TRIPOS>BOND
    1     1     2    1
    2     1     3    1
    3     1     4    1
    4     1     5    1
    5     5     6    1
    6     5     7    1
    7     5     8    1
    8     8     9    1
    9     8    10    1
   10     8    11    1
   11    11    12    1
   12    11    13    1
   13    11    14    1
   14    14    15    1
   15    14    16    1
   16    14    17    1
   17    17    18    1
   18    17    19    1
   19    17    20    1
   20    20    21    1
   21    20    22    1
   22    20    23    1
   23    23    24    1
   24    23    25    1
   25    23    26    1
   26    26    27    1
   27    26    28    1
   28    26    29    1
@<TRIPOS>SUBSTRUCTURE
       1 MOL1            1 RESIDUE      1      MOL     
@<SCITEGIC>MOL_PROPERTY
VM2 Rank
SciTegic.value.IntegerValue
117

@<SCITEGIC>MOL_PROPERTY
Conf_Id
SciTegic.value.IntegerValue
543

@<SCITEGIC>MOL_PROPERTY
Probability
SciTegic.value.DoubleValue
0.28

@<SCITEGIC>MOL_PROPERTY
Sum Probability
SciTegic.value.DoubleValue
87.14

@<SCITEGIC>MOL_PROPERTY
Delta G
SciTegic.value.DoubleValue
1.759

@<SCITEGIC>MOL_PROPERTY
G
SciTegic.value.DoubleValue
59.905

@<SCITEGIC>MOL_PROPERTY
E
SciTegic.value.DoubleValue
22.187

@<SCITEGIC>MOL_PROPERTY
-TS
SciTegic.value.DoubleValue
37.718

@<SCITEGIC>MOL_PROPERTY
U+W
SciTegic.value.DoubleValue
-1.957

@<SCITEGIC>MOL_PROPERTY
U
SciTegic.value.DoubleValue
49.729

@<SCITEGIC>MOL_PROPERTY
W
SciTegic.value.DoubleValue
-51.686

@<SCITEGIC>MOL_PROPERTY
W(PB)
SciTegic.value.DoubleValue
-54.188

@<SCITEGIC>MOL_PROPERTY
W(SA)
SciTegic.value.DoubleValue
2.502

@<SCITEGIC>MOL_PROPERTY
Valence
SciTegic.value.DoubleValue
3.843

@<SCITEGIC>MOL_PROPERTY
Coulomb
SciTegic.value.DoubleValue
45.022

@<SCITEGIC>MOL_PROPERTY
VdW
SciTegic.value.DoubleValue
0.863

@<SCITEGIC>MOL_PROPERTY
VdW6
SciTegic.value.DoubleValue
-9.127

@<SCITEGIC>MOL_PROPERTY
VdW12
SciTegic.value.DoubleValue
9.990

@<SCITEGIC>MOL_PROPERTY
Bond
SciTegic.value.DoubleValue
0.246

@<SCITEGIC>MOL_PROPERTY
Angle
SciTegic.value.DoubleValue
1.164

@<SCITEGIC>MOL_PROPERTY
Pdih
SciTegic.value.DoubleValue
2.433

@<SCITEGIC>MOL_PROPERTY
Idih
SciTegic.value.DoubleValue
0.000

@<SCITEGIC>MOL_PROPERTY
Tether
SciTegic.value.DoubleValue
0.000

@<TRIPOS>MOLECULE
guest-3_vm2.mol2 : vm2 ligand conformer 118
          29          28           1
SMALL
USER_CHARGES
 
@<TRIPOS>ATOM
       1    C1      20.884907   20.011235   20.847978 C.3        1 MOL1        -0.2427
       2    H1      20.349311   20.499051   20.023284 H          1 MOL1         0.0958
       3    H2      20.725303   20.601332   21.759049 H          1 MOL1         0.0958
       4    H3      21.957643   20.042475   20.617566 H          1 MOL1         0.0958
       5    C2      20.412513   18.551178   21.029854 C.3        1 MOL1        -0.1412
       6    H4      20.946461   18.090951   21.871920 H          1 MOL1         0.0947
       7    H5      20.699975   17.973129   20.140556 H          1 MOL1         0.0947
       8    C3      18.881095   18.418999   21.229568 C.3        1 MOL1        -0.1437
       9    H6      18.373544   18.769824   20.320499 H          1 MOL1         0.0947
      10    H7      18.627324   17.354151   21.323366 H          1 MOL1         0.0947
      11    C4      18.302216   19.183964   22.447806 C.3        1 MOL1        -0.1437
      12    H8      17.215099   19.026379   22.468730 H          1 MOL1         0.0947
      13    H9      18.447942   20.264187   22.315193 H          1 MOL1         0.0947
      14    C5      18.902924   18.736932   23.801892 C.3        1 MOL1        -0.1437
      15    H10     18.792265   17.649243   23.910296 H          1 MOL1         0.0947
      16    H11     19.978568   18.952836   23.814651 H          1 MOL1         0.0947
      17    C6      18.218339   19.447894   24.993712 C.3        1 MOL1        -0.1437
      18    H12     17.136177   19.261966   24.952618 H          1 MOL1         0.0947
      19    H13     18.350692   20.534962   24.902325 H          1 MOL1         0.0947
      20    C7      18.749999   18.977332   26.367833 C.3        1 MOL1        -0.1477
      21    H14     18.159261   19.454912   27.160850 H          1 MOL1         0.0947
      22    H15     18.598172   17.894619   26.471149 H          1 MOL1         0.0947
      23    C8      20.238245   19.314016   26.577215 C.3        1 MOL1         0.0145
      24    H16     20.389542   20.391988   26.474958 H          1 MOL1         0.0921
      25    H17     20.842764   18.807540   25.820457 H          1 MOL1         0.0921
      26    N1      20.753762   18.896450   27.939143 N.4        1 MOL1        -0.5969
      27    H18     20.244351   19.360172   28.698718 H          1 MOL1         0.3603
      28    H19     21.745795   19.129221   28.058898 H          1 MOL1         0.3603
      29    H20     20.663684   17.885913   28.088065 H          1 MOL1         0.3603
@<TRIPOS>BOND
    1     1     2    1
    2     1     3    1
    3     1     4    1
    4     1     5    1
    5     5     6    1
    6     5     7    1
    7     5     8    1
    8     8     9    1
    9     8    10    1
   10     8    11    1
   11    11    12    1
   12    11    13    1
   13    11    14    1
   14    14    15    1
   15    14    16    1
   16    14    17    1
   17    17    18    1
   18    17    19    1
   19    17    20    1
   20    20    21    1
   21    20    22    1
   22    20    23    1
   23    23    24    1
   24    23    25    1
   25    23    26    1
   26    26    27    1
   27    26    28    1
   28    26    29    1
@<TRIPOS>SUBSTRUCTURE
       1 MOL1            1 RESIDUE      1      MOL     
@<SCITEGIC>MOL_PROPERTY
VM2 Rank
SciTegic.value.IntegerValue
118

@<SCITEGIC>MOL_PROPERTY
Conf_Id
SciTegic.value.IntegerValue
1304

@<SCITEGIC>MOL_PROPERTY
Probability
SciTegic.value.DoubleValue
0.27

@<SCITEGIC>MOL_PROPERTY
Sum Probability
SciTegic.value.DoubleValue
87.41

@<SCITEGIC>MOL_PROPERTY
Delta G
SciTegic.value.DoubleValue
1.768

@<SCITEGIC>MOL_PROPERTY
G
SciTegic.value.DoubleValue
59.914

@<SCITEGIC>MOL_PROPERTY
E
SciTegic.value.DoubleValue
22.193

@<SCITEGIC>MOL_PROPERTY
-TS
SciTegic.value.DoubleValue
37.722

@<SCITEGIC>MOL_PROPERTY
U+W
SciTegic.value.DoubleValue
-1.952

@<SCITEGIC>MOL_PROPERTY
U
SciTegic.value.DoubleValue
49.868

@<SCITEGIC>MOL_PROPERTY
W
SciTegic.value.DoubleValue
-51.820

@<SCITEGIC>MOL_PROPERTY
W(PB)
SciTegic.value.DoubleValue
-54.292

@<SCITEGIC>MOL_PROPERTY
W(SA)
SciTegic.value.DoubleValue
2.472

@<SCITEGIC>MOL_PROPERTY
Valence
SciTegic.value.DoubleValue
3.839

@<SCITEGIC>MOL_PROPERTY
Coulomb
SciTegic.value.DoubleValue
45.179

@<SCITEGIC>MOL_PROPERTY
VdW
SciTegic.value.DoubleValue
0.851

@<SCITEGIC>MOL_PROPERTY
VdW6
SciTegic.value.DoubleValue
-9.167

@<SCITEGIC>MOL_PROPERTY
VdW12
SciTegic.value.DoubleValue
10.018

@<SCITEGIC>MOL_PROPERTY
Bond
SciTegic.value.DoubleValue
0.248

@<SCITEGIC>MOL_PROPERTY
Angle
SciTegic.value.DoubleValue
1.166

@<SCITEGIC>MOL_PROPERTY
Pdih
SciTegic.value.DoubleValue
2.425

@<SCITEGIC>MOL_PROPERTY
Idih
SciTegic.value.DoubleValue
0.000

@<SCITEGIC>MOL_PROPERTY
Tether
SciTegic.value.DoubleValue
0.000

@<TRIPOS>MOLECULE
guest-3_vm2.mol2 : vm2 ligand conformer 119
          29          28           1
SMALL
USER_CHARGES
 
@<TRIPOS>ATOM
       1    C1      20.132174   18.716972   19.682236 C.3        1 MOL1        -0.2427
       2    H1      20.532504   17.734003   19.962457 H          1 MOL1         0.0958
       3    H2      20.015181   18.733414   18.590926 H          1 MOL1         0.0958
       4    H3      20.875737   19.479287   19.946005 H          1 MOL1         0.0958
       5    C2      18.776917   18.983046   20.375665 C.3        1 MOL1        -0.1412
       6    H4      18.036017   18.267363   19.992778 H          1 MOL1         0.0947
       7    H5      18.410642   19.981856   20.100110 H          1 MOL1         0.0947
       8    C3      18.841290   18.855544   21.916658 C.3        1 MOL1        -0.1437
       9    H6      17.823856   18.957747   22.318467 H          1 MOL1         0.0947
      10    H7      19.179582   17.844511   22.178933 H          1 MOL1         0.0947
      11    C4      19.757653   19.913286   22.581887 C.3        1 MOL1        -0.1437
      12    H8      19.482316   20.910056   22.210821 H          1 MOL1         0.0947
      13    H9      20.801391   19.748651   22.283407 H          1 MOL1         0.0947
      14    C5      19.665719   19.921346   24.127357 C.3        1 MOL1        -0.1437
      15    H10     20.263119   20.761715   24.507017 H          1 MOL1         0.0947
      16    H11     18.627787   20.119301   24.426758 H          1 MOL1         0.0947
      17    C6      20.168128   18.608623   24.779614 C.3        1 MOL1        -0.1437
      18    H12     21.169283   18.372780   24.393269 H          1 MOL1         0.0947
      19    H13     19.517500   17.771527   24.493770 H          1 MOL1         0.0947
      20    C7      20.237520   18.689766   26.322507 C.3        1 MOL1        -0.1477
      21    H14     20.674042   17.759360   26.709443 H          1 MOL1         0.0947
      22    H15     20.914226   19.502036   26.619605 H          1 MOL1         0.0947
      23    C8      18.855810   18.904773   26.967811 C.3        1 MOL1         0.0145
      24    H16     18.182721   18.094587   26.674710 H          1 MOL1         0.0921
      25    H17     18.428940   19.849787   26.622163 H          1 MOL1         0.0921
      26    N1      18.908791   18.944644   28.481266 N.4        1 MOL1        -0.5969
      27    H18     19.506946   19.704455   28.822410 H          1 MOL1         0.3603
      28    H19     19.276547   18.071498   28.873517 H          1 MOL1         0.3603
      29    H20     17.979415   19.088482   28.891434 H          1 MOL1         0.3603
@<TRIPOS>BOND
    1     1     2    1
    2     1     3    1
    3     1     4    1
    4     1     5    1
    5     5     6    1
    6     5     7    1
    7     5     8    1
    8     8     9    1
    9     8    10    1
   10     8    11    1
   11    11    12    1
   12    11    13    1
   13    11    14    1
   14    14    15    1
   15    14    16    1
   16    14    17    1
   17    17    18    1
   18    17    19    1
   19    17    20    1
   20    20    21    1
   21    20    22    1
   22    20    23    1
   23    23    24    1
   24    23    25    1
   25    23    26    1
   26    26    27    1
   27    26    28    1
   28    26    29    1
@<TRIPOS>SUBSTRUCTURE
       1 MOL1            1 RESIDUE      1      MOL     
@<SCITEGIC>MOL_PROPERTY
VM2 Rank
SciTegic.value.IntegerValue
119

@<SCITEGIC>MOL_PROPERTY
Conf_Id
SciTegic.value.IntegerValue
2311

@<SCITEGIC>MOL_PROPERTY
Probability
SciTegic.value.DoubleValue
0.27

@<SCITEGIC>MOL_PROPERTY
Sum Probability
SciTegic.value.DoubleValue
87.68

@<SCITEGIC>MOL_PROPERTY
Delta G
SciTegic.value.DoubleValue
1.770

@<SCITEGIC>MOL_PROPERTY
G
SciTegic.value.DoubleValue
59.917

@<SCITEGIC>MOL_PROPERTY
E
SciTegic.value.DoubleValue
22.386

@<SCITEGIC>MOL_PROPERTY
-TS
SciTegic.value.DoubleValue
37.530

@<SCITEGIC>MOL_PROPERTY
U+W
SciTegic.value.DoubleValue
-1.758

@<SCITEGIC>MOL_PROPERTY
U
SciTegic.value.DoubleValue
49.749

@<SCITEGIC>MOL_PROPERTY
W
SciTegic.value.DoubleValue
-51.507

@<SCITEGIC>MOL_PROPERTY
W(PB)
SciTegic.value.DoubleValue
-54.006

@<SCITEGIC>MOL_PROPERTY
W(SA)
SciTegic.value.DoubleValue
2.499

@<SCITEGIC>MOL_PROPERTY
Valence
SciTegic.value.DoubleValue
3.885

@<SCITEGIC>MOL_PROPERTY
Coulomb
SciTegic.value.DoubleValue
44.883

@<SCITEGIC>MOL_PROPERTY
VdW
SciTegic.value.DoubleValue
0.980

@<SCITEGIC>MOL_PROPERTY
VdW6
SciTegic.value.DoubleValue
-8.856

@<SCITEGIC>MOL_PROPERTY
VdW12
SciTegic.value.DoubleValue
9.836

@<SCITEGIC>MOL_PROPERTY
Bond
SciTegic.value.DoubleValue
0.242

@<SCITEGIC>MOL_PROPERTY
Angle
SciTegic.value.DoubleValue
0.948

@<SCITEGIC>MOL_PROPERTY
Pdih
SciTegic.value.DoubleValue
2.696

@<SCITEGIC>MOL_PROPERTY
Idih
SciTegic.value.DoubleValue
0.000

@<SCITEGIC>MOL_PROPERTY
Tether
SciTegic.value.DoubleValue
0.000

@<TRIPOS>MOLECULE
guest-3_vm2.mol2 : vm2 ligand conformer 120
          29          28           1
SMALL
USER_CHARGES
 
@<TRIPOS>ATOM
       1    C1      20.836716   19.451982   19.937390 C.3        1 MOL1        -0.2427
       2    H1      21.717908   20.093852   19.808816 H          1 MOL1         0.0958
       3    H2      21.083052   18.458313   19.540947 H          1 MOL1         0.0958
       4    H3      20.023244   19.870398   19.330399 H          1 MOL1         0.0958
       5    C2      20.433304   19.371913   21.424916 C.3        1 MOL1        -0.1412
       6    H4      20.234636   20.386393   21.795134 H          1 MOL1         0.0947
       7    H5      21.275898   18.977890   22.010103 H          1 MOL1         0.0947
       8    C3      19.189731   18.475167   21.630560 C.3        1 MOL1        -0.1437
       9    H6      18.333767   18.897936   21.086704 H          1 MOL1         0.0947
      10    H7      19.382229   17.489840   21.184077 H          1 MOL1         0.0947
      11    C4      18.812305   18.274319   23.118555 C.3        1 MOL1        -0.1437
      12    H8      19.666159   17.832462   23.648908 H          1 MOL1         0.0947
      13    H9      17.996994   17.540097   23.175606 H          1 MOL1         0.0947
      14    C5      18.365334   19.580321   23.822447 C.3        1 MOL1        -0.1437
      15    H10     19.202154   20.288414   23.872518 H          1 MOL1         0.0947
      16    H11     17.590312   20.067312   23.214763 H          1 MOL1         0.0947
      17    C6      17.796611   19.348747   25.246109 C.3        1 MOL1        -0.1437
      18    H12     16.890850   18.730727   25.176407 H          1 MOL1         0.0947
      19    H13     17.472266   20.314636   25.657531 H          1 MOL1         0.0947
      20    C7      18.782431   18.685828   26.240090 C.3        1 MOL1        -0.1477
      21    H14     18.290863   18.593560   27.217669 H          1 MOL1         0.0947
      22    H15     19.013543   17.663517   25.914606 H          1 MOL1         0.0947
      23    C8      20.088127   19.485114   26.406274 C.3        1 MOL1         0.0145
      24    H16     19.858237   20.499968   26.741740 H          1 MOL1         0.0921
      25    H17     20.606662   19.548161   25.445997 H          1 MOL1         0.0921
      26    N1      21.039441   18.864609   27.408659 N.4        1 MOL1        -0.5969
      27    H18     20.621125   18.801054   28.342690 H          1 MOL1         0.3603
      28    H19     21.902108   19.411650   27.504242 H          1 MOL1         0.3603
      29    H20     21.315653   17.915519   27.136173 H          1 MOL1         0.3603
@<TRIPOS>BOND
    1     1     2    1
    2     1     3    1
    3     1     4    1
    4     1     5    1
    5     5     6    1
    6     5     7    1
    7     5     8    1
    8     8     9    1
    9     8    10    1
   10     8    11    1
   11    11    12    1
   12    11    13    1
   13    11    14    1
   14    14    15    1
   15    14    16    1
   16    14    17    1
   17    17    18    1
   18    17    19    1
   19    17    20    1
   20    20    21    1
   21    20    22    1
   22    20    23    1
   23    23    24    1
   24    23    25    1
   25    23    26    1
   26    26    27    1
   27    26    28    1
   28    26    29    1
@<TRIPOS>SUBSTRUCTURE
       1 MOL1            1 RESIDUE      1      MOL     
@<SCITEGIC>MOL_PROPERTY
VM2 Rank
SciTegic.value.IntegerValue
120

@<SCITEGIC>MOL_PROPERTY
Conf_Id
SciTegic.value.IntegerValue
340

@<SCITEGIC>MOL_PROPERTY
Probability
SciTegic.value.DoubleValue
0.27

@<SCITEGIC>MOL_PROPERTY
Sum Probability
SciTegic.value.DoubleValue
87.95

@<SCITEGIC>MOL_PROPERTY
Delta G
SciTegic.value.DoubleValue
1.772

@<SCITEGIC>MOL_PROPERTY
G
SciTegic.value.DoubleValue
59.918

@<SCITEGIC>MOL_PROPERTY
E
SciTegic.value.DoubleValue
22.273

@<SCITEGIC>MOL_PROPERTY
-TS
SciTegic.value.DoubleValue
37.646

@<SCITEGIC>MOL_PROPERTY
U+W
SciTegic.value.DoubleValue
-1.872

@<SCITEGIC>MOL_PROPERTY
U
SciTegic.value.DoubleValue
50.346

@<SCITEGIC>MOL_PROPERTY
W
SciTegic.value.DoubleValue
-52.218

@<SCITEGIC>MOL_PROPERTY
W(PB)
SciTegic.value.DoubleValue
-54.717

@<SCITEGIC>MOL_PROPERTY
W(SA)
SciTegic.value.DoubleValue
2.499

@<SCITEGIC>MOL_PROPERTY
Valence
SciTegic.value.DoubleValue
3.843

@<SCITEGIC>MOL_PROPERTY
Coulomb
SciTegic.value.DoubleValue
45.716

@<SCITEGIC>MOL_PROPERTY
VdW
SciTegic.value.DoubleValue
0.787

@<SCITEGIC>MOL_PROPERTY
VdW6
SciTegic.value.DoubleValue
-9.277

@<SCITEGIC>MOL_PROPERTY
VdW12
SciTegic.value.DoubleValue
10.064

@<SCITEGIC>MOL_PROPERTY
Bond
SciTegic.value.DoubleValue
0.250

@<SCITEGIC>MOL_PROPERTY
Angle
SciTegic.value.DoubleValue
1.092

@<SCITEGIC>MOL_PROPERTY
Pdih
SciTegic.value.DoubleValue
2.501

@<SCITEGIC>MOL_PROPERTY
Idih
SciTegic.value.DoubleValue
0.000

@<SCITEGIC>MOL_PROPERTY
Tether
SciTegic.value.DoubleValue
0.000

@<TRIPOS>MOLECULE
guest-3_vm2.mol2 : vm2 ligand conformer 121
          29          28           1
SMALL
USER_CHARGES
 
@<TRIPOS>ATOM
       1    C1      20.818990   19.152630   20.376026 C.3        1 MOL1        -0.2427
       2    H1      21.164500   19.817675   21.177322 H          1 MOL1         0.0958
       3    H2      21.701691   18.650335   19.959653 H          1 MOL1         0.0958
       4    H3      20.377432   19.769529   19.582672 H          1 MOL1         0.0958
       5    C2      19.802802   18.114010   20.901963 C.3        1 MOL1        -0.1412
       6    H4      20.259533   17.523404   21.707316 H          1 MOL1         0.0947
       7    H5      19.577800   17.400467   20.097070 H          1 MOL1         0.0947
       8    C3      18.472758   18.744419   21.387742 C.3        1 MOL1        -0.1437
       9    H6      17.975364   19.224838   20.533992 H          1 MOL1         0.0947
      10    H7      17.798947   17.940496   21.714520 H          1 MOL1         0.0947
      11    C4      18.609971   19.782647   22.531202 C.3        1 MOL1        -0.1437
      12    H8      17.608567   20.165340   22.771768 H          1 MOL1         0.0947
      13    H9      19.188285   20.648612   22.182857 H          1 MOL1         0.0947
      14    C5      19.250915   19.206603   23.816314 C.3        1 MOL1        -0.1437
      15    H10     18.695836   18.311104   24.125689 H          1 MOL1         0.0947
      16    H11     20.281427   18.889813   23.608673 H          1 MOL1         0.0947
      17    C6      19.262655   20.244692   24.963770 C.3        1 MOL1        -0.1437
      18    H12     18.232680   20.539657   25.208107 H          1 MOL1         0.0947
      19    H13     19.773921   21.155101   24.621492 H          1 MOL1         0.0947
      20    C7      19.967857   19.729881   26.240426 C.3        1 MOL1        -0.1477
      21    H14     21.005994   19.459845   26.005164 H          1 MOL1         0.0947
      22    H15     20.013528   20.544497   26.975438 H          1 MOL1         0.0947
      23    C8      19.248979   18.522651   26.871055 C.3        1 MOL1         0.0145
      24    H16     19.235926   17.688822   26.164492 H          1 MOL1         0.0921
      25    H17     18.215714   18.791545   27.106483 H          1 MOL1         0.0921
      26    N1      19.909074   18.040467   28.146500 N.4        1 MOL1        -0.5969
      27    H18     20.878556   17.746852   27.987241 H          1 MOL1         0.3603
      28    H19     19.415662   17.236773   28.550589 H          1 MOL1         0.3603
      29    H20     19.929081   18.771083   28.865733 H          1 MOL1         0.3603
@<TRIPOS>BOND
    1     1     2    1
    2     1     3    1
    3     1     4    1
    4     1     5    1
    5     5     6    1
    6     5     7    1
    7     5     8    1
    8     8     9    1
    9     8    10    1
   10     8    11    1
   11    11    12    1
   12    11    13    1
   13    11    14    1
   14    14    15    1
   15    14    16    1
   16    14    17    1
   17    17    18    1
   18    17    19    1
   19    17    20    1
   20    20    21    1
   21    20    22    1
   22    20    23    1
   23    23    24    1
   24    23    25    1
   25    23    26    1
   26    26    27    1
   27    26    28    1
   28    26    29    1
@<TRIPOS>SUBSTRUCTURE
       1 MOL1            1 RESIDUE      1      MOL     
@<SCITEGIC>MOL_PROPERTY
VM2 Rank
SciTegic.value.IntegerValue
121

@<SCITEGIC>MOL_PROPERTY
Conf_Id
SciTegic.value.IntegerValue
2568

@<SCITEGIC>MOL_PROPERTY
Probability
SciTegic.value.DoubleValue
0.26

@<SCITEGIC>MOL_PROPERTY
Sum Probability
SciTegic.value.DoubleValue
88.21

@<SCITEGIC>MOL_PROPERTY
Delta G
SciTegic.value.DoubleValue
1.791

@<SCITEGIC>MOL_PROPERTY
G
SciTegic.value.DoubleValue
59.937

@<SCITEGIC>MOL_PROPERTY
E
SciTegic.value.DoubleValue
22.219

@<SCITEGIC>MOL_PROPERTY
-TS
SciTegic.value.DoubleValue
37.718

@<SCITEGIC>MOL_PROPERTY
U+W
SciTegic.value.DoubleValue
-1.925

@<SCITEGIC>MOL_PROPERTY
U
SciTegic.value.DoubleValue
49.728

@<SCITEGIC>MOL_PROPERTY
W
SciTegic.value.DoubleValue
-51.654

@<SCITEGIC>MOL_PROPERTY
W(PB)
SciTegic.value.DoubleValue
-54.152

@<SCITEGIC>MOL_PROPERTY
W(SA)
SciTegic.value.DoubleValue
2.498

@<SCITEGIC>MOL_PROPERTY
Valence
SciTegic.value.DoubleValue
3.843

@<SCITEGIC>MOL_PROPERTY
Coulomb
SciTegic.value.DoubleValue
45.022

@<SCITEGIC>MOL_PROPERTY
VdW
SciTegic.value.DoubleValue
0.863

@<SCITEGIC>MOL_PROPERTY
VdW6
SciTegic.value.DoubleValue
-9.126

@<SCITEGIC>MOL_PROPERTY
VdW12
SciTegic.value.DoubleValue
9.989

@<SCITEGIC>MOL_PROPERTY
Bond
SciTegic.value.DoubleValue
0.246

@<SCITEGIC>MOL_PROPERTY
Angle
SciTegic.value.DoubleValue
1.164

@<SCITEGIC>MOL_PROPERTY
Pdih
SciTegic.value.DoubleValue
2.433

@<SCITEGIC>MOL_PROPERTY
Idih
SciTegic.value.DoubleValue
0.000

@<SCITEGIC>MOL_PROPERTY
Tether
SciTegic.value.DoubleValue
0.000

@<TRIPOS>MOLECULE
guest-3_vm2.mol2 : vm2 ligand conformer 122
          29          28           1
SMALL
USER_CHARGES
 
@<TRIPOS>ATOM
       1    C1      19.790647   18.757299   19.160717 C.3        1 MOL1        -0.2427
       2    H1      19.624939   19.748762   18.719384 H          1 MOL1         0.0958
       3    H2      20.867274   18.544746   19.129904 H          1 MOL1         0.0958
       4    H3      19.282714   18.017907   18.527989 H          1 MOL1         0.0958
       5    C2      19.255047   18.696581   20.606929 C.3        1 MOL1        -0.1412
       6    H4      19.400914   17.680836   20.997136 H          1 MOL1         0.0947
       7    H5      18.172296   18.884428   20.602250 H          1 MOL1         0.0947
       8    C3      19.960438   19.727981   21.519146 C.3        1 MOL1        -0.1437
       9    H6      21.035272   19.505585   21.568960 H          1 MOL1         0.0947
      10    H7      19.873075   20.723586   21.062562 H          1 MOL1         0.0947
      11    C4      19.376772   19.794990   22.952093 C.3        1 MOL1        -0.1437
      12    H8      18.300827   20.011115   22.900605 H          1 MOL1         0.0947
      13    H9      19.839554   20.648068   23.464062 H          1 MOL1         0.0947
      14    C5      19.613440   18.504632   23.777907 C.3        1 MOL1        -0.1437
      15    H10     19.152324   17.652292   23.262928 H          1 MOL1         0.0947
      16    H11     20.689466   18.289029   23.830349 H          1 MOL1         0.0947
      17    C6      19.026820   18.568046   25.209890 C.3        1 MOL1        -0.1437
      18    H12     19.104129   17.566655   25.653503 H          1 MOL1         0.0947
      19    H13     17.954102   18.800486   25.158257 H          1 MOL1         0.0947
      20    C7      19.739977   19.591320   26.129342 C.3        1 MOL1        -0.1477
      21    H14     20.817416   19.381921   26.161637 H          1 MOL1         0.0947
      22    H15     19.628019   20.602566   25.719686 H          1 MOL1         0.0947
      23    C8      19.174473   19.596097   27.562753 C.3        1 MOL1         0.0145
      24    H16     18.097792   19.783922   27.533247 H          1 MOL1         0.0921
      25    H17     19.645346   20.400031   28.135034 H          1 MOL1         0.0921
      26    N1      19.406387   18.301054   28.316224 N.4        1 MOL1        -0.5969
      27    H18     18.957192   17.505869   27.851392 H          1 MOL1         0.3603
      28    H19     19.030725   18.343043   29.270013 H          1 MOL1         0.3603
      29    H20     20.404643   18.081225   28.396573 H          1 MOL1         0.3603
@<TRIPOS>BOND
    1     1     2    1
    2     1     3    1
    3     1     4    1
    4     1     5    1
    5     5     6    1
    6     5     7    1
    7     5     8    1
    8     8     9    1
    9     8    10    1
   10     8    11    1
   11    11    12    1
   12    11    13    1
   13    11    14    1
   14    14    15    1
   15    14    16    1
   16    14    17    1
   17    17    18    1
   18    17    19    1
   19    17    20    1
   20    20    21    1
   21    20    22    1
   22    20    23    1
   23    23    24    1
   24    23    25    1
   25    23    26    1
   26    26    27    1
   27    26    28    1
   28    26    29    1
@<TRIPOS>SUBSTRUCTURE
       1 MOL1            1 RESIDUE      1      MOL     
@<SCITEGIC>MOL_PROPERTY
VM2 Rank
SciTegic.value.IntegerValue
122

@<SCITEGIC>MOL_PROPERTY
Conf_Id
SciTegic.value.IntegerValue
1956

@<SCITEGIC>MOL_PROPERTY
Probability
SciTegic.value.DoubleValue
0.26

@<SCITEGIC>MOL_PROPERTY
Sum Probability
SciTegic.value.DoubleValue
88.47

@<SCITEGIC>MOL_PROPERTY
Delta G
SciTegic.value.DoubleValue
1.793

@<SCITEGIC>MOL_PROPERTY
G
SciTegic.value.DoubleValue
59.939

@<SCITEGIC>MOL_PROPERTY
E
SciTegic.value.DoubleValue
22.549

@<SCITEGIC>MOL_PROPERTY
-TS
SciTegic.value.DoubleValue
37.391

@<SCITEGIC>MOL_PROPERTY
U+W
SciTegic.value.DoubleValue
-1.596

@<SCITEGIC>MOL_PROPERTY
U
SciTegic.value.DoubleValue
49.901

@<SCITEGIC>MOL_PROPERTY
W
SciTegic.value.DoubleValue
-51.496

@<SCITEGIC>MOL_PROPERTY
W(PB)
SciTegic.value.DoubleValue
-54.002

@<SCITEGIC>MOL_PROPERTY
W(SA)
SciTegic.value.DoubleValue
2.505

@<SCITEGIC>MOL_PROPERTY
Valence
SciTegic.value.DoubleValue
3.877

@<SCITEGIC>MOL_PROPERTY
Coulomb
SciTegic.value.DoubleValue
44.864

@<SCITEGIC>MOL_PROPERTY
VdW
SciTegic.value.DoubleValue
1.159

@<SCITEGIC>MOL_PROPERTY
VdW6
SciTegic.value.DoubleValue
-8.668

@<SCITEGIC>MOL_PROPERTY
VdW12
SciTegic.value.DoubleValue
9.827

@<SCITEGIC>MOL_PROPERTY
Bond
SciTegic.value.DoubleValue
0.259

@<SCITEGIC>MOL_PROPERTY
Angle
SciTegic.value.DoubleValue
1.041

@<SCITEGIC>MOL_PROPERTY
Pdih
SciTegic.value.DoubleValue
2.578

@<SCITEGIC>MOL_PROPERTY
Idih
SciTegic.value.DoubleValue
0.000

@<SCITEGIC>MOL_PROPERTY
Tether
SciTegic.value.DoubleValue
0.000

@<TRIPOS>MOLECULE
guest-3_vm2.mol2 : vm2 ligand conformer 123
          29          28           1
SMALL
USER_CHARGES
 
@<TRIPOS>ATOM
       1    C1      20.011418   17.558797   20.793134 C.3        1 MOL1        -0.2427
       2    H1      19.501958   17.166755   21.682229 H          1 MOL1         0.0958
       3    H2      19.299810   17.552331   19.957359 H          1 MOL1         0.0958
       4    H3      20.826251   16.865916   20.546577 H          1 MOL1         0.0958
       5    C2      20.565338   18.980244   21.039431 C.3        1 MOL1        -0.1412
       6    H4      21.165923   19.281316   20.169788 H          1 MOL1         0.0947
       7    H5      21.258028   18.965703   21.891461 H          1 MOL1         0.0947
       8    C3      19.459271   20.042300   21.265832 C.3        1 MOL1        -0.1437
       9    H6      19.934134   21.023188   21.405329 H          1 MOL1         0.0947
      10    H7      18.857098   20.127471   20.350832 H          1 MOL1         0.0947
      11    C4      18.510118   19.767672   22.460849 C.3        1 MOL1        -0.1437
      12    H8      17.942390   18.844666   22.283513 H          1 MOL1         0.0947
      13    H9      17.766913   20.575718   22.503317 H          1 MOL1         0.0947
      14    C5      19.238977   19.680553   23.822983 C.3        1 MOL1        -0.1437
      15    H10     19.936066   18.833362   23.811995 H          1 MOL1         0.0947
      16    H11     19.838828   20.588204   23.975990 H          1 MOL1         0.0947
      17    C6      18.242399   19.515388   24.995208 C.3        1 MOL1        -0.1437
      18    H12     17.659508   18.593842   24.858919 H          1 MOL1         0.0947
      19    H13     17.521724   20.344617   24.976796 H          1 MOL1         0.0947
      20    C7      18.932315   19.489297   26.379271 C.3        1 MOL1        -0.1477
      21    H14     19.497190   20.419302   26.527589 H          1 MOL1         0.0947
      22    H15     18.161547   19.461324   27.160976 H          1 MOL1         0.0947
      23    C8      19.870109   18.280145   26.554108 C.3        1 MOL1         0.0145
      24    H16     20.669379   18.320423   25.809671 H          1 MOL1         0.0921
      25    H17     19.307840   17.354103   26.406905 H          1 MOL1         0.0921
      26    N1      20.514055   18.223604   27.924183 N.4        1 MOL1        -0.5969
      27    H18     19.815465   18.156222   28.671795 H          1 MOL1         0.3603
      28    H19     21.080505   19.056911   28.114470 H          1 MOL1         0.3603
      29    H20     21.134182   17.411938   28.020595 H          1 MOL1         0.3603
@<TRIPOS>BOND
    1     1     2    1
    2     1     3    1
    3     1     4    1
    4     1     5    1
    5     5     6    1
    6     5     7    1
    7     5     8    1
    8     8     9    1
    9     8    10    1
   10     8    11    1
   11    11    12    1
   12    11    13    1
   13    11    14    1
   14    14    15    1
   15    14    16    1
   16    14    17    1
   17    17    18    1
   18    17    19    1
   19    17    20    1
   20    20    21    1
   21    20    22    1
   22    20    23    1
   23    23    24    1
   24    23    25    1
   25    23    26    1
   26    26    27    1
   27    26    28    1
   28    26    29    1
@<TRIPOS>SUBSTRUCTURE
       1 MOL1            1 RESIDUE      1      MOL     
@<SCITEGIC>MOL_PROPERTY
VM2 Rank
SciTegic.value.IntegerValue
123

@<SCITEGIC>MOL_PROPERTY
Conf_Id
SciTegic.value.IntegerValue
691

@<SCITEGIC>MOL_PROPERTY
Probability
SciTegic.value.DoubleValue
0.25

@<SCITEGIC>MOL_PROPERTY
Sum Probability
SciTegic.value.DoubleValue
88.72

@<SCITEGIC>MOL_PROPERTY
Delta G
SciTegic.value.DoubleValue
1.815

@<SCITEGIC>MOL_PROPERTY
G
SciTegic.value.DoubleValue
59.961

@<SCITEGIC>MOL_PROPERTY
E
SciTegic.value.DoubleValue
22.240

@<SCITEGIC>MOL_PROPERTY
-TS
SciTegic.value.DoubleValue
37.721

@<SCITEGIC>MOL_PROPERTY
U+W
SciTegic.value.DoubleValue
-1.905

@<SCITEGIC>MOL_PROPERTY
U
SciTegic.value.DoubleValue
49.868

@<SCITEGIC>MOL_PROPERTY
W
SciTegic.value.DoubleValue
-51.773

@<SCITEGIC>MOL_PROPERTY
W(PB)
SciTegic.value.DoubleValue
-54.278

@<SCITEGIC>MOL_PROPERTY
W(SA)
SciTegic.value.DoubleValue
2.505

@<SCITEGIC>MOL_PROPERTY
Valence
SciTegic.value.DoubleValue
3.839

@<SCITEGIC>MOL_PROPERTY
Coulomb
SciTegic.value.DoubleValue
45.179

@<SCITEGIC>MOL_PROPERTY
VdW
SciTegic.value.DoubleValue
0.851

@<SCITEGIC>MOL_PROPERTY
VdW6
SciTegic.value.DoubleValue
-9.167

@<SCITEGIC>MOL_PROPERTY
VdW12
SciTegic.value.DoubleValue
10.018

@<SCITEGIC>MOL_PROPERTY
Bond
SciTegic.value.DoubleValue
0.248

@<SCITEGIC>MOL_PROPERTY
Angle
SciTegic.value.DoubleValue
1.166

@<SCITEGIC>MOL_PROPERTY
Pdih
SciTegic.value.DoubleValue
2.425

@<SCITEGIC>MOL_PROPERTY
Idih
SciTegic.value.DoubleValue
0.000

@<SCITEGIC>MOL_PROPERTY
Tether
SciTegic.value.DoubleValue
0.000

@<TRIPOS>MOLECULE
guest-3_vm2.mol2 : vm2 ligand conformer 124
          29          28           1
SMALL
USER_CHARGES
 
@<TRIPOS>ATOM
       1    C1      21.016507   18.040122   20.964536 C.3        1 MOL1        -0.2427
       2    H1      21.629067   18.882441   21.309145 H          1 MOL1         0.0958
       3    H2      21.069297   17.244479   21.718965 H          1 MOL1         0.0958
       4    H3      21.470384   17.658020   20.041010 H          1 MOL1         0.0958
       5    C2      19.553544   18.468964   20.710847 C.3        1 MOL1        -0.1412
       6    H4      19.011225   17.627791   20.256941 H          1 MOL1         0.0947
       7    H5      19.529366   19.283992   19.974078 H          1 MOL1         0.0947
       8    C3      18.810719   18.902986   21.997111 C.3        1 MOL1        -0.1437
       9    H6      17.756379   19.085778   21.748178 H          1 MOL1         0.0947
      10    H7      18.821769   18.072057   22.714668 H          1 MOL1         0.0947
      11    C4      19.404766   20.177099   22.648533 C.3        1 MOL1        -0.1437
      12    H8      19.485886   20.963702   21.885904 H          1 MOL1         0.0947
      13    H9      20.428197   19.984016   22.993438 H          1 MOL1         0.0947
      14    C5      18.554162   20.722816   23.824453 C.3        1 MOL1        -0.1437
      15    H10     19.029266   21.635671   24.209331 H          1 MOL1         0.0947
      16    H11     17.573310   21.034516   23.439827 H          1 MOL1         0.0947
      17    C6      18.336973   19.734999   24.999901 C.3        1 MOL1        -0.1437
      18    H12     17.751856   18.869944   24.660386 H          1 MOL1         0.0947
      19    H13     17.722187   20.234028   25.761834 H          1 MOL1         0.0947
      20    C7      19.652470   19.251776   25.653959 C.3        1 MOL1        -0.1477
      21    H14     20.246266   18.680664   24.929003 H          1 MOL1         0.0947
      22    H15     20.254973   20.118548   25.956455 H          1 MOL1         0.0947
      23    C8      19.375251   18.367070   26.881831 C.3        1 MOL1         0.0145
      24    H16     18.788643   17.494484   26.581974 H          1 MOL1         0.0921
      25    H17     18.799674   18.931810   27.620212 H          1 MOL1         0.0921
      26    N1      20.639607   17.872169   27.553828 N.4        1 MOL1        -0.5969
      27    H18     21.214396   17.308759   26.918539 H          1 MOL1         0.3603
      28    H19     20.432480   17.285350   28.369571 H          1 MOL1         0.3603
      29    H20     21.224597   18.646919   27.884031 H          1 MOL1         0.3603
@<TRIPOS>BOND
    1     1     2    1
    2     1     3    1
    3     1     4    1
    4     1     5    1
    5     5     6    1
    6     5     7    1
    7     5     8    1
    8     8     9    1
    9     8    10    1
   10     8    11    1
   11    11    12    1
   12    11    13    1
   13    11    14    1
   14    14    15    1
   15    14    16    1
   16    14    17    1
   17    17    18    1
   18    17    19    1
   19    17    20    1
   20    20    21    1
   21    20    22    1
   22    20    23    1
   23    23    24    1
   24    23    25    1
   25    23    26    1
   26    26    27    1
   27    26    28    1
   28    26    29    1
@<TRIPOS>SUBSTRUCTURE
       1 MOL1            1 RESIDUE      1      MOL     
@<SCITEGIC>MOL_PROPERTY
VM2 Rank
SciTegic.value.IntegerValue
124

@<SCITEGIC>MOL_PROPERTY
Conf_Id
SciTegic.value.IntegerValue
2960

@<SCITEGIC>MOL_PROPERTY
Probability
SciTegic.value.DoubleValue
0.25

@<SCITEGIC>MOL_PROPERTY
Sum Probability
SciTegic.value.DoubleValue
88.97

@<SCITEGIC>MOL_PROPERTY
Delta G
SciTegic.value.DoubleValue
1.818

@<SCITEGIC>MOL_PROPERTY
G
SciTegic.value.DoubleValue
59.965

@<SCITEGIC>MOL_PROPERTY
E
SciTegic.value.DoubleValue
22.199

@<SCITEGIC>MOL_PROPERTY
-TS
SciTegic.value.DoubleValue
37.766

@<SCITEGIC>MOL_PROPERTY
U+W
SciTegic.value.DoubleValue
-1.945

@<SCITEGIC>MOL_PROPERTY
U
SciTegic.value.DoubleValue
50.163

@<SCITEGIC>MOL_PROPERTY
W
SciTegic.value.DoubleValue
-52.109

@<SCITEGIC>MOL_PROPERTY
W(PB)
SciTegic.value.DoubleValue
-54.574

@<SCITEGIC>MOL_PROPERTY
W(SA)
SciTegic.value.DoubleValue
2.466

@<SCITEGIC>MOL_PROPERTY
Valence
SciTegic.value.DoubleValue
4.032

@<SCITEGIC>MOL_PROPERTY
Coulomb
SciTegic.value.DoubleValue
45.327

@<SCITEGIC>MOL_PROPERTY
VdW
SciTegic.value.DoubleValue
0.804

@<SCITEGIC>MOL_PROPERTY
VdW6
SciTegic.value.DoubleValue
-9.391

@<SCITEGIC>MOL_PROPERTY
VdW12
SciTegic.value.DoubleValue
10.195

@<SCITEGIC>MOL_PROPERTY
Bond
SciTegic.value.DoubleValue
0.264

@<SCITEGIC>MOL_PROPERTY
Angle
SciTegic.value.DoubleValue
1.252

@<SCITEGIC>MOL_PROPERTY
Pdih
SciTegic.value.DoubleValue
2.516

@<SCITEGIC>MOL_PROPERTY
Idih
SciTegic.value.DoubleValue
0.000

@<SCITEGIC>MOL_PROPERTY
Tether
SciTegic.value.DoubleValue
0.000

@<TRIPOS>MOLECULE
guest-3_vm2.mol2 : vm2 ligand conformer 125
          29          28           1
SMALL
USER_CHARGES
 
@<TRIPOS>ATOM
       1    C1      21.357088   18.997118   20.985375 C.3        1 MOL1        -0.2427
       2    H1      21.294948   17.944374   21.287628 H          1 MOL1         0.0958
       3    H2      21.963133   19.042842   20.071305 H          1 MOL1         0.0958
       4    H3      21.890110   19.549823   21.769853 H          1 MOL1         0.0958
       5    C2      19.955818   19.599348   20.735809 C.3        1 MOL1        -0.1412
       6    H4      19.432470   19.012825   19.967836 H          1 MOL1         0.0947
       7    H5      20.073193   20.611147   20.323258 H          1 MOL1         0.0947
       8    C3      19.087970   19.681630   22.014366 C.3        1 MOL1        -0.1437
       9    H6      19.611390   20.289611   22.763929 H          1 MOL1         0.0947
      10    H7      18.158728   20.215914   21.773405 H          1 MOL1         0.0947
      11    C4      18.734577   18.294155   22.606505 C.3        1 MOL1        -0.1437
      12    H8      19.645015   17.783647   22.944345 H          1 MOL1         0.0947
      13    H9      18.311380   17.663995   21.812319 H          1 MOL1         0.0947
      14    C5      17.713985   18.362369   23.771776 C.3        1 MOL1        -0.1437
      15    H10     16.762221   18.755773   23.388969 H          1 MOL1         0.0947
      16    H11     17.500255   17.340266   24.113510 H          1 MOL1         0.0947
      17    C6      18.153004   19.217876   24.988327 C.3        1 MOL1        -0.1437
      18    H12     17.350438   19.189814   25.738415 H          1 MOL1         0.0947
      19    H13     18.250817   20.270638   24.691544 H          1 MOL1         0.0947
      20    C7      19.468558   18.735054   25.642560 C.3        1 MOL1        -0.1477
      21    H14     19.383694   17.671408   25.901910 H          1 MOL1         0.0947
      22    H15     20.299898   18.830837   24.932611 H          1 MOL1         0.0947
      23    C8      19.795059   19.546416   26.908388 C.3        1 MOL1         0.0145
      24    H16     18.981580   19.443663   27.631659 H          1 MOL1         0.0921
      25    H17     19.896063   20.604397   26.651672 H          1 MOL1         0.0921
      26    N1      21.077941   19.104034   27.581893 N.4        1 MOL1        -0.5969
      27    H18     21.888491   19.202113   26.961574 H          1 MOL1         0.3603
      28    H19     21.037023   18.121623   27.872894 H          1 MOL1         0.3603
      29    H20     21.276487   19.656870   28.423110 H          1 MOL1         0.3603
@<TRIPOS>BOND
    1     1     2    1
    2     1     3    1
    3     1     4    1
    4     1     5    1
    5     5     6    1
    6     5     7    1
    7     5     8    1
    8     8     9    1
    9     8    10    1
   10     8    11    1
   11    11    12    1
   12    11    13    1
   13    11    14    1
   14    14    15    1
   15    14    16    1
   16    14    17    1
   17    17    18    1
   18    17    19    1
   19    17    20    1
   20    20    21    1
   21    20    22    1
   22    20    23    1
   23    23    24    1
   24    23    25    1
   25    23    26    1
   26    26    27    1
   27    26    28    1
   28    26    29    1
@<TRIPOS>SUBSTRUCTURE
       1 MOL1            1 RESIDUE      1      MOL     
@<SCITEGIC>MOL_PROPERTY
VM2 Rank
SciTegic.value.IntegerValue
125

@<SCITEGIC>MOL_PROPERTY
Conf_Id
SciTegic.value.IntegerValue
2635

@<SCITEGIC>MOL_PROPERTY
Probability
SciTegic.value.DoubleValue
0.25

@<SCITEGIC>MOL_PROPERTY
Sum Probability
SciTegic.value.DoubleValue
89.22

@<SCITEGIC>MOL_PROPERTY
Delta G
SciTegic.value.DoubleValue
1.822

@<SCITEGIC>MOL_PROPERTY
G
SciTegic.value.DoubleValue
59.968

@<SCITEGIC>MOL_PROPERTY
E
SciTegic.value.DoubleValue
22.203

@<SCITEGIC>MOL_PROPERTY
-TS
SciTegic.value.DoubleValue
37.765

@<SCITEGIC>MOL_PROPERTY
U+W
SciTegic.value.DoubleValue
-1.942

@<SCITEGIC>MOL_PROPERTY
U
SciTegic.value.DoubleValue
50.163

@<SCITEGIC>MOL_PROPERTY
W
SciTegic.value.DoubleValue
-52.104

@<SCITEGIC>MOL_PROPERTY
W(PB)
SciTegic.value.DoubleValue
-54.562

@<SCITEGIC>MOL_PROPERTY
W(SA)
SciTegic.value.DoubleValue
2.458

@<SCITEGIC>MOL_PROPERTY
Valence
SciTegic.value.DoubleValue
4.032

@<SCITEGIC>MOL_PROPERTY
Coulomb
SciTegic.value.DoubleValue
45.327

@<SCITEGIC>MOL_PROPERTY
VdW
SciTegic.value.DoubleValue
0.804

@<SCITEGIC>MOL_PROPERTY
VdW6
SciTegic.value.DoubleValue
-9.390

@<SCITEGIC>MOL_PROPERTY
VdW12
SciTegic.value.DoubleValue
10.195

@<SCITEGIC>MOL_PROPERTY
Bond
SciTegic.value.DoubleValue
0.264

@<SCITEGIC>MOL_PROPERTY
Angle
SciTegic.value.DoubleValue
1.252

@<SCITEGIC>MOL_PROPERTY
Pdih
SciTegic.value.DoubleValue
2.516

@<SCITEGIC>MOL_PROPERTY
Idih
SciTegic.value.DoubleValue
0.000

@<SCITEGIC>MOL_PROPERTY
Tether
SciTegic.value.DoubleValue
0.000

@<TRIPOS>MOLECULE
guest-3_vm2.mol2 : vm2 ligand conformer 126
          29          28           1
SMALL
USER_CHARGES
 
@<TRIPOS>ATOM
       1    C1      19.032981   18.223854   19.754625 C.3        1 MOL1        -0.2427
       2    H1      18.918742   18.231704   18.662928 H          1 MOL1         0.0958
       3    H2      19.513202   17.277508   20.035402 H          1 MOL1         0.0958
       4    H3      18.027002   18.242274   20.191962 H          1 MOL1         0.0958
       5    C2      19.875288   19.433444   20.219149 C.3        1 MOL1        -0.1412
       6    H4      19.361584   20.366790   19.949553 H          1 MOL1         0.0947
       7    H5      20.826403   19.435857   19.668591 H          1 MOL1         0.0947
       8    C3      20.179067   19.422235   21.736622 C.3        1 MOL1        -0.1437
       9    H6      20.719447   18.499852   21.986319 H          1 MOL1         0.0947
      10    H7      20.860512   20.253880   21.962579 H          1 MOL1         0.0947
      11    C4      18.910228   19.552666   22.616678 C.3        1 MOL1        -0.1437
      12    H8      18.275755   18.664538   22.497083 H          1 MOL1         0.0947
      13    H9      18.317186   20.407312   22.263184 H          1 MOL1         0.0947
      14    C5      19.218657   19.758736   24.120085 C.3        1 MOL1        -0.1437
      15    H10     19.841256   20.654960   24.247822 H          1 MOL1         0.0947
      16    H11     18.271865   19.964890   24.636341 H          1 MOL1         0.0947
      17    C6      19.913674   18.540668   24.779876 C.3        1 MOL1        -0.1437
      18    H12     20.873953   18.350278   24.283442 H          1 MOL1         0.0947
      19    H13     19.302157   17.639673   24.632772 H          1 MOL1         0.0947
      20    C7      20.181997   18.740621   26.290112 C.3        1 MOL1        -0.1477
      21    H14     20.766608   17.889078   26.663014 H          1 MOL1         0.0947
      22    H15     20.800057   19.635931   26.439847 H          1 MOL1         0.0947
      23    C8      18.887445   18.859870   27.116042 C.3        1 MOL1         0.0145
      24    H16     18.271935   17.968792   26.966077 H          1 MOL1         0.0921
      25    H17     18.316939   19.732385   26.787819 H          1 MOL1         0.0921
      26    N1      19.144663   19.005906   28.601811 N.4        1 MOL1        -0.5969
      27    H18     19.655240   18.201869   28.981718 H          1 MOL1         0.3603
      28    H19     18.270897   19.083628   29.133947 H          1 MOL1         0.3603
      29    H20     19.698648   19.842585   28.812912 H          1 MOL1         0.3603
@<TRIPOS>BOND
    1     1     2    1
    2     1     3    1
    3     1     4    1
    4     1     5    1
    5     5     6    1
    6     5     7    1
    7     5     8    1
    8     8     9    1
    9     8    10    1
   10     8    11    1
   11    11    12    1
   12    11    13    1
   13    11    14    1
   14    14    15    1
   15    14    16    1
   16    14    17    1
   17    17    18    1
   18    17    19    1
   19    17    20    1
   20    20    21    1
   21    20    22    1
   22    20    23    1
   23    23    24    1
   24    23    25    1
   25    23    26    1
   26    26    27    1
   27    26    28    1
   28    26    29    1
@<TRIPOS>SUBSTRUCTURE
       1 MOL1            1 RESIDUE      1      MOL     
@<SCITEGIC>MOL_PROPERTY
VM2 Rank
SciTegic.value.IntegerValue
126

@<SCITEGIC>MOL_PROPERTY
Conf_Id
SciTegic.value.IntegerValue
338

@<SCITEGIC>MOL_PROPERTY
Probability
SciTegic.value.DoubleValue
0.24

@<SCITEGIC>MOL_PROPERTY
Sum Probability
SciTegic.value.DoubleValue
89.47

@<SCITEGIC>MOL_PROPERTY
Delta G
SciTegic.value.DoubleValue
1.834

@<SCITEGIC>MOL_PROPERTY
G
SciTegic.value.DoubleValue
59.980

@<SCITEGIC>MOL_PROPERTY
E
SciTegic.value.DoubleValue
22.482

@<SCITEGIC>MOL_PROPERTY
-TS
SciTegic.value.DoubleValue
37.498

@<SCITEGIC>MOL_PROPERTY
U+W
SciTegic.value.DoubleValue
-1.662

@<SCITEGIC>MOL_PROPERTY
U
SciTegic.value.DoubleValue
49.778

@<SCITEGIC>MOL_PROPERTY
W
SciTegic.value.DoubleValue
-51.441

@<SCITEGIC>MOL_PROPERTY
W(PB)
SciTegic.value.DoubleValue
-53.961

@<SCITEGIC>MOL_PROPERTY
W(SA)
SciTegic.value.DoubleValue
2.520

@<SCITEGIC>MOL_PROPERTY
Valence
SciTegic.value.DoubleValue
3.946

@<SCITEGIC>MOL_PROPERTY
Coulomb
SciTegic.value.DoubleValue
44.784

@<SCITEGIC>MOL_PROPERTY
VdW
SciTegic.value.DoubleValue
1.049

@<SCITEGIC>MOL_PROPERTY
VdW6
SciTegic.value.DoubleValue
-8.795

@<SCITEGIC>MOL_PROPERTY
VdW12
SciTegic.value.DoubleValue
9.844

@<SCITEGIC>MOL_PROPERTY
Bond
SciTegic.value.DoubleValue
0.248

@<SCITEGIC>MOL_PROPERTY
Angle
SciTegic.value.DoubleValue
1.005

@<SCITEGIC>MOL_PROPERTY
Pdih
SciTegic.value.DoubleValue
2.693

@<SCITEGIC>MOL_PROPERTY
Idih
SciTegic.value.DoubleValue
0.000

@<SCITEGIC>MOL_PROPERTY
Tether
SciTegic.value.DoubleValue
0.000

@<TRIPOS>MOLECULE
guest-3_vm2.mol2 : vm2 ligand conformer 127
          29          28           1
SMALL
USER_CHARGES
 
@<TRIPOS>ATOM
       1    C1      20.285576   18.759977   19.590996 C.3        1 MOL1        -0.2427
       2    H1      20.852870   17.845793   19.808853 H          1 MOL1         0.0958
       3    H2      20.098641   18.789194   18.509730 H          1 MOL1         0.0958
       4    H3      20.914982   19.623344   19.839278 H          1 MOL1         0.0958
       5    C2      18.951262   18.785156   20.370660 C.3        1 MOL1        -0.1412
       6    H4      18.307972   17.977675   19.993930 H          1 MOL1         0.0947
       7    H5      18.418958   19.724003   20.163449 H          1 MOL1         0.0947
       8    C3      19.124715   18.607634   21.898566 C.3        1 MOL1        -0.1437
       9    H6      18.126617   18.501993   22.342456 H          1 MOL1         0.0947
      10    H7      19.655502   17.667149   22.100407 H          1 MOL1         0.0947
      11    C4      19.870823   19.785505   22.575432 C.3        1 MOL1        -0.1437
      12    H8      19.339070   20.725773   22.375213 H          1 MOL1         0.0947
      13    H9      20.866934   19.892360   22.127184 H          1 MOL1         0.0947
      14    C5      20.051383   19.606312   24.102943 C.3        1 MOL1        -0.1437
      15    H10     20.589108   18.668299   24.295755 H          1 MOL1         0.0947
      16    H11     20.697407   20.414726   24.472271 H          1 MOL1         0.0947
      17    C6      18.717384   19.629158   24.891368 C.3        1 MOL1        -0.1437
      18    H12     18.102010   18.761222   24.620570 H          1 MOL1         0.0947
      19    H13     18.143342   20.521453   24.605966 H          1 MOL1         0.0947
      20    C7      18.923528   19.640810   26.424145 C.3        1 MOL1        -0.1477
      21    H14     19.506659   20.525814   26.711747 H          1 MOL1         0.0947
      22    H15     17.945749   19.735364   26.915002 H          1 MOL1         0.0947
      23    C8      19.624650   18.369450   26.937815 C.3        1 MOL1         0.0145
      24    H16     20.617079   18.286485   26.487308 H          1 MOL1         0.0921
      25    H17     19.042586   17.488323   26.654663 H          1 MOL1         0.0921
      26    N1      19.794678   18.353998   28.443075 N.4        1 MOL1        -0.5969
      27    H18     20.263204   17.499837   28.764881 H          1 MOL1         0.3603
      28    H19     18.893276   18.401663   28.929589 H          1 MOL1         0.3603
      29    H20     20.357477   19.145622   28.771824 H          1 MOL1         0.3603
@<TRIPOS>BOND
    1     1     2    1
    2     1     3    1
    3     1     4    1
    4     1     5    1
    5     5     6    1
    6     5     7    1
    7     5     8    1
    8     8     9    1
    9     8    10    1
   10     8    11    1
   11    11    12    1
   12    11    13    1
   13    11    14    1
   14    14    15    1
   15    14    16    1
   16    14    17    1
   17    17    18    1
   18    17    19    1
   19    17    20    1
   20    20    21    1
   21    20    22    1
   22    20    23    1
   23    23    24    1
   24    23    25    1
   25    23    26    1
   26    26    27    1
   27    26    28    1
   28    26    29    1
@<TRIPOS>SUBSTRUCTURE
       1 MOL1            1 RESIDUE      1      MOL     
@<SCITEGIC>MOL_PROPERTY
VM2 Rank
SciTegic.value.IntegerValue
127

@<SCITEGIC>MOL_PROPERTY
Conf_Id
SciTegic.value.IntegerValue
2272

@<SCITEGIC>MOL_PROPERTY
Probability
SciTegic.value.DoubleValue
0.24

@<SCITEGIC>MOL_PROPERTY
Sum Probability
SciTegic.value.DoubleValue
89.71

@<SCITEGIC>MOL_PROPERTY
Delta G
SciTegic.value.DoubleValue
1.842

@<SCITEGIC>MOL_PROPERTY
G
SciTegic.value.DoubleValue
59.988

@<SCITEGIC>MOL_PROPERTY
E
SciTegic.value.DoubleValue
22.533

@<SCITEGIC>MOL_PROPERTY
-TS
SciTegic.value.DoubleValue
37.455

@<SCITEGIC>MOL_PROPERTY
U+W
SciTegic.value.DoubleValue
-1.612

@<SCITEGIC>MOL_PROPERTY
U
SciTegic.value.DoubleValue
49.932

@<SCITEGIC>MOL_PROPERTY
W
SciTegic.value.DoubleValue
-51.543

@<SCITEGIC>MOL_PROPERTY
W(PB)
SciTegic.value.DoubleValue
-54.068

@<SCITEGIC>MOL_PROPERTY
W(SA)
SciTegic.value.DoubleValue
2.525

@<SCITEGIC>MOL_PROPERTY
Valence
SciTegic.value.DoubleValue
3.987

@<SCITEGIC>MOL_PROPERTY
Coulomb
SciTegic.value.DoubleValue
44.891

@<SCITEGIC>MOL_PROPERTY
VdW
SciTegic.value.DoubleValue
1.054

@<SCITEGIC>MOL_PROPERTY
VdW6
SciTegic.value.DoubleValue
-8.768

@<SCITEGIC>MOL_PROPERTY
VdW12
SciTegic.value.DoubleValue
9.822

@<SCITEGIC>MOL_PROPERTY
Bond
SciTegic.value.DoubleValue
0.251

@<SCITEGIC>MOL_PROPERTY
Angle
SciTegic.value.DoubleValue
1.043

@<SCITEGIC>MOL_PROPERTY
Pdih
SciTegic.value.DoubleValue
2.693

@<SCITEGIC>MOL_PROPERTY
Idih
SciTegic.value.DoubleValue
0.000

@<SCITEGIC>MOL_PROPERTY
Tether
SciTegic.value.DoubleValue
0.000

@<TRIPOS>MOLECULE
guest-3_vm2.mol2 : vm2 ligand conformer 128
          29          28           1
SMALL
USER_CHARGES
 
@<TRIPOS>ATOM
       1    C1      20.710635   18.648849   19.873903 C.3        1 MOL1        -0.2427
       2    H1      20.828443   17.580110   20.095560 H          1 MOL1         0.0958
       3    H2      20.036011   18.747465   19.013456 H          1 MOL1         0.0958
       4    H3      21.692128   19.042341   19.579208 H          1 MOL1         0.0958
       5    C2      20.163285   19.411678   21.098751 C.3        1 MOL1        -0.1412
       6    H4      20.084053   20.480819   20.857380 H          1 MOL1         0.0947
       7    H5      20.882375   19.323067   21.923972 H          1 MOL1         0.0947
       8    C3      18.781519   18.871465   21.536034 C.3        1 MOL1        -0.1437
       9    H6      18.099946   18.897466   20.674659 H          1 MOL1         0.0947
      10    H7      18.868151   17.813872   21.817700 H          1 MOL1         0.0947
      11    C4      18.135528   19.678839   22.691779 C.3        1 MOL1        -0.1437
      12    H8      17.152475   19.243902   22.918846 H          1 MOL1         0.0947
      13    H9      17.937127   20.701229   22.341761 H          1 MOL1         0.0947
      14    C5      18.965132   19.754794   23.999857 C.3        1 MOL1        -0.1437
      15    H10     19.904335   20.293364   23.817344 H          1 MOL1         0.0947
      16    H11     18.403644   20.364742   24.719586 H          1 MOL1         0.0947
      17    C6      19.268149   18.368421   24.622587 C.3        1 MOL1        -0.1437
      18    H12     19.856212   17.768316   23.916101 H          1 MOL1         0.0947
      19    H13     18.328941   17.823262   24.789883 H          1 MOL1         0.0947
      20    C7      20.056087   18.459410   25.950525 C.3        1 MOL1        -0.1477
      21    H14     20.324820   17.445125   26.274474 H          1 MOL1         0.0947
      22    H15     20.999359   18.996502   25.783937 H          1 MOL1         0.0947
      23    C8      19.257596   19.148912   27.072644 C.3        1 MOL1         0.0145
      24    H16     18.318102   18.614532   27.237409 H          1 MOL1         0.0921
      25    H17     19.023717   20.176745   26.783961 H          1 MOL1         0.0921
      26    N1      20.006068   19.195632   28.388920 N.4        1 MOL1        -0.5969
      27    H18     20.889869   19.709188   28.307508 H          1 MOL1         0.3603
      28    H19     20.232980   18.256536   28.732561 H          1 MOL1         0.3603
      29    H20     19.457930   19.658022   29.122682 H          1 MOL1         0.3603
@<TRIPOS>BOND
    1     1     2    1
    2     1     3    1
    3     1     4    1
    4     1     5    1
    5     5     6    1
    6     5     7    1
    7     5     8    1
    8     8     9    1
    9     8    10    1
   10     8    11    1
   11    11    12    1
   12    11    13    1
   13    11    14    1
   14    14    15    1
   15    14    16    1
   16    14    17    1
   17    17    18    1
   18    17    19    1
   19    17    20    1
   20    20    21    1
   21    20    22    1
   22    20    23    1
   23    23    24    1
   24    23    25    1
   25    23    26    1
   26    26    27    1
   27    26    28    1
   28    26    29    1
@<TRIPOS>SUBSTRUCTURE
       1 MOL1            1 RESIDUE      1      MOL     
@<SCITEGIC>MOL_PROPERTY
VM2 Rank
SciTegic.value.IntegerValue
128

@<SCITEGIC>MOL_PROPERTY
Conf_Id
SciTegic.value.IntegerValue
2939

@<SCITEGIC>MOL_PROPERTY
Probability
SciTegic.value.DoubleValue
0.23

@<SCITEGIC>MOL_PROPERTY
Sum Probability
SciTegic.value.DoubleValue
89.94

@<SCITEGIC>MOL_PROPERTY
Delta G
SciTegic.value.DoubleValue
1.858

@<SCITEGIC>MOL_PROPERTY
G
SciTegic.value.DoubleValue
60.004

@<SCITEGIC>MOL_PROPERTY
E
SciTegic.value.DoubleValue
22.285

@<SCITEGIC>MOL_PROPERTY
-TS
SciTegic.value.DoubleValue
37.719

@<SCITEGIC>MOL_PROPERTY
U+W
SciTegic.value.DoubleValue
-1.860

@<SCITEGIC>MOL_PROPERTY
U
SciTegic.value.DoubleValue
49.829

@<SCITEGIC>MOL_PROPERTY
W
SciTegic.value.DoubleValue
-51.689

@<SCITEGIC>MOL_PROPERTY
W(PB)
SciTegic.value.DoubleValue
-54.187

@<SCITEGIC>MOL_PROPERTY
W(SA)
SciTegic.value.DoubleValue
2.497

@<SCITEGIC>MOL_PROPERTY
Valence
SciTegic.value.DoubleValue
3.921

@<SCITEGIC>MOL_PROPERTY
Coulomb
SciTegic.value.DoubleValue
45.037

@<SCITEGIC>MOL_PROPERTY
VdW
SciTegic.value.DoubleValue
0.871

@<SCITEGIC>MOL_PROPERTY
VdW6
SciTegic.value.DoubleValue
-9.187

@<SCITEGIC>MOL_PROPERTY
VdW12
SciTegic.value.DoubleValue
10.057

@<SCITEGIC>MOL_PROPERTY
Bond
SciTegic.value.DoubleValue
0.258

@<SCITEGIC>MOL_PROPERTY
Angle
SciTegic.value.DoubleValue
1.253

@<SCITEGIC>MOL_PROPERTY
Pdih
SciTegic.value.DoubleValue
2.410

@<SCITEGIC>MOL_PROPERTY
Idih
SciTegic.value.DoubleValue
0.000

@<SCITEGIC>MOL_PROPERTY
Tether
SciTegic.value.DoubleValue
0.000

@<TRIPOS>MOLECULE
guest-3_vm2.mol2 : vm2 ligand conformer 129
          29          28           1
SMALL
USER_CHARGES
 
@<TRIPOS>ATOM
       1    C1      21.239785   18.815487   20.964362 C.3        1 MOL1        -0.2427
       2    H1      21.456665   18.881024   22.037866 H          1 MOL1         0.0958
       3    H2      21.290175   17.760212   20.666392 H          1 MOL1         0.0958
       4    H3      22.035422   19.353458   20.432975 H          1 MOL1         0.0958
       5    C2      19.858609   19.421801   20.628320 C.3        1 MOL1        -0.1412
       6    H4      19.737724   19.442909   19.536279 H          1 MOL1         0.0947
       7    H5      19.824978   20.469932   20.954483 H          1 MOL1         0.0947
       8    C3      18.673455   18.632398   21.240442 C.3        1 MOL1        -0.1437
       9    H6      17.733148   19.107842   20.929202 H          1 MOL1         0.0947
      10    H7      18.657538   17.622895   20.807163 H          1 MOL1         0.0947
      11    C4      18.689392   18.510175   22.785927 C.3        1 MOL1        -0.1437
      12    H8      19.568443   17.932542   23.097736 H          1 MOL1         0.0947
      13    H9      17.814020   17.923076   23.095671 H          1 MOL1         0.0947
      14    C5      18.662138   19.878916   23.511598 C.3        1 MOL1        -0.1437
      15    H10     19.586242   20.434115   23.303146 H          1 MOL1         0.0947
      16    H11     17.838740   20.482498   23.105683 H          1 MOL1         0.0947
      17    C6      18.476381   19.759944   25.044028 C.3        1 MOL1        -0.1437
      18    H12     17.541823   19.224568   25.261915 H          1 MOL1         0.0947
      19    H13     18.357316   20.769980   25.460306 H          1 MOL1         0.0947
      20    C7      19.657318   19.059274   25.755802 C.3        1 MOL1        -0.1477
      21    H14     19.743322   18.020776   25.412142 H          1 MOL1         0.0947
      22    H15     20.597183   19.565316   25.497970 H          1 MOL1         0.0947
      23    C8      19.474499   19.067838   27.283552 C.3        1 MOL1         0.0145
      24    H16     18.547738   18.550619   27.546312 H          1 MOL1         0.0921
      25    H17     19.406436   20.099039   27.640518 H          1 MOL1         0.0921
      26    N1      20.612423   18.392166   28.020968 N.4        1 MOL1        -0.5969
      27    H18     20.712433   17.408316   27.749859 H          1 MOL1         0.3603
      28    H19     20.471000   18.409331   29.037052 H          1 MOL1         0.3603
      29    H20     21.511589   18.849401   27.836772 H          1 MOL1         0.3603
@<TRIPOS>BOND
    1     1     2    1
    2     1     3    1
    3     1     4    1
    4     1     5    1
    5     5     6    1
    6     5     7    1
    7     5     8    1
    8     8     9    1
    9     8    10    1
   10     8    11    1
   11    11    12    1
   12    11    13    1
   13    11    14    1
   14    14    15    1
   15    14    16    1
   16    14    17    1
   17    17    18    1
   18    17    19    1
   19    17    20    1
   20    20    21    1
   21    20    22    1
   22    20    23    1
   23    23    24    1
   24    23    25    1
   25    23    26    1
   26    26    27    1
   27    26    28    1
   28    26    29    1
@<TRIPOS>SUBSTRUCTURE
       1 MOL1            1 RESIDUE      1      MOL     
@<SCITEGIC>MOL_PROPERTY
VM2 Rank
SciTegic.value.IntegerValue
129

@<SCITEGIC>MOL_PROPERTY
Conf_Id
SciTegic.value.IntegerValue
904

@<SCITEGIC>MOL_PROPERTY
Probability
SciTegic.value.DoubleValue
0.22

@<SCITEGIC>MOL_PROPERTY
Sum Probability
SciTegic.value.DoubleValue
90.16

@<SCITEGIC>MOL_PROPERTY
Delta G
SciTegic.value.DoubleValue
1.884

@<SCITEGIC>MOL_PROPERTY
G
SciTegic.value.DoubleValue
60.030

@<SCITEGIC>MOL_PROPERTY
E
SciTegic.value.DoubleValue
22.293

@<SCITEGIC>MOL_PROPERTY
-TS
SciTegic.value.DoubleValue
37.738

@<SCITEGIC>MOL_PROPERTY
U+W
SciTegic.value.DoubleValue
-1.852

@<SCITEGIC>MOL_PROPERTY
U
SciTegic.value.DoubleValue
49.942

@<SCITEGIC>MOL_PROPERTY
W
SciTegic.value.DoubleValue
-51.794

@<SCITEGIC>MOL_PROPERTY
W(PB)
SciTegic.value.DoubleValue
-54.236

@<SCITEGIC>MOL_PROPERTY
W(SA)
SciTegic.value.DoubleValue
2.442

@<SCITEGIC>MOL_PROPERTY
Valence
SciTegic.value.DoubleValue
4.040

@<SCITEGIC>MOL_PROPERTY
Coulomb
SciTegic.value.DoubleValue
45.040

@<SCITEGIC>MOL_PROPERTY
VdW
SciTegic.value.DoubleValue
0.862

@<SCITEGIC>MOL_PROPERTY
VdW6
SciTegic.value.DoubleValue
-9.281

@<SCITEGIC>MOL_PROPERTY
VdW12
SciTegic.value.DoubleValue
10.143

@<SCITEGIC>MOL_PROPERTY
Bond
SciTegic.value.DoubleValue
0.263

@<SCITEGIC>MOL_PROPERTY
Angle
SciTegic.value.DoubleValue
1.239

@<SCITEGIC>MOL_PROPERTY
Pdih
SciTegic.value.DoubleValue
2.539

@<SCITEGIC>MOL_PROPERTY
Idih
SciTegic.value.DoubleValue
0.000

@<SCITEGIC>MOL_PROPERTY
Tether
SciTegic.value.DoubleValue
0.000

@<TRIPOS>MOLECULE
guest-3_vm2.mol2 : vm2 ligand conformer 130
          29          28           1
SMALL
USER_CHARGES
 
@<TRIPOS>ATOM
       1    C1      19.697606   18.384468   19.483632 C.3        1 MOL1        -0.2427
       2    H1      19.171033   17.507778   19.880265 H          1 MOL1         0.0958
       3    H2      19.407776   18.493687   18.430540 H          1 MOL1         0.0958
       4    H3      20.776119   18.182456   19.515572 H          1 MOL1         0.0958
       5    C2      19.348310   19.665050   20.275500 C.3        1 MOL1        -0.1412
       6    H4      18.261338   19.826061   20.258518 H          1 MOL1         0.0947
       7    H5      19.794789   20.528621   19.762974 H          1 MOL1         0.0947
       8    C3      19.851873   19.643759   21.739130 C.3        1 MOL1        -0.1437
       9    H6      20.938680   19.483429   21.750376 H          1 MOL1         0.0947
      10    H7      19.680632   20.638473   22.169498 H          1 MOL1         0.0947
      11    C4      19.155385   18.571319   22.615188 C.3        1 MOL1        -0.1437
      12    H8      19.322640   17.579317   22.176421 H          1 MOL1         0.0947
      13    H9      18.068821   18.733435   22.607534 H          1 MOL1         0.0947
      14    C5      19.664796   18.536781   24.077407 C.3        1 MOL1        -0.1437
      15    H10     19.234807   17.651842   24.564650 H          1 MOL1         0.0947
      16    H11     20.754074   18.393189   24.083471 H          1 MOL1         0.0947
      17    C6      19.298225   19.802655   24.893461 C.3        1 MOL1        -0.1437
      18    H12     18.211230   19.960818   24.865190 H          1 MOL1         0.0947
      19    H13     19.754184   20.686901   24.430339 H          1 MOL1         0.0947
      20    C7      19.770359   19.732597   26.364910 C.3        1 MOL1        -0.1477
      21    H14     20.857552   19.580969   26.396951 H          1 MOL1         0.0947
      22    H15     19.573441   20.699121   26.847627 H          1 MOL1         0.0947
      23    C8      19.067572   18.620336   27.165713 C.3        1 MOL1         0.0145
      24    H16     19.293944   17.646123   26.725101 H          1 MOL1         0.0921
      25    H17     17.985170   18.770909   27.132567 H          1 MOL1         0.0921
      26    N1      19.489874   18.581036   28.620059 N.4        1 MOL1        -0.5969
      27    H18     19.278454   19.460618   29.102899 H          1 MOL1         0.3603
      28    H19     20.496844   18.415673   28.720865 H          1 MOL1         0.3603
      29    H20     19.011068   17.834430   29.135816 H          1 MOL1         0.3603
@<TRIPOS>BOND
    1     1     2    1
    2     1     3    1
    3     1     4    1
    4     1     5    1
    5     5     6    1
    6     5     7    1
    7     5     8    1
    8     8     9    1
    9     8    10    1
   10     8    11    1
   11    11    12    1
   12    11    13    1
   13    11    14    1
   14    14    15    1
   15    14    16    1
   16    14    17    1
   17    17    18    1
   18    17    19    1
   19    17    20    1
   20    20    21    1
   21    20    22    1
   22    20    23    1
   23    23    24    1
   24    23    25    1
   25    23    26    1
   26    26    27    1
   27    26    28    1
   28    26    29    1
@<TRIPOS>SUBSTRUCTURE
       1 MOL1            1 RESIDUE      1      MOL     
@<SCITEGIC>MOL_PROPERTY
VM2 Rank
SciTegic.value.IntegerValue
130

@<SCITEGIC>MOL_PROPERTY
Conf_Id
SciTegic.value.IntegerValue
2104

@<SCITEGIC>MOL_PROPERTY
Probability
SciTegic.value.DoubleValue
0.22

@<SCITEGIC>MOL_PROPERTY
Sum Probability
SciTegic.value.DoubleValue
90.39

@<SCITEGIC>MOL_PROPERTY
Delta G
SciTegic.value.DoubleValue
1.890

@<SCITEGIC>MOL_PROPERTY
G
SciTegic.value.DoubleValue
60.037

@<SCITEGIC>MOL_PROPERTY
E
SciTegic.value.DoubleValue
22.639

@<SCITEGIC>MOL_PROPERTY
-TS
SciTegic.value.DoubleValue
37.397

@<SCITEGIC>MOL_PROPERTY
U+W
SciTegic.value.DoubleValue
-1.505

@<SCITEGIC>MOL_PROPERTY
U
SciTegic.value.DoubleValue
49.966

@<SCITEGIC>MOL_PROPERTY
W
SciTegic.value.DoubleValue
-51.472

@<SCITEGIC>MOL_PROPERTY
W(PB)
SciTegic.value.DoubleValue
-53.950

@<SCITEGIC>MOL_PROPERTY
W(SA)
SciTegic.value.DoubleValue
2.479

@<SCITEGIC>MOL_PROPERTY
Valence
SciTegic.value.DoubleValue
4.059

@<SCITEGIC>MOL_PROPERTY
Coulomb
SciTegic.value.DoubleValue
44.783

@<SCITEGIC>MOL_PROPERTY
VdW
SciTegic.value.DoubleValue
1.124

@<SCITEGIC>MOL_PROPERTY
VdW6
SciTegic.value.DoubleValue
-8.699

@<SCITEGIC>MOL_PROPERTY
VdW12
SciTegic.value.DoubleValue
9.823

@<SCITEGIC>MOL_PROPERTY
Bond
SciTegic.value.DoubleValue
0.258

@<SCITEGIC>MOL_PROPERTY
Angle
SciTegic.value.DoubleValue
1.106

@<SCITEGIC>MOL_PROPERTY
Pdih
SciTegic.value.DoubleValue
2.695

@<SCITEGIC>MOL_PROPERTY
Idih
SciTegic.value.DoubleValue
0.000

@<SCITEGIC>MOL_PROPERTY
Tether
SciTegic.value.DoubleValue
0.000

@<TRIPOS>MOLECULE
guest-3_vm2.mol2 : vm2 ligand conformer 131
          29          28           1
SMALL
USER_CHARGES
 
@<TRIPOS>ATOM
       1    C1      20.827117   19.984664   20.301567 C.3        1 MOL1        -0.2427
       2    H1      21.340719   19.169149   19.775879 H          1 MOL1         0.0958
       3    H2      20.535610   20.735395   19.555626 H          1 MOL1         0.0958
       4    H3      21.543276   20.452939   20.989346 H          1 MOL1         0.0958
       5    C2      19.589499   19.462573   21.061429 C.3        1 MOL1        -0.1412
       6    H4      18.878460   19.027311   20.345504 H          1 MOL1         0.0947
       7    H5      19.081078   20.309990   21.540195 H          1 MOL1         0.0947
       8    C3      19.975907   18.404704   22.121478 C.3        1 MOL1        -0.1437
       9    H6      20.539529   17.598733   21.631755 H          1 MOL1         0.0947
      10    H7      20.660772   18.848088   22.856206 H          1 MOL1         0.0947
      11    C4      18.755573   17.777882   22.843777 C.3        1 MOL1        -0.1437
      12    H8      19.111277   17.000715   23.533121 H          1 MOL1         0.0947
      13    H9      18.137022   17.252241   22.103419 H          1 MOL1         0.0947
      14    C5      17.856671   18.779644   23.617764 C.3        1 MOL1        -0.1437
      15    H10     17.352733   19.443234   22.902585 H          1 MOL1         0.0947
      16    H11     17.052788   18.218143   24.113298 H          1 MOL1         0.0947
      17    C6      18.588828   19.645145   24.675398 C.3        1 MOL1        -0.1437
      18    H12     17.856041   20.321250   25.137307 H          1 MOL1         0.0947
      19    H13     19.328589   20.291757   24.184899 H          1 MOL1         0.0947
      20    C7      19.274069   18.814431   25.785235 C.3        1 MOL1        -0.1477
      21    H14     18.539301   18.145852   26.253120 H          1 MOL1         0.0947
      22    H15     20.058836   18.181297   25.352336 H          1 MOL1         0.0947
      23    C8      19.897544   19.722174   26.859705 C.3        1 MOL1         0.0145
      24    H16     19.120768   20.344980   27.311544 H          1 MOL1         0.0921
      25    H17     20.641577   20.378659   26.400502 H          1 MOL1         0.0921
      26    N1      20.578791   18.946782   27.968645 N.4        1 MOL1        -0.5969
      27    H18     21.340238   18.359763   27.612238 H          1 MOL1         0.3603
      28    H19     19.924539   18.328168   28.459323 H          1 MOL1         0.3603
      29    H20     20.986825   19.570175   28.674037 H          1 MOL1         0.3603
@<TRIPOS>BOND
    1     1     2    1
    2     1     3    1
    3     1     4    1
    4     1     5    1
    5     5     6    1
    6     5     7    1
    7     5     8    1
    8     8     9    1
    9     8    10    1
   10     8    11    1
   11    11    12    1
   12    11    13    1
   13    11    14    1
   14    14    15    1
   15    14    16    1
   16    14    17    1
   17    17    18    1
   18    17    19    1
   19    17    20    1
   20    20    21    1
   21    20    22    1
   22    20    23    1
   23    23    24    1
   24    23    25    1
   25    23    26    1
   26    26    27    1
   27    26    28    1
   28    26    29    1
@<TRIPOS>SUBSTRUCTURE
       1 MOL1            1 RESIDUE      1      MOL     
@<SCITEGIC>MOL_PROPERTY
VM2 Rank
SciTegic.value.IntegerValue
131

@<SCITEGIC>MOL_PROPERTY
Conf_Id
SciTegic.value.IntegerValue
2647

@<SCITEGIC>MOL_PROPERTY
Probability
SciTegic.value.DoubleValue
0.22

@<SCITEGIC>MOL_PROPERTY
Sum Probability
SciTegic.value.DoubleValue
90.60

@<SCITEGIC>MOL_PROPERTY
Delta G
SciTegic.value.DoubleValue
1.905

@<SCITEGIC>MOL_PROPERTY
G
SciTegic.value.DoubleValue
60.051

@<SCITEGIC>MOL_PROPERTY
E
SciTegic.value.DoubleValue
22.076

@<SCITEGIC>MOL_PROPERTY
-TS
SciTegic.value.DoubleValue
37.976

@<SCITEGIC>MOL_PROPERTY
U+W
SciTegic.value.DoubleValue
-2.069

@<SCITEGIC>MOL_PROPERTY
U
SciTegic.value.DoubleValue
49.925

@<SCITEGIC>MOL_PROPERTY
W
SciTegic.value.DoubleValue
-51.994

@<SCITEGIC>MOL_PROPERTY
W(PB)
SciTegic.value.DoubleValue
-54.446

@<SCITEGIC>MOL_PROPERTY
W(SA)
SciTegic.value.DoubleValue
2.451

@<SCITEGIC>MOL_PROPERTY
Valence
SciTegic.value.DoubleValue
4.020

@<SCITEGIC>MOL_PROPERTY
Coulomb
SciTegic.value.DoubleValue
45.239

@<SCITEGIC>MOL_PROPERTY
VdW
SciTegic.value.DoubleValue
0.667

@<SCITEGIC>MOL_PROPERTY
VdW6
SciTegic.value.DoubleValue
-9.637

@<SCITEGIC>MOL_PROPERTY
VdW12
SciTegic.value.DoubleValue
10.304

@<SCITEGIC>MOL_PROPERTY
Bond
SciTegic.value.DoubleValue
0.272

@<SCITEGIC>MOL_PROPERTY
Angle
SciTegic.value.DoubleValue
1.402

@<SCITEGIC>MOL_PROPERTY
Pdih
SciTegic.value.DoubleValue
2.346

@<SCITEGIC>MOL_PROPERTY
Idih
SciTegic.value.DoubleValue
0.000

@<SCITEGIC>MOL_PROPERTY
Tether
SciTegic.value.DoubleValue
0.000

@<TRIPOS>MOLECULE
guest-3_vm2.mol2 : vm2 ligand conformer 132
          29          28           1
SMALL
USER_CHARGES
 
@<TRIPOS>ATOM
       1    C1      19.991726   17.637389   20.249632 C.3        1 MOL1        -0.2427
       2    H1      20.912400   17.965130   19.749487 H          1 MOL1         0.0958
       3    H2      20.241322   16.795362   20.908339 H          1 MOL1         0.0958
       4    H3      19.302172   17.269646   19.478734 H          1 MOL1         0.0958
       5    C2      19.351368   18.793387   21.046676 C.3        1 MOL1        -0.1412
       6    H4      18.415248   18.439498   21.498631 H          1 MOL1         0.0947
       7    H5      19.085247   19.607716   20.358471 H          1 MOL1         0.0947
       8    C3      20.304039   19.326645   22.142193 C.3        1 MOL1        -0.1437
       9    H6      20.544564   18.521782   22.849154 H          1 MOL1         0.0947
      10    H7      21.256887   19.614115   21.676866 H          1 MOL1         0.0947
      11    C4      19.743693   20.554181   22.905743 C.3        1 MOL1        -0.1437
      12    H8      19.606620   21.381107   22.195502 H          1 MOL1         0.0947
      13    H9      20.500518   20.904070   23.620238 H          1 MOL1         0.0947
      14    C5      18.403267   20.315611   23.652033 C.3        1 MOL1        -0.1437
      15    H10     18.127777   21.238465   24.180723 H          1 MOL1         0.0947
      16    H11     17.603597   20.148438   22.918298 H          1 MOL1         0.0947
      17    C6      18.409238   19.141113   24.664089 C.3        1 MOL1        -0.1437
      18    H12     18.581024   18.192653   24.137920 H          1 MOL1         0.0947
      19    H13     17.407707   19.062243   25.109254 H          1 MOL1         0.0947
      20    C7      19.449601   19.307379   25.796069 C.3        1 MOL1        -0.1477
      21    H14     20.463871   19.318981   25.377449 H          1 MOL1         0.0947
      22    H15     19.295894   20.270588   26.300453 H          1 MOL1         0.0947
      23    C8      19.344394   18.168137   26.824787 C.3        1 MOL1         0.0145
      24    H16     19.512854   17.208100   26.329431 H          1 MOL1         0.0921
      25    H17     18.342561   18.158691   27.262585 H          1 MOL1         0.0921
      26    N1      20.346675   18.294158   27.953779 N.4        1 MOL1        -0.5969
      27    H18     20.223465   19.166935   28.477776 H          1 MOL1         0.3603
      28    H19     21.312680   18.281752   27.610129 H          1 MOL1         0.3603
      29    H20     20.259241   17.525820   28.628094 H          1 MOL1         0.3603
@<TRIPOS>BOND
    1     1     2    1
    2     1     3    1
    3     1     4    1
    4     1     5    1
    5     5     6    1
    6     5     7    1
    7     5     8    1
    8     8     9    1
    9     8    10    1
   10     8    11    1
   11    11    12    1
   12    11    13    1
   13    11    14    1
   14    14    15    1
   15    14    16    1
   16    14    17    1
   17    17    18    1
   18    17    19    1
   19    17    20    1
   20    20    21    1
   21    20    22    1
   22    20    23    1
   23    23    24    1
   24    23    25    1
   25    23    26    1
   26    26    27    1
   27    26    28    1
   28    26    29    1
@<TRIPOS>SUBSTRUCTURE
       1 MOL1            1 RESIDUE      1      MOL     
@<SCITEGIC>MOL_PROPERTY
VM2 Rank
SciTegic.value.IntegerValue
132

@<SCITEGIC>MOL_PROPERTY
Conf_Id
SciTegic.value.IntegerValue
1155

@<SCITEGIC>MOL_PROPERTY
Probability
SciTegic.value.DoubleValue
0.20

@<SCITEGIC>MOL_PROPERTY
Sum Probability
SciTegic.value.DoubleValue
90.81

@<SCITEGIC>MOL_PROPERTY
Delta G
SciTegic.value.DoubleValue
1.943

@<SCITEGIC>MOL_PROPERTY
G
SciTegic.value.DoubleValue
60.089

@<SCITEGIC>MOL_PROPERTY
E
SciTegic.value.DoubleValue
22.113

@<SCITEGIC>MOL_PROPERTY
-TS
SciTegic.value.DoubleValue
37.976

@<SCITEGIC>MOL_PROPERTY
U+W
SciTegic.value.DoubleValue
-2.031

@<SCITEGIC>MOL_PROPERTY
U
SciTegic.value.DoubleValue
49.926

@<SCITEGIC>MOL_PROPERTY
W
SciTegic.value.DoubleValue
-51.957

@<SCITEGIC>MOL_PROPERTY
W(PB)
SciTegic.value.DoubleValue
-54.404

@<SCITEGIC>MOL_PROPERTY
W(SA)
SciTegic.value.DoubleValue
2.447

@<SCITEGIC>MOL_PROPERTY
Valence
SciTegic.value.DoubleValue
4.020

@<SCITEGIC>MOL_PROPERTY
Coulomb
SciTegic.value.DoubleValue
45.239

@<SCITEGIC>MOL_PROPERTY
VdW
SciTegic.value.DoubleValue
0.667

@<SCITEGIC>MOL_PROPERTY
VdW6
SciTegic.value.DoubleValue
-9.638

@<SCITEGIC>MOL_PROPERTY
VdW12
SciTegic.value.DoubleValue
10.305

@<SCITEGIC>MOL_PROPERTY
Bond
SciTegic.value.DoubleValue
0.272

@<SCITEGIC>MOL_PROPERTY
Angle
SciTegic.value.DoubleValue
1.402

@<SCITEGIC>MOL_PROPERTY
Pdih
SciTegic.value.DoubleValue
2.346

@<SCITEGIC>MOL_PROPERTY
Idih
SciTegic.value.DoubleValue
0.000

@<SCITEGIC>MOL_PROPERTY
Tether
SciTegic.value.DoubleValue
0.000

@<TRIPOS>MOLECULE
guest-3_vm2.mol2 : vm2 ligand conformer 133
          29          28           1
SMALL
USER_CHARGES
 
@<TRIPOS>ATOM
       1    C1      20.726014   19.282446   20.270608 C.3        1 MOL1        -0.2427
       2    H1      21.068405   18.340914   20.717714 H          1 MOL1         0.0958
       3    H2      20.168083   19.045688   19.355413 H          1 MOL1         0.0958
       4    H3      21.616784   19.855580   19.982775 H          1 MOL1         0.0958
       5    C2      19.855525   20.093366   21.256780 C.3        1 MOL1        -0.1412
       6    H4      19.628358   21.070121   20.807476 H          1 MOL1         0.0947
       7    H5      20.429420   20.307407   22.168300 H          1 MOL1         0.0947
       8    C3      18.520923   19.392693   21.616647 C.3        1 MOL1        -0.1437
       9    H6      17.936839   20.052657   22.271552 H          1 MOL1         0.0947
      10    H7      17.922001   19.281517   20.702362 H          1 MOL1         0.0947
      11    C4      18.665838   17.998876   22.284990 C.3        1 MOL1        -0.1437
      12    H8      19.091074   17.292099   21.560079 H          1 MOL1         0.0947
      13    H9      17.662810   17.614990   22.516323 H          1 MOL1         0.0947
      14    C5      19.523820   17.969513   23.575986 C.3        1 MOL1        -0.1437
      15    H10     19.567150   16.933199   23.938335 H          1 MOL1         0.0947
      16    H11     20.559269   18.251674   23.343901 H          1 MOL1         0.0947
      17    C6      18.973559   18.875007   24.703633 C.3        1 MOL1        -0.1437
      18    H12     17.925655   18.613675   24.906203 H          1 MOL1         0.0947
      19    H13     18.984379   19.924323   24.380346 H          1 MOL1         0.0947
      20    C7      19.798746   18.739177   26.001972 C.3        1 MOL1        -0.1477
      21    H14     19.785757   17.694856   26.341498 H          1 MOL1         0.0947
      22    H15     20.846595   19.000802   25.802825 H          1 MOL1         0.0947
      23    C8      19.247678   19.645966   27.116236 C.3        1 MOL1         0.0145
      24    H16     18.209222   19.378098   27.329098 H          1 MOL1         0.0921
      25    H17     19.274211   20.688930   26.789177 H          1 MOL1         0.0921
      26    N1      20.031897   19.540955   28.408147 N.4        1 MOL1        -0.5969
      27    H18     20.023106   18.586767   28.783615 H          1 MOL1         0.3603
      28    H19     19.648518   20.152619   29.137263 H          1 MOL1         0.3603
      29    H20     21.014162   19.806611   28.281291 H          1 MOL1         0.3603
@<TRIPOS>BOND
    1     1     2    1
    2     1     3    1
    3     1     4    1
    4     1     5    1
    5     5     6    1
    6     5     7    1
    7     5     8    1
    8     8     9    1
    9     8    10    1
   10     8    11    1
   11    11    12    1
   12    11    13    1
   13    11    14    1
   14    14    15    1
   15    14    16    1
   16    14    17    1
   17    17    18    1
   18    17    19    1
   19    17    20    1
   20    20    21    1
   21    20    22    1
   22    20    23    1
   23    23    24    1
   24    23    25    1
   25    23    26    1
   26    26    27    1
   27    26    28    1
   28    26    29    1
@<TRIPOS>SUBSTRUCTURE
       1 MOL1            1 RESIDUE      1      MOL     
@<SCITEGIC>MOL_PROPERTY
VM2 Rank
SciTegic.value.IntegerValue
133

@<SCITEGIC>MOL_PROPERTY
Conf_Id
SciTegic.value.IntegerValue
1281

@<SCITEGIC>MOL_PROPERTY
Probability
SciTegic.value.DoubleValue
0.20

@<SCITEGIC>MOL_PROPERTY
Sum Probability
SciTegic.value.DoubleValue
91.01

@<SCITEGIC>MOL_PROPERTY
Delta G
SciTegic.value.DoubleValue
1.943

@<SCITEGIC>MOL_PROPERTY
G
SciTegic.value.DoubleValue
60.090

@<SCITEGIC>MOL_PROPERTY
E
SciTegic.value.DoubleValue
22.133

@<SCITEGIC>MOL_PROPERTY
-TS
SciTegic.value.DoubleValue
37.957

@<SCITEGIC>MOL_PROPERTY
U+W
SciTegic.value.DoubleValue
-2.012

@<SCITEGIC>MOL_PROPERTY
U
SciTegic.value.DoubleValue
49.551

@<SCITEGIC>MOL_PROPERTY
W
SciTegic.value.DoubleValue
-51.563

@<SCITEGIC>MOL_PROPERTY
W(PB)
SciTegic.value.DoubleValue
-54.038

@<SCITEGIC>MOL_PROPERTY
W(SA)
SciTegic.value.DoubleValue
2.475

@<SCITEGIC>MOL_PROPERTY
Valence
SciTegic.value.DoubleValue
3.990

@<SCITEGIC>MOL_PROPERTY
Coulomb
SciTegic.value.DoubleValue
44.826

@<SCITEGIC>MOL_PROPERTY
VdW
SciTegic.value.DoubleValue
0.734

@<SCITEGIC>MOL_PROPERTY
VdW6
SciTegic.value.DoubleValue
-9.509

@<SCITEGIC>MOL_PROPERTY
VdW12
SciTegic.value.DoubleValue
10.243

@<SCITEGIC>MOL_PROPERTY
Bond
SciTegic.value.DoubleValue
0.268

@<SCITEGIC>MOL_PROPERTY
Angle
SciTegic.value.DoubleValue
1.374

@<SCITEGIC>MOL_PROPERTY
Pdih
SciTegic.value.DoubleValue
2.348

@<SCITEGIC>MOL_PROPERTY
Idih
SciTegic.value.DoubleValue
0.000

@<SCITEGIC>MOL_PROPERTY
Tether
SciTegic.value.DoubleValue
0.000

@<TRIPOS>MOLECULE
guest-3_vm2.mol2 : vm2 ligand conformer 134
          29          28           1
SMALL
USER_CHARGES
 
@<TRIPOS>ATOM
       1    C1      21.040122   18.255412   20.951386 C.3        1 MOL1        -0.2427
       2    H1      21.324005   17.357388   20.387658 H          1 MOL1         0.0958
       3    H2      21.750297   19.052145   20.694869 H          1 MOL1         0.0958
       4    H3      21.151739   18.024826   22.018211 H          1 MOL1         0.0958
       5    C2      19.591451   18.672503   20.611423 C.3        1 MOL1        -0.1412
       6    H4      18.898371   17.869609   20.896190 H          1 MOL1         0.0947
       7    H5      19.499699   18.776057   19.521254 H          1 MOL1         0.0947
       8    C3      19.163586   20.008123   21.271338 C.3        1 MOL1        -0.1437
       9    H6      19.795432   20.816683   20.878811 H          1 MOL1         0.0947
      10    H7      18.138917   20.246934   20.954924 H          1 MOL1         0.0947
      11    C4      19.231451   20.031058   22.820075 C.3        1 MOL1        -0.1437
      12    H8      18.919911   21.026344   23.165401 H          1 MOL1         0.0947
      13    H9      20.273251   19.910086   23.142000 H          1 MOL1         0.0947
      14    C5      18.335050   18.960062   23.491065 C.3        1 MOL1        -0.1437
      15    H10     17.321351   19.029343   23.073122 H          1 MOL1         0.0947
      16    H11     18.703253   17.954646   23.247690 H          1 MOL1         0.0947
      17    C6      18.244496   19.108659   25.029481 C.3        1 MOL1        -0.1437
      18    H12     17.508213   18.385432   25.406930 H          1 MOL1         0.0947
      19    H13     17.855310   20.104880   25.281627 H          1 MOL1         0.0947
      20    C7      19.592319   18.876774   25.751814 C.3        1 MOL1        -0.1477
      21    H14     20.004714   17.901482   25.460891 H          1 MOL1         0.0947
      22    H15     20.319919   19.640030   25.448473 H          1 MOL1         0.0947
      23    C8      19.423558   18.925063   27.280439 C.3        1 MOL1         0.0145
      24    H16     18.714462   18.155446   27.597153 H          1 MOL1         0.0921
      25    H17     19.028089   19.900456   27.576511 H          1 MOL1         0.0921
      26    N1      20.721967   18.700346   28.027979 N.4        1 MOL1        -0.5969
      27    H18     21.424684   19.409742   27.794723 H          1 MOL1         0.3603
      28    H19     21.132838   17.785729   27.813145 H          1 MOL1         0.3603
      29    H20     20.587121   18.736095   29.044473 H          1 MOL1         0.3603
@<TRIPOS>BOND
    1     1     2    1
    2     1     3    1
    3     1     4    1
    4     1     5    1
    5     5     6    1
    6     5     7    1
    7     5     8    1
    8     8     9    1
    9     8    10    1
   10     8    11    1
   11    11    12    1
   12    11    13    1
   13    11    14    1
   14    14    15    1
   15    14    16    1
   16    14    17    1
   17    17    18    1
   18    17    19    1
   19    17    20    1
   20    20    21    1
   21    20    22    1
   22    20    23    1
   23    23    24    1
   24    23    25    1
   25    23    26    1
   26    26    27    1
   27    26    28    1
   28    26    29    1
@<TRIPOS>SUBSTRUCTURE
       1 MOL1            1 RESIDUE      1      MOL     
@<SCITEGIC>MOL_PROPERTY
VM2 Rank
SciTegic.value.IntegerValue
134

@<SCITEGIC>MOL_PROPERTY
Conf_Id
SciTegic.value.IntegerValue
2648

@<SCITEGIC>MOL_PROPERTY
Probability
SciTegic.value.DoubleValue
0.20

@<SCITEGIC>MOL_PROPERTY
Sum Probability
SciTegic.value.DoubleValue
91.21

@<SCITEGIC>MOL_PROPERTY
Delta G
SciTegic.value.DoubleValue
1.959

@<SCITEGIC>MOL_PROPERTY
G
SciTegic.value.DoubleValue
60.105

@<SCITEGIC>MOL_PROPERTY
E
SciTegic.value.DoubleValue
22.368

@<SCITEGIC>MOL_PROPERTY
-TS
SciTegic.value.DoubleValue
37.737

@<SCITEGIC>MOL_PROPERTY
U+W
SciTegic.value.DoubleValue
-1.777

@<SCITEGIC>MOL_PROPERTY
U
SciTegic.value.DoubleValue
49.942

@<SCITEGIC>MOL_PROPERTY
W
SciTegic.value.DoubleValue
-51.718

@<SCITEGIC>MOL_PROPERTY
W(PB)
SciTegic.value.DoubleValue
-54.192

@<SCITEGIC>MOL_PROPERTY
W(SA)
SciTegic.value.DoubleValue
2.474

@<SCITEGIC>MOL_PROPERTY
Valence
SciTegic.value.DoubleValue
4.040

@<SCITEGIC>MOL_PROPERTY
Coulomb
SciTegic.value.DoubleValue
45.040

@<SCITEGIC>MOL_PROPERTY
VdW
SciTegic.value.DoubleValue
0.862

@<SCITEGIC>MOL_PROPERTY
VdW6
SciTegic.value.DoubleValue
-9.281

@<SCITEGIC>MOL_PROPERTY
VdW12
SciTegic.value.DoubleValue
10.143

@<SCITEGIC>MOL_PROPERTY
Bond
SciTegic.value.DoubleValue
0.263

@<SCITEGIC>MOL_PROPERTY
Angle
SciTegic.value.DoubleValue
1.239

@<SCITEGIC>MOL_PROPERTY
Pdih
SciTegic.value.DoubleValue
2.539

@<SCITEGIC>MOL_PROPERTY
Idih
SciTegic.value.DoubleValue
0.000

@<SCITEGIC>MOL_PROPERTY
Tether
SciTegic.value.DoubleValue
0.000

@<TRIPOS>MOLECULE
guest-3_vm2.mol2 : vm2 ligand conformer 135
          29          28           1
SMALL
USER_CHARGES
 
@<TRIPOS>ATOM
       1    C1      20.231873   19.312163   19.791641 C.3        1 MOL1        -0.2427
       2    H1      19.244831   19.156101   19.337320 H          1 MOL1         0.0958
       3    H2      20.862706   19.826525   19.055161 H          1 MOL1         0.0958
       4    H3      20.682512   18.330402   19.982041 H          1 MOL1         0.0958
       5    C2      20.121586   20.148790   21.086521 C.3        1 MOL1        -0.1412
       6    H4      19.787573   21.162236   20.823630 H          1 MOL1         0.0947
       7    H5      21.115983   20.261153   21.540648 H          1 MOL1         0.0947
       8    C3      19.136371   19.556454   22.123031 C.3        1 MOL1        -0.1437
       9    H6      19.025613   20.283338   22.937887 H          1 MOL1         0.0947
      10    H7      18.143354   19.447952   21.665798 H          1 MOL1         0.0947
      11    C4      19.596665   18.195369   22.703824 C.3        1 MOL1        -0.1437
      12    H8      20.590913   18.301651   23.157015 H          1 MOL1         0.0947
      13    H9      19.713557   17.471406   21.887332 H          1 MOL1         0.0947
      14    C5      18.605507   17.591955   23.732892 C.3        1 MOL1        -0.1437
      15    H10     17.651234   17.386076   23.228752 H          1 MOL1         0.0947
      16    H11     18.989157   16.615125   24.058156 H          1 MOL1         0.0947
      17    C6      18.328686   18.462633   24.986006 C.3        1 MOL1        -0.1437
      18    H12     17.623777   17.921988   25.632817 H          1 MOL1         0.0947
      19    H13     17.817627   19.389944   24.695199 H          1 MOL1         0.0947
      20    C7      19.599612   18.798752   25.800472 C.3        1 MOL1        -0.1477
      21    H14     20.131022   17.872238   26.055421 H          1 MOL1         0.0947
      22    H15     20.283063   19.409725   25.197259 H          1 MOL1         0.0947
      23    C8      19.252337   19.561614   27.090724 C.3        1 MOL1         0.0145
      24    H16     18.585930   18.954539   27.709424 H          1 MOL1         0.0921
      25    H17     18.736791   20.492744   26.840445 H          1 MOL1         0.0921
      26    N1      20.471363   19.910270   27.919889 N.4        1 MOL1        -0.5969
      27    H18     20.987109   19.073139   28.210944 H          1 MOL1         0.3603
      28    H19     20.217839   20.417467   28.774979 H          1 MOL1         0.3603
      29    H20     21.127490   20.505065   27.403028 H          1 MOL1         0.3603
@<TRIPOS>BOND
    1     1     2    1
    2     1     3    1
    3     1     4    1
    4     1     5    1
    5     5     6    1
    6     5     7    1
    7     5     8    1
    8     8     9    1
    9     8    10    1
   10     8    11    1
   11    11    12    1
   12    11    13    1
   13    11    14    1
   14    14    15    1
   15    14    16    1
   16    14    17    1
   17    17    18    1
   18    17    19    1
   19    17    20    1
   20    20    21    1
   21    20    22    1
   22    20    23    1
   23    23    24    1
   24    23    25    1
   25    23    26    1
   26    26    27    1
   27    26    28    1
   28    26    29    1
@<TRIPOS>SUBSTRUCTURE
       1 MOL1            1 RESIDUE      1      MOL     
@<SCITEGIC>MOL_PROPERTY
VM2 Rank
SciTegic.value.IntegerValue
135

@<SCITEGIC>MOL_PROPERTY
Conf_Id
SciTegic.value.IntegerValue
1645

@<SCITEGIC>MOL_PROPERTY
Probability
SciTegic.value.DoubleValue
0.20

@<SCITEGIC>MOL_PROPERTY
Sum Probability
SciTegic.value.DoubleValue
91.40

@<SCITEGIC>MOL_PROPERTY
Delta G
SciTegic.value.DoubleValue
1.961

@<SCITEGIC>MOL_PROPERTY
G
SciTegic.value.DoubleValue
60.107

@<SCITEGIC>MOL_PROPERTY
E
SciTegic.value.DoubleValue
22.397

@<SCITEGIC>MOL_PROPERTY
-TS
SciTegic.value.DoubleValue
37.710

@<SCITEGIC>MOL_PROPERTY
U+W
SciTegic.value.DoubleValue
-1.747

@<SCITEGIC>MOL_PROPERTY
U
SciTegic.value.DoubleValue
50.232

@<SCITEGIC>MOL_PROPERTY
W
SciTegic.value.DoubleValue
-51.980

@<SCITEGIC>MOL_PROPERTY
W(PB)
SciTegic.value.DoubleValue
-54.439

@<SCITEGIC>MOL_PROPERTY
W(SA)
SciTegic.value.DoubleValue
2.459

@<SCITEGIC>MOL_PROPERTY
Valence
SciTegic.value.DoubleValue
4.148

@<SCITEGIC>MOL_PROPERTY
Coulomb
SciTegic.value.DoubleValue
45.153

@<SCITEGIC>MOL_PROPERTY
VdW
SciTegic.value.DoubleValue
0.932

@<SCITEGIC>MOL_PROPERTY
VdW6
SciTegic.value.DoubleValue
-9.217

@<SCITEGIC>MOL_PROPERTY
VdW12
SciTegic.value.DoubleValue
10.149

@<SCITEGIC>MOL_PROPERTY
Bond
SciTegic.value.DoubleValue
0.273

@<SCITEGIC>MOL_PROPERTY
Angle
SciTegic.value.DoubleValue
1.395

@<SCITEGIC>MOL_PROPERTY
Pdih
SciTegic.value.DoubleValue
2.481

@<SCITEGIC>MOL_PROPERTY
Idih
SciTegic.value.DoubleValue
0.000

@<SCITEGIC>MOL_PROPERTY
Tether
SciTegic.value.DoubleValue
0.000

@<TRIPOS>MOLECULE
guest-3_vm2.mol2 : vm2 ligand conformer 136
          29          28           1
SMALL
USER_CHARGES
 
@<TRIPOS>ATOM
       1    C1      20.361451   19.222522   19.485283 C.3        1 MOL1        -0.2427
       2    H1      20.558404   18.191525   19.163595 H          1 MOL1         0.0958
       3    H2      19.872061   19.746879   18.654268 H          1 MOL1         0.0958
       4    H3      21.325836   19.712719   19.672140 H          1 MOL1         0.0958
       5    C2      19.472120   19.250510   20.746380 C.3        1 MOL1        -0.1412
       6    H4      18.505227   18.779628   20.520452 H          1 MOL1         0.0947
       7    H5      19.263953   20.295493   21.010868 H          1 MOL1         0.0947
       8    C3      20.144143   18.520540   21.933358 C.3        1 MOL1        -0.1437
       9    H6      20.419110   17.505251   21.615722 H          1 MOL1         0.0947
      10    H7      21.083771   19.025859   22.195930 H          1 MOL1         0.0947
      11    C4      19.243909   18.412429   23.188759 C.3        1 MOL1        -0.1437
      12    H8      19.750426   17.759049   23.910660 H          1 MOL1         0.0947
      13    H9      18.302360   17.911816   22.924453 H          1 MOL1         0.0947
      14    C5      18.942174   19.779394   23.853964 C.3        1 MOL1        -0.1437
      15    H10     19.883934   20.281002   24.113589 H          1 MOL1         0.0947
      16    H11     18.438841   20.434832   23.131941 H          1 MOL1         0.0947
      17    C6      18.035194   19.672239   25.107453 C.3        1 MOL1        -0.1437
      18    H12     17.061791   19.256289   24.813023 H          1 MOL1         0.0947
      19    H13     17.830020   20.685684   25.479297 H          1 MOL1         0.0947
      20    C7      18.614597   18.824032   26.267023 C.3        1 MOL1        -0.1477
      21    H14     17.910808   18.850173   27.109535 H          1 MOL1         0.0947
      22    H15     18.689787   17.772119   25.963770 H          1 MOL1         0.0947
      23    C8      19.989518   19.326907   26.744397 C.3        1 MOL1         0.0145
      24    H16     19.910992   20.371531   27.057296 H          1 MOL1         0.0921
      25    H17     20.709725   19.265451   25.924340 H          1 MOL1         0.0921
      26    N1      20.540895   18.529426   27.908384 N.4        1 MOL1        -0.5969
      27    H18     19.921830   18.568498   28.724890 H          1 MOL1         0.3603
      28    H19     21.456513   18.880039   28.210574 H          1 MOL1         0.3603
      29    H20     20.663559   17.539908   27.669335 H          1 MOL1         0.3603
@<TRIPOS>BOND
    1     1     2    1
    2     1     3    1
    3     1     4    1
    4     1     5    1
    5     5     6    1
    6     5     7    1
    7     5     8    1
    8     8     9    1
    9     8    10    1
   10     8    11    1
   11    11    12    1
   12    11    13    1
   13    11    14    1
   14    14    15    1
   15    14    16    1
   16    14    17    1
   17    17    18    1
   18    17    19    1
   19    17    20    1
   20    20    21    1
   21    20    22    1
   22    20    23    1
   23    23    24    1
   24    23    25    1
   25    23    26    1
   26    26    27    1
   27    26    28    1
   28    26    29    1
@<TRIPOS>SUBSTRUCTURE
       1 MOL1            1 RESIDUE      1      MOL     
@<SCITEGIC>MOL_PROPERTY
VM2 Rank
SciTegic.value.IntegerValue
136

@<SCITEGIC>MOL_PROPERTY
Conf_Id
SciTegic.value.IntegerValue
257

@<SCITEGIC>MOL_PROPERTY
Probability
SciTegic.value.DoubleValue
0.19

@<SCITEGIC>MOL_PROPERTY
Sum Probability
SciTegic.value.DoubleValue
91.60

@<SCITEGIC>MOL_PROPERTY
Delta G
SciTegic.value.DoubleValue
1.973

@<SCITEGIC>MOL_PROPERTY
G
SciTegic.value.DoubleValue
60.119

@<SCITEGIC>MOL_PROPERTY
E
SciTegic.value.DoubleValue
22.544

@<SCITEGIC>MOL_PROPERTY
-TS
SciTegic.value.DoubleValue
37.576

@<SCITEGIC>MOL_PROPERTY
U+W
SciTegic.value.DoubleValue
-1.601

@<SCITEGIC>MOL_PROPERTY
U
SciTegic.value.DoubleValue
50.254

@<SCITEGIC>MOL_PROPERTY
W
SciTegic.value.DoubleValue
-51.855

@<SCITEGIC>MOL_PROPERTY
W(PB)
SciTegic.value.DoubleValue
-54.370

@<SCITEGIC>MOL_PROPERTY
W(SA)
SciTegic.value.DoubleValue
2.515

@<SCITEGIC>MOL_PROPERTY
Valence
SciTegic.value.DoubleValue
3.959

@<SCITEGIC>MOL_PROPERTY
Coulomb
SciTegic.value.DoubleValue
45.374

@<SCITEGIC>MOL_PROPERTY
VdW
SciTegic.value.DoubleValue
0.921

@<SCITEGIC>MOL_PROPERTY
VdW6
SciTegic.value.DoubleValue
-9.108

@<SCITEGIC>MOL_PROPERTY
VdW12
SciTegic.value.DoubleValue
10.028

@<SCITEGIC>MOL_PROPERTY
Bond
SciTegic.value.DoubleValue
0.261

@<SCITEGIC>MOL_PROPERTY
Angle
SciTegic.value.DoubleValue
1.234

@<SCITEGIC>MOL_PROPERTY
Pdih
SciTegic.value.DoubleValue
2.465

@<SCITEGIC>MOL_PROPERTY
Idih
SciTegic.value.DoubleValue
0.000

@<SCITEGIC>MOL_PROPERTY
Tether
SciTegic.value.DoubleValue
0.000

@<TRIPOS>MOLECULE
guest-3_vm2.mol2 : vm2 ligand conformer 137
          29          28           1
SMALL
USER_CHARGES
 
@<TRIPOS>ATOM
       1    C1      20.139051   19.621959   19.511359 C.3        1 MOL1        -0.2427
       2    H1      20.278970   20.617735   19.949575 H          1 MOL1         0.0958
       3    H2      21.102129   19.095780   19.536603 H          1 MOL1         0.0958
       4    H3      19.860705   19.761916   18.458806 H          1 MOL1         0.0958
       5    C2      19.047878   18.820049   20.256504 C.3        1 MOL1        -0.1412
       6    H4      18.855831   17.889604   19.704081 H          1 MOL1         0.0947
       7    H5      18.103935   19.382740   20.247986 H          1 MOL1         0.0947
       8    C3      19.430431   18.460792   21.712810 C.3        1 MOL1        -0.1437
       9    H6      18.663266   17.781694   22.105598 H          1 MOL1         0.0947
      10    H7      20.374056   17.898166   21.715569 H          1 MOL1         0.0947
      11    C4      19.554974   19.696513   22.640272 C.3        1 MOL1        -0.1437
      12    H8      18.610156   20.257119   22.641487 H          1 MOL1         0.0947
      13    H9      20.317031   20.376674   22.238773 H          1 MOL1         0.0947
      14    C5      19.951246   19.343886   24.095402 C.3        1 MOL1        -0.1437
      15    H10     20.886567   18.767395   24.091794 H          1 MOL1         0.0947
      16    H11     20.169443   20.281501   24.623304 H          1 MOL1         0.0947
      17    C6      18.856548   18.562308   24.865811 C.3        1 MOL1        -0.1437
      18    H12     18.658381   17.608007   24.361521 H          1 MOL1         0.0947
      19    H13     17.914187   19.127083   24.846894 H          1 MOL1         0.0947
      20    C7      19.246463   18.259987   26.331948 C.3        1 MOL1        -0.1477
      21    H14     18.476939   17.616462   26.778793 H          1 MOL1         0.0947
      22    H15     20.184786   17.689853   26.354328 H          1 MOL1         0.0947
      23    C8      19.392547   19.533262   27.186201 C.3        1 MOL1         0.0145
      24    H16     18.458581   20.101174   27.162806 H          1 MOL1         0.0921
      25    H17     20.189097   20.162530   26.781227 H          1 MOL1         0.0921
      26    N1      19.724863   19.239244   28.634693 N.4        1 MOL1        -0.5969
      27    H18     18.999116   18.672072   29.085362 H          1 MOL1         0.3603
      28    H19     19.817659   20.099246   29.186476 H          1 MOL1         0.3603
      29    H20     20.608791   18.727797   28.727360 H          1 MOL1         0.3603
@<TRIPOS>BOND
    1     1     2    1
    2     1     3    1
    3     1     4    1
    4     1     5    1
    5     5     6    1
    6     5     7    1
    7     5     8    1
    8     8     9    1
    9     8    10    1
   10     8    11    1
   11    11    12    1
   12    11    13    1
   13    11    14    1
   14    14    15    1
   15    14    16    1
   16    14    17    1
   17    17    18    1
   18    17    19    1
   19    17    20    1
   20    20    21    1
   21    20    22    1
   22    20    23    1
   23    23    24    1
   24    23    25    1
   25    23    26    1
   26    26    27    1
   27    26    28    1
   28    26    29    1
@<TRIPOS>SUBSTRUCTURE
       1 MOL1            1 RESIDUE      1      MOL     
@<SCITEGIC>MOL_PROPERTY
VM2 Rank
SciTegic.value.IntegerValue
137

@<SCITEGIC>MOL_PROPERTY
Conf_Id
SciTegic.value.IntegerValue
292

@<SCITEGIC>MOL_PROPERTY
Probability
SciTegic.value.DoubleValue
0.19

@<SCITEGIC>MOL_PROPERTY
Sum Probability
SciTegic.value.DoubleValue
91.79

@<SCITEGIC>MOL_PROPERTY
Delta G
SciTegic.value.DoubleValue
1.974

@<SCITEGIC>MOL_PROPERTY
G
SciTegic.value.DoubleValue
60.121

@<SCITEGIC>MOL_PROPERTY
E
SciTegic.value.DoubleValue
22.724

@<SCITEGIC>MOL_PROPERTY
-TS
SciTegic.value.DoubleValue
37.397

@<SCITEGIC>MOL_PROPERTY
U+W
SciTegic.value.DoubleValue
-1.421

@<SCITEGIC>MOL_PROPERTY
U
SciTegic.value.DoubleValue
49.967

@<SCITEGIC>MOL_PROPERTY
W
SciTegic.value.DoubleValue
-51.387

@<SCITEGIC>MOL_PROPERTY
W(PB)
SciTegic.value.DoubleValue
-53.926

@<SCITEGIC>MOL_PROPERTY
W(SA)
SciTegic.value.DoubleValue
2.539

@<SCITEGIC>MOL_PROPERTY
Valence
SciTegic.value.DoubleValue
4.059

@<SCITEGIC>MOL_PROPERTY
Coulomb
SciTegic.value.DoubleValue
44.783

@<SCITEGIC>MOL_PROPERTY
VdW
SciTegic.value.DoubleValue
1.124

@<SCITEGIC>MOL_PROPERTY
VdW6
SciTegic.value.DoubleValue
-8.699

@<SCITEGIC>MOL_PROPERTY
VdW12
SciTegic.value.DoubleValue
9.823

@<SCITEGIC>MOL_PROPERTY
Bond
SciTegic.value.DoubleValue
0.258

@<SCITEGIC>MOL_PROPERTY
Angle
SciTegic.value.DoubleValue
1.106

@<SCITEGIC>MOL_PROPERTY
Pdih
SciTegic.value.DoubleValue
2.695

@<SCITEGIC>MOL_PROPERTY
Idih
SciTegic.value.DoubleValue
0.000

@<SCITEGIC>MOL_PROPERTY
Tether
SciTegic.value.DoubleValue
0.000

@<TRIPOS>MOLECULE
guest-3_vm2.mol2 : vm2 ligand conformer 138
          29          28           1
SMALL
USER_CHARGES
 
@<TRIPOS>ATOM
       1    C1      19.961984   18.554660   19.774539 C.3        1 MOL1        -0.2427
       2    H1      20.136255   17.787182   19.009342 H          1 MOL1         0.0958
       3    H2      19.302138   19.317212   19.340796 H          1 MOL1         0.0958
       4    H3      20.928861   19.022266   19.997416 H          1 MOL1         0.0958
       5    C2      19.329527   17.925293   21.036568 C.3        1 MOL1        -0.1412
       6    H4      20.022650   17.191866   21.471707 H          1 MOL1         0.0947
       7    H5      18.433987   17.362418   20.738356 H          1 MOL1         0.0947
       8    C3      18.925758   18.965121   22.109689 C.3        1 MOL1        -0.1437
       9    H6      18.231323   19.694821   21.671262 H          1 MOL1         0.0947
      10    H7      18.369053   18.440103   22.896489 H          1 MOL1         0.0947
      11    C4      20.134346   19.704605   22.737562 C.3        1 MOL1        -0.1437
      12    H8      20.694073   20.223436   21.948915 H          1 MOL1         0.0947
      13    H9      20.831122   18.976016   23.172152 H          1 MOL1         0.0947
      14    C5      19.733050   20.757217   23.803603 C.3        1 MOL1        -0.1437
      15    H10     20.643021   21.257969   24.161910 H          1 MOL1         0.0947
      16    H11     19.130820   21.539578   23.321512 H          1 MOL1         0.0947
      17    C6      18.950601   20.208574   25.024980 C.3        1 MOL1        -0.1437
      18    H12     17.972756   19.825174   24.704852 H          1 MOL1         0.0947
      19    H13     18.736756   21.046885   25.702520 H          1 MOL1         0.0947
      20    C7      19.711599   19.113146   25.807604 C.3        1 MOL1        -0.1477
      21    H14     19.863760   18.232212   25.171158 H          1 MOL1         0.0947
      22    H15     20.705223   19.484492   26.091570 H          1 MOL1         0.0947
      23    C8      18.942176   18.691049   27.071379 C.3        1 MOL1         0.0145
      24    H16     17.957935   18.305746   26.791668 H          1 MOL1         0.0921
      25    H17     18.800379   19.557628   27.722812 H          1 MOL1         0.0921
      26    N1      19.654958   17.618335   27.869076 N.4        1 MOL1        -0.5969
      27    H18     20.579392   17.929146   28.185801 H          1 MOL1         0.3603
      28    H19     19.795096   16.763737   27.320028 H          1 MOL1         0.3603
      29    H20     19.125903   17.352118   28.706888 H          1 MOL1         0.3603
@<TRIPOS>BOND
    1     1     2    1
    2     1     3    1
    3     1     4    1
    4     1     5    1
    5     5     6    1
    6     5     7    1
    7     5     8    1
    8     8     9    1
    9     8    10    1
   10     8    11    1
   11    11    12    1
   12    11    13    1
   13    11    14    1
   14    14    15    1
   15    14    16    1
   16    14    17    1
   17    17    18    1
   18    17    19    1
   19    17    20    1
   20    20    21    1
   21    20    22    1
   22    20    23    1
   23    23    24    1
   24    23    25    1
   25    23    26    1
   26    26    27    1
   27    26    28    1
   28    26    29    1
@<TRIPOS>SUBSTRUCTURE
       1 MOL1            1 RESIDUE      1      MOL     
@<SCITEGIC>MOL_PROPERTY
VM2 Rank
SciTegic.value.IntegerValue
138

@<SCITEGIC>MOL_PROPERTY
Conf_Id
SciTegic.value.IntegerValue
1041

@<SCITEGIC>MOL_PROPERTY
Probability
SciTegic.value.DoubleValue
0.17

@<SCITEGIC>MOL_PROPERTY
Sum Probability
SciTegic.value.DoubleValue
91.96

@<SCITEGIC>MOL_PROPERTY
Delta G
SciTegic.value.DoubleValue
2.039

@<SCITEGIC>MOL_PROPERTY
G
SciTegic.value.DoubleValue
60.185

@<SCITEGIC>MOL_PROPERTY
E
SciTegic.value.DoubleValue
22.476

@<SCITEGIC>MOL_PROPERTY
-TS
SciTegic.value.DoubleValue
37.709

@<SCITEGIC>MOL_PROPERTY
U+W
SciTegic.value.DoubleValue
-1.669

@<SCITEGIC>MOL_PROPERTY
U
SciTegic.value.DoubleValue
50.232

@<SCITEGIC>MOL_PROPERTY
W
SciTegic.value.DoubleValue
-51.900

@<SCITEGIC>MOL_PROPERTY
W(PB)
SciTegic.value.DoubleValue
-54.358

@<SCITEGIC>MOL_PROPERTY
W(SA)
SciTegic.value.DoubleValue
2.458

@<SCITEGIC>MOL_PROPERTY
Valence
SciTegic.value.DoubleValue
4.148

@<SCITEGIC>MOL_PROPERTY
Coulomb
SciTegic.value.DoubleValue
45.153

@<SCITEGIC>MOL_PROPERTY
VdW
SciTegic.value.DoubleValue
0.932

@<SCITEGIC>MOL_PROPERTY
VdW6
SciTegic.value.DoubleValue
-9.217

@<SCITEGIC>MOL_PROPERTY
VdW12
SciTegic.value.DoubleValue
10.148

@<SCITEGIC>MOL_PROPERTY
Bond
SciTegic.value.DoubleValue
0.273

@<SCITEGIC>MOL_PROPERTY
Angle
SciTegic.value.DoubleValue
1.395

@<SCITEGIC>MOL_PROPERTY
Pdih
SciTegic.value.DoubleValue
2.481

@<SCITEGIC>MOL_PROPERTY
Idih
SciTegic.value.DoubleValue
0.000

@<SCITEGIC>MOL_PROPERTY
Tether
SciTegic.value.DoubleValue
0.000

@<TRIPOS>MOLECULE
guest-3_vm2.mol2 : vm2 ligand conformer 139
          29          28           1
SMALL
USER_CHARGES
 
@<TRIPOS>ATOM
       1    C1      18.699659   18.472618   20.053026 C.3        1 MOL1        -0.2427
       2    H1      18.002836   18.291796   20.880974 H          1 MOL1         0.0958
       3    H2      18.109280   18.813025   19.192555 H          1 MOL1         0.0958
       4    H3      19.168872   17.517814   19.782603 H          1 MOL1         0.0958
       5    C2      19.764323   19.527171   20.430329 C.3        1 MOL1        -0.1412
       6    H4      19.271475   20.465541   20.717263 H          1 MOL1         0.0947
       7    H5      20.359983   19.763025   19.537475 H          1 MOL1         0.0947
       8    C3      20.725097   19.059672   21.553400 C.3        1 MOL1        -0.1437
       9    H6      21.302293   18.199100   21.188203 H          1 MOL1         0.0947
      10    H7      21.459450   19.854252   21.744343 H          1 MOL1         0.0947
      11    C4      20.046874   18.668226   22.892063 C.3        1 MOL1        -0.1437
      12    H8      20.832728   18.325800   23.577071 H          1 MOL1         0.0947
      13    H9      19.383338   17.807231   22.737790 H          1 MOL1         0.0947
      14    C5      19.256997   19.828582   23.549086 C.3        1 MOL1        -0.1437
      15    H10     19.922595   20.688156   23.707429 H          1 MOL1         0.0947
      16    H11     18.470590   20.167864   22.862659 H          1 MOL1         0.0947
      17    C6      18.583799   19.438837   24.888134 C.3        1 MOL1        -0.1437
      18    H12     17.920239   18.577335   24.729955 H          1 MOL1         0.0947
      19    H13     17.939009   20.269631   25.207053 H          1 MOL1         0.0947
      20    C7      19.588581   19.123439   26.021074 C.3        1 MOL1        -0.1477
      21    H14     20.186065   18.240204   25.763286 H          1 MOL1         0.0947
      22    H15     20.285711   19.963305   26.141541 H          1 MOL1         0.0947
      23    C8      18.864928   18.865048   27.354199 C.3        1 MOL1         0.0145
      24    H16     18.181284   18.018916   27.244014 H          1 MOL1         0.0921
      25    H17     18.280372   19.746044   27.632722 H          1 MOL1         0.0921
      26    N1      19.813744   18.554406   28.493689 N.4        1 MOL1        -0.5969
      27    H18     20.375515   17.717441   28.305574 H          1 MOL1         0.3603
      28    H19     19.311404   18.385993   29.372336 H          1 MOL1         0.3603
      29    H20     20.467945   19.324894   28.666575 H          1 MOL1         0.3603
@<TRIPOS>BOND
    1     1     2    1
    2     1     3    1
    3     1     4    1
    4     1     5    1
    5     5     6    1
    6     5     7    1
    7     5     8    1
    8     8     9    1
    9     8    10    1
   10     8    11    1
   11    11    12    1
   12    11    13    1
   13    11    14    1
   14    14    15    1
   15    14    16    1
   16    14    17    1
   17    17    18    1
   18    17    19    1
   19    17    20    1
   20    20    21    1
   21    20    22    1
   22    20    23    1
   23    23    24    1
   24    23    25    1
   25    23    26    1
   26    26    27    1
   27    26    28    1
   28    26    29    1
@<TRIPOS>SUBSTRUCTURE
       1 MOL1            1 RESIDUE      1      MOL     
@<SCITEGIC>MOL_PROPERTY
VM2 Rank
SciTegic.value.IntegerValue
139

@<SCITEGIC>MOL_PROPERTY
Conf_Id
SciTegic.value.IntegerValue
2009

@<SCITEGIC>MOL_PROPERTY
Probability
SciTegic.value.DoubleValue
0.17

@<SCITEGIC>MOL_PROPERTY
Sum Probability
SciTegic.value.DoubleValue
92.13

@<SCITEGIC>MOL_PROPERTY
Delta G
SciTegic.value.DoubleValue
2.059

@<SCITEGIC>MOL_PROPERTY
G
SciTegic.value.DoubleValue
60.205

@<SCITEGIC>MOL_PROPERTY
E
SciTegic.value.DoubleValue
22.535

@<SCITEGIC>MOL_PROPERTY
-TS
SciTegic.value.DoubleValue
37.670

@<SCITEGIC>MOL_PROPERTY
U+W
SciTegic.value.DoubleValue
-1.610

@<SCITEGIC>MOL_PROPERTY
U
SciTegic.value.DoubleValue
49.922

@<SCITEGIC>MOL_PROPERTY
W
SciTegic.value.DoubleValue
-51.532

@<SCITEGIC>MOL_PROPERTY
W(PB)
SciTegic.value.DoubleValue
-53.995

@<SCITEGIC>MOL_PROPERTY
W(SA)
SciTegic.value.DoubleValue
2.463

@<SCITEGIC>MOL_PROPERTY
Valence
SciTegic.value.DoubleValue
4.160

@<SCITEGIC>MOL_PROPERTY
Coulomb
SciTegic.value.DoubleValue
44.771

@<SCITEGIC>MOL_PROPERTY
VdW
SciTegic.value.DoubleValue
0.992

@<SCITEGIC>MOL_PROPERTY
VdW6
SciTegic.value.DoubleValue
-9.113

@<SCITEGIC>MOL_PROPERTY
VdW12
SciTegic.value.DoubleValue
10.105

@<SCITEGIC>MOL_PROPERTY
Bond
SciTegic.value.DoubleValue
0.273

@<SCITEGIC>MOL_PROPERTY
Angle
SciTegic.value.DoubleValue
1.388

@<SCITEGIC>MOL_PROPERTY
Pdih
SciTegic.value.DoubleValue
2.499

@<SCITEGIC>MOL_PROPERTY
Idih
SciTegic.value.DoubleValue
0.000

@<SCITEGIC>MOL_PROPERTY
Tether
SciTegic.value.DoubleValue
0.000

@<TRIPOS>MOLECULE
guest-3_vm2.mol2 : vm2 ligand conformer 140
          29          28           1
SMALL
USER_CHARGES
 
@<TRIPOS>ATOM
       1    C1      19.710613   18.234785   19.696788 C.3        1 MOL1        -0.2427
       2    H1      19.062262   18.014783   18.838727 H          1 MOL1         0.0958
       3    H2      20.524984   18.882468   19.346721 H          1 MOL1         0.0958
       4    H3      20.149343   17.288484   20.039218 H          1 MOL1         0.0958
       5    C2      18.907910   18.914735   20.826014 C.3        1 MOL1        -0.1412
       6    H4      18.081611   18.258097   21.132464 H          1 MOL1         0.0947
       7    H5      18.453343   19.839541   20.443987 H          1 MOL1         0.0947
       8    C3      19.798138   19.236143   22.046630 C.3        1 MOL1        -0.1437
       9    H6      20.253261   18.306563   22.412643 H          1 MOL1         0.0947
      10    H7      20.621238   19.894620   21.736776 H          1 MOL1         0.0947
      11    C4      18.993554   19.913199   23.181739 C.3        1 MOL1        -0.1437
      12    H8      18.192070   19.243258   23.519829 H          1 MOL1         0.0947
      13    H9      18.492524   20.805152   22.781073 H          1 MOL1         0.0947
      14    C5      19.867597   20.345515   24.387082 C.3        1 MOL1        -0.1437
      15    H10     20.598066   21.092096   24.046291 H          1 MOL1         0.0947
      16    H11     19.231709   20.866211   25.115457 H          1 MOL1         0.0947
      17    C6      20.629129   19.194885   25.098723 C.3        1 MOL1        -0.1437
      18    H12     21.194219   19.615444   25.941237 H          1 MOL1         0.0947
      19    H13     21.386488   18.781420   24.419676 H          1 MOL1         0.0947
      20    C7      19.729756   18.040553   25.612918 C.3        1 MOL1        -0.1477
      21    H14     19.284039   17.512495   24.760261 H          1 MOL1         0.0947
      22    H15     20.353072   17.300471   26.131928 H          1 MOL1         0.0947
      23    C8      18.601761   18.501784   26.557172 C.3        1 MOL1         0.0145
      24    H16     17.992827   17.640452   26.844783 H          1 MOL1         0.0921
      25    H17     17.957269   19.217120   26.039695 H          1 MOL1         0.0921
      26    N1      19.105541   19.156402   27.827935 N.4        1 MOL1        -0.5969
      27    H18     19.694689   18.520245   28.374995 H          1 MOL1         0.3603
      28    H19     18.334466   19.450898   28.437063 H          1 MOL1         0.3603
      29    H20     19.666181   19.989852   27.624979 H          1 MOL1         0.3603
@<TRIPOS>BOND
    1     1     2    1
    2     1     3    1
    3     1     4    1
    4     1     5    1
    5     5     6    1
    6     5     7    1
    7     5     8    1
    8     8     9    1
    9     8    10    1
   10     8    11    1
   11    11    12    1
   12    11    13    1
   13    11    14    1
   14    14    15    1
   15    14    16    1
   16    14    17    1
   17    17    18    1
   18    17    19    1
   19    17    20    1
   20    20    21    1
   21    20    22    1
   22    20    23    1
   23    23    24    1
   24    23    25    1
   25    23    26    1
   26    26    27    1
   27    26    28    1
   28    26    29    1
@<TRIPOS>SUBSTRUCTURE
       1 MOL1            1 RESIDUE      1      MOL     
@<SCITEGIC>MOL_PROPERTY
VM2 Rank
SciTegic.value.IntegerValue
140

@<SCITEGIC>MOL_PROPERTY
Conf_Id
SciTegic.value.IntegerValue
447

@<SCITEGIC>MOL_PROPERTY
Probability
SciTegic.value.DoubleValue
0.16

@<SCITEGIC>MOL_PROPERTY
Sum Probability
SciTegic.value.DoubleValue
92.29

@<SCITEGIC>MOL_PROPERTY
Delta G
SciTegic.value.DoubleValue
2.072

@<SCITEGIC>MOL_PROPERTY
G
SciTegic.value.DoubleValue
60.218

@<SCITEGIC>MOL_PROPERTY
E
SciTegic.value.DoubleValue
22.147

@<SCITEGIC>MOL_PROPERTY
-TS
SciTegic.value.DoubleValue
38.071

@<SCITEGIC>MOL_PROPERTY
U+W
SciTegic.value.DoubleValue
-1.998

@<SCITEGIC>MOL_PROPERTY
U
SciTegic.value.DoubleValue
50.057

@<SCITEGIC>MOL_PROPERTY
W
SciTegic.value.DoubleValue
-52.054

@<SCITEGIC>MOL_PROPERTY
W(PB)
SciTegic.value.DoubleValue
-54.498

@<SCITEGIC>MOL_PROPERTY
W(SA)
SciTegic.value.DoubleValue
2.444

@<SCITEGIC>MOL_PROPERTY
Valence
SciTegic.value.DoubleValue
3.893

@<SCITEGIC>MOL_PROPERTY
Coulomb
SciTegic.value.DoubleValue
45.518

@<SCITEGIC>MOL_PROPERTY
VdW
SciTegic.value.DoubleValue
0.646

@<SCITEGIC>MOL_PROPERTY
VdW6
SciTegic.value.DoubleValue
-10.245

@<SCITEGIC>MOL_PROPERTY
VdW12
SciTegic.value.DoubleValue
10.891

@<SCITEGIC>MOL_PROPERTY
Bond
SciTegic.value.DoubleValue
0.281

@<SCITEGIC>MOL_PROPERTY
Angle
SciTegic.value.DoubleValue
1.301

@<SCITEGIC>MOL_PROPERTY
Pdih
SciTegic.value.DoubleValue
2.310

@<SCITEGIC>MOL_PROPERTY
Idih
SciTegic.value.DoubleValue
0.000

@<SCITEGIC>MOL_PROPERTY
Tether
SciTegic.value.DoubleValue
0.000

@<TRIPOS>MOLECULE
guest-3_vm2.mol2 : vm2 ligand conformer 141
          29          28           1
SMALL
USER_CHARGES
 
@<TRIPOS>ATOM
       1    C1      20.380804   17.782817   20.607749 C.3        1 MOL1        -0.2427
       2    H1      20.565934   17.390183   19.599547 H          1 MOL1         0.0958
       3    H2      21.289484   18.306291   20.929884 H          1 MOL1         0.0958
       4    H3      20.220308   16.927679   21.277060 H          1 MOL1         0.0958
       5    C2      19.154847   18.723838   20.604921 C.3        1 MOL1        -0.1412
       6    H4      18.300147   18.191210   20.165025 H          1 MOL1         0.0947
       7    H5      19.350756   19.584646   19.950464 H          1 MOL1         0.0947
       8    C3      18.758971   19.218320   22.016814 C.3        1 MOL1        -0.1437
       9    H6      17.823174   19.788586   21.938787 H          1 MOL1         0.0947
      10    H7      18.542448   18.349908   22.652773 H          1 MOL1         0.0947
      11    C4      19.839646   20.108172   22.680806 C.3        1 MOL1        -0.1437
      12    H8      20.122437   20.907738   21.982489 H          1 MOL1         0.0947
      13    H9      20.752494   19.526277   22.858689 H          1 MOL1         0.0947
      14    C5      19.372030   20.761519   24.007012 C.3        1 MOL1        -0.1437
      15    H10     20.185420   21.388728   24.397077 H          1 MOL1         0.0947
      16    H11     18.541568   21.447750   23.791185 H          1 MOL1         0.0947
      17    C6      18.924273   19.772672   25.114580 C.3        1 MOL1        -0.1437
      18    H12     18.035298   19.218341   24.785583 H          1 MOL1         0.0947
      19    H13     18.607323   20.361078   25.985626 H          1 MOL1         0.0947
      20    C7      20.032309   18.777557   25.541333 C.3        1 MOL1        -0.1477
      21    H14     20.322328   18.156171   24.684811 H          1 MOL1         0.0947
      22    H15     20.931475   19.325737   25.852272 H          1 MOL1         0.0947
      23    C8      19.582384   17.839226   26.677581 C.3        1 MOL1         0.0145
      24    H16     20.365257   17.100142   26.868345 H          1 MOL1         0.0921
      25    H17     18.675910   17.306396   26.377967 H          1 MOL1         0.0921
      26    N1      19.298736   18.553880   27.984204 N.4        1 MOL1        -0.5969
      27    H18     18.544348   19.240331   27.885146 H          1 MOL1         0.3603
      28    H19     20.122973   19.056652   28.329326 H          1 MOL1         0.3603
      29    H20     19.015298   17.899943   28.722155 H          1 MOL1         0.3603
@<TRIPOS>BOND
    1     1     2    1
    2     1     3    1
    3     1     4    1
    4     1     5    1
    5     5     6    1
    6     5     7    1
    7     5     8    1
    8     8     9    1
    9     8    10    1
   10     8    11    1
   11    11    12    1
   12    11    13    1
   13    11    14    1
   14    14    15    1
   15    14    16    1
   16    14    17    1
   17    17    18    1
   18    17    19    1
   19    17    20    1
   20    20    21    1
   21    20    22    1
   22    20    23    1
   23    23    24    1
   24    23    25    1
   25    23    26    1
   26    26    27    1
   27    26    28    1
   28    26    29    1
@<TRIPOS>SUBSTRUCTURE
       1 MOL1            1 RESIDUE      1      MOL     
@<SCITEGIC>MOL_PROPERTY
VM2 Rank
SciTegic.value.IntegerValue
141

@<SCITEGIC>MOL_PROPERTY
Conf_Id
SciTegic.value.IntegerValue
2320

@<SCITEGIC>MOL_PROPERTY
Probability
SciTegic.value.DoubleValue
0.16

@<SCITEGIC>MOL_PROPERTY
Sum Probability
SciTegic.value.DoubleValue
92.45

@<SCITEGIC>MOL_PROPERTY
Delta G
SciTegic.value.DoubleValue
2.089

@<SCITEGIC>MOL_PROPERTY
G
SciTegic.value.DoubleValue
60.235

@<SCITEGIC>MOL_PROPERTY
E
SciTegic.value.DoubleValue
22.373

@<SCITEGIC>MOL_PROPERTY
-TS
SciTegic.value.DoubleValue
37.862

@<SCITEGIC>MOL_PROPERTY
U+W
SciTegic.value.DoubleValue
-1.772

@<SCITEGIC>MOL_PROPERTY
U
SciTegic.value.DoubleValue
50.269

@<SCITEGIC>MOL_PROPERTY
W
SciTegic.value.DoubleValue
-52.041

@<SCITEGIC>MOL_PROPERTY
W(PB)
SciTegic.value.DoubleValue
-54.457

@<SCITEGIC>MOL_PROPERTY
W(SA)
SciTegic.value.DoubleValue
2.416

@<SCITEGIC>MOL_PROPERTY
Valence
SciTegic.value.DoubleValue
4.158

@<SCITEGIC>MOL_PROPERTY
Coulomb
SciTegic.value.DoubleValue
45.150

@<SCITEGIC>MOL_PROPERTY
VdW
SciTegic.value.DoubleValue
0.961

@<SCITEGIC>MOL_PROPERTY
VdW6
SciTegic.value.DoubleValue
-9.873

@<SCITEGIC>MOL_PROPERTY
VdW12
SciTegic.value.DoubleValue
10.835

@<SCITEGIC>MOL_PROPERTY
Bond
SciTegic.value.DoubleValue
0.290

@<SCITEGIC>MOL_PROPERTY
Angle
SciTegic.value.DoubleValue
1.330

@<SCITEGIC>MOL_PROPERTY
Pdih
SciTegic.value.DoubleValue
2.538

@<SCITEGIC>MOL_PROPERTY
Idih
SciTegic.value.DoubleValue
0.000

@<SCITEGIC>MOL_PROPERTY
Tether
SciTegic.value.DoubleValue
0.000

@<TRIPOS>MOLECULE
guest-3_vm2.mol2 : vm2 ligand conformer 142
          29          28           1
SMALL
USER_CHARGES
 
@<TRIPOS>ATOM
       1    C1      19.227827   19.830738   19.954935 C.3        1 MOL1        -0.2427
       2    H1      20.273755   19.785201   19.624803 H          1 MOL1         0.0958
       3    H2      18.602342   19.993205   19.067641 H          1 MOL1         0.0958
       4    H3      19.110067   20.705797   20.605998 H          1 MOL1         0.0958
       5    C2      18.815589   18.527342   20.675810 C.3        1 MOL1        -0.1412
       6    H4      18.833708   17.701096   19.951428 H          1 MOL1         0.0947
       7    H5      17.775983   18.609716   21.022420 H          1 MOL1         0.0947
       8    C3      19.736777   18.164855   21.865515 C.3        1 MOL1        -0.1437
       9    H6      19.440348   17.178448   22.248147 H          1 MOL1         0.0947
      10    H7      20.771080   18.060641   21.509781 H          1 MOL1         0.0947
      11    C4      19.683032   19.191831   23.021704 C.3        1 MOL1        -0.1437
      12    H8      18.638267   19.332516   23.327958 H          1 MOL1         0.0947
      13    H9      20.050197   20.166085   22.673627 H          1 MOL1         0.0947
      14    C5      20.530830   18.734154   24.232496 C.3        1 MOL1        -0.1437
      15    H10     20.141709   17.782552   24.618390 H          1 MOL1         0.0947
      16    H11     21.555266   18.527443   23.893245 H          1 MOL1         0.0947
      17    C6      20.596323   19.782535   25.372988 C.3        1 MOL1        -0.1437
      18    H12     21.078298   20.694394   24.994360 H          1 MOL1         0.0947
      19    H13     21.257304   19.404266   26.164328 H          1 MOL1         0.0947
      20    C7      19.224697   20.162011   25.990349 C.3        1 MOL1        -0.1477
      21    H14     19.383812   20.868180   26.816002 H          1 MOL1         0.0947
      22    H15     18.621930   20.700669   25.248070 H          1 MOL1         0.0947
      23    C8      18.416014   18.955553   26.507446 C.3        1 MOL1         0.0145
      24    H16     18.221203   18.262432   25.684913 H          1 MOL1         0.0921
      25    H17     17.454450   19.301535   26.896192 H          1 MOL1         0.0921
      26    N1      19.112911   18.188981   27.613757 N.4        1 MOL1        -0.5969
      27    H18     20.015129   17.815919   27.302291 H          1 MOL1         0.3603
      28    H19     18.552158   17.393889   27.938908 H          1 MOL1         0.3603
      29    H20     19.295280   18.781952   28.429978 H          1 MOL1         0.3603
@<TRIPOS>BOND
    1     1     2    1
    2     1     3    1
    3     1     4    1
    4     1     5    1
    5     5     6    1
    6     5     7    1
    7     5     8    1
    8     8     9    1
    9     8    10    1
   10     8    11    1
   11    11    12    1
   12    11    13    1
   13    11    14    1
   14    14    15    1
   15    14    16    1
   16    14    17    1
   17    17    18    1
   18    17    19    1
   19    17    20    1
   20    20    21    1
   21    20    22    1
   22    20    23    1
   23    23    24    1
   24    23    25    1
   25    23    26    1
   26    26    27    1
   27    26    28    1
   28    26    29    1
@<TRIPOS>SUBSTRUCTURE
       1 MOL1            1 RESIDUE      1      MOL     
@<SCITEGIC>MOL_PROPERTY
VM2 Rank
SciTegic.value.IntegerValue
142

@<SCITEGIC>MOL_PROPERTY
Conf_Id
SciTegic.value.IntegerValue
2613

@<SCITEGIC>MOL_PROPERTY
Probability
SciTegic.value.DoubleValue
0.16

@<SCITEGIC>MOL_PROPERTY
Sum Probability
SciTegic.value.DoubleValue
92.61

@<SCITEGIC>MOL_PROPERTY
Delta G
SciTegic.value.DoubleValue
2.091

@<SCITEGIC>MOL_PROPERTY
G
SciTegic.value.DoubleValue
60.237

@<SCITEGIC>MOL_PROPERTY
E
SciTegic.value.DoubleValue
22.388

@<SCITEGIC>MOL_PROPERTY
-TS
SciTegic.value.DoubleValue
37.849

@<SCITEGIC>MOL_PROPERTY
U+W
SciTegic.value.DoubleValue
-1.757

@<SCITEGIC>MOL_PROPERTY
U
SciTegic.value.DoubleValue
50.237

@<SCITEGIC>MOL_PROPERTY
W
SciTegic.value.DoubleValue
-51.994

@<SCITEGIC>MOL_PROPERTY
W(PB)
SciTegic.value.DoubleValue
-54.461

@<SCITEGIC>MOL_PROPERTY
W(SA)
SciTegic.value.DoubleValue
2.466

@<SCITEGIC>MOL_PROPERTY
Valence
SciTegic.value.DoubleValue
3.943

@<SCITEGIC>MOL_PROPERTY
Coulomb
SciTegic.value.DoubleValue
45.443

@<SCITEGIC>MOL_PROPERTY
VdW
SciTegic.value.DoubleValue
0.851

@<SCITEGIC>MOL_PROPERTY
VdW6
SciTegic.value.DoubleValue
-9.878

@<SCITEGIC>MOL_PROPERTY
VdW12
SciTegic.value.DoubleValue
10.728

@<SCITEGIC>MOL_PROPERTY
Bond
SciTegic.value.DoubleValue
0.271

@<SCITEGIC>MOL_PROPERTY
Angle
SciTegic.value.DoubleValue
1.194

@<SCITEGIC>MOL_PROPERTY
Pdih
SciTegic.value.DoubleValue
2.478

@<SCITEGIC>MOL_PROPERTY
Idih
SciTegic.value.DoubleValue
0.000

@<SCITEGIC>MOL_PROPERTY
Tether
SciTegic.value.DoubleValue
0.000

@<TRIPOS>MOLECULE
guest-3_vm2.mol2 : vm2 ligand conformer 143
          29          28           1
SMALL
USER_CHARGES
 
@<TRIPOS>ATOM
       1    C1      20.090298   19.809809   20.183274 C.3        1 MOL1        -0.2427
       2    H1      19.796240   19.141095   19.363962 H          1 MOL1         0.0958
       3    H2      20.292429   20.799459   19.753694 H          1 MOL1         0.0958
       4    H3      21.029031   19.436775   20.611343 H          1 MOL1         0.0958
       5    C2      18.977790   19.900196   21.251932 C.3        1 MOL1        -0.1412
       6    H4      18.095261   20.378082   20.804392 H          1 MOL1         0.0947
       7    H5      19.298906   20.563429   22.066205 H          1 MOL1         0.0947
       8    C3      18.558145   18.520484   21.819291 C.3        1 MOL1        -0.1437
       9    H6      17.729371   18.662319   22.525421 H          1 MOL1         0.0947
      10    H7      18.146774   17.912225   21.002117 H          1 MOL1         0.0947
      11    C4      19.693177   17.717420   22.510070 C.3        1 MOL1        -0.1437
      12    H8      20.438080   17.423622   21.758641 H          1 MOL1         0.0947
      13    H9      19.274341   16.776502   22.892403 H          1 MOL1         0.0947
      14    C5      20.413786   18.452964   23.669110 C.3        1 MOL1        -0.1437
      15    H10     21.201509   17.794108   24.059650 H          1 MOL1         0.0947
      16    H11     20.928193   19.343572   23.284632 H          1 MOL1         0.0947
      17    C6      19.469980   18.851531   24.828610 C.3        1 MOL1        -0.1437
      18    H12     18.929130   17.961419   25.176276 H          1 MOL1         0.0947
      19    H13     18.716610   19.564753   24.468951 H          1 MOL1         0.0947
      20    C7      20.246926   19.488802   26.004591 C.3        1 MOL1        -0.1477
      21    H14     20.980935   18.775208   26.402033 H          1 MOL1         0.0947
      22    H15     20.816537   20.353036   25.637709 H          1 MOL1         0.0947
      23    C8      19.321510   19.961677   27.142048 C.3        1 MOL1         0.0145
      24    H16     18.585958   20.668430   26.748548 H          1 MOL1         0.0921
      25    H17     19.915183   20.475243   27.903191 H          1 MOL1         0.0921
      26    N1      18.572388   18.835117   27.826074 N.4        1 MOL1        -0.5969
      27    H18     17.965966   18.331034   27.171574 H          1 MOL1         0.3603
      28    H19     17.974730   19.180838   28.584923 H          1 MOL1         0.3603
      29    H20     19.212327   18.147827   28.237647 H          1 MOL1         0.3603
@<TRIPOS>BOND
    1     1     2    1
    2     1     3    1
    3     1     4    1
    4     1     5    1
    5     5     6    1
    6     5     7    1
    7     5     8    1
    8     8     9    1
    9     8    10    1
   10     8    11    1
   11    11    12    1
   12    11    13    1
   13    11    14    1
   14    14    15    1
   15    14    16    1
   16    14    17    1
   17    17    18    1
   18    17    19    1
   19    17    20    1
   20    20    21    1
   21    20    22    1
   22    20    23    1
   23    23    24    1
   24    23    25    1
   25    23    26    1
   26    26    27    1
   27    26    28    1
   28    26    29    1
@<TRIPOS>SUBSTRUCTURE
       1 MOL1            1 RESIDUE      1      MOL     
@<SCITEGIC>MOL_PROPERTY
VM2 Rank
SciTegic.value.IntegerValue
143

@<SCITEGIC>MOL_PROPERTY
Conf_Id
SciTegic.value.IntegerValue
611

@<SCITEGIC>MOL_PROPERTY
Probability
SciTegic.value.DoubleValue
0.15

@<SCITEGIC>MOL_PROPERTY
Sum Probability
SciTegic.value.DoubleValue
92.76

@<SCITEGIC>MOL_PROPERTY
Delta G
SciTegic.value.DoubleValue
2.106

@<SCITEGIC>MOL_PROPERTY
G
SciTegic.value.DoubleValue
60.252

@<SCITEGIC>MOL_PROPERTY
E
SciTegic.value.DoubleValue
22.189

@<SCITEGIC>MOL_PROPERTY
-TS
SciTegic.value.DoubleValue
38.064

@<SCITEGIC>MOL_PROPERTY
U+W
SciTegic.value.DoubleValue
-1.956

@<SCITEGIC>MOL_PROPERTY
U
SciTegic.value.DoubleValue
50.133

@<SCITEGIC>MOL_PROPERTY
W
SciTegic.value.DoubleValue
-52.089

@<SCITEGIC>MOL_PROPERTY
W(PB)
SciTegic.value.DoubleValue
-54.534

@<SCITEGIC>MOL_PROPERTY
W(SA)
SciTegic.value.DoubleValue
2.445

@<SCITEGIC>MOL_PROPERTY
Valence
SciTegic.value.DoubleValue
4.088

@<SCITEGIC>MOL_PROPERTY
Coulomb
SciTegic.value.DoubleValue
45.212

@<SCITEGIC>MOL_PROPERTY
VdW
SciTegic.value.DoubleValue
0.833

@<SCITEGIC>MOL_PROPERTY
VdW6
SciTegic.value.DoubleValue
-10.051

@<SCITEGIC>MOL_PROPERTY
VdW12
SciTegic.value.DoubleValue
10.884

@<SCITEGIC>MOL_PROPERTY
Bond
SciTegic.value.DoubleValue
0.287

@<SCITEGIC>MOL_PROPERTY
Angle
SciTegic.value.DoubleValue
1.409

@<SCITEGIC>MOL_PROPERTY
Pdih
SciTegic.value.DoubleValue
2.391

@<SCITEGIC>MOL_PROPERTY
Idih
SciTegic.value.DoubleValue
0.000

@<SCITEGIC>MOL_PROPERTY
Tether
SciTegic.value.DoubleValue
0.000

@<TRIPOS>MOLECULE
guest-3_vm2.mol2 : vm2 ligand conformer 144
          29          28           1
SMALL
USER_CHARGES
 
@<TRIPOS>ATOM
       1    C1      20.810148   20.055742   20.616891 C.3        1 MOL1        -0.2427
       2    H1      21.747357   19.577982   20.930584 H          1 MOL1         0.0958
       3    H2      20.991190   20.549911   19.653592 H          1 MOL1         0.0958
       4    H3      20.560757   20.836596   21.345923 H          1 MOL1         0.0958
       5    C2      19.673444   19.016754   20.486154 C.3        1 MOL1        -0.1412
       6    H4      19.913582   18.331595   19.661149 H          1 MOL1         0.0947
       7    H5      18.740188   19.523460   20.203319 H          1 MOL1         0.0947
       8    C3      19.448584   18.185273   21.772058 C.3        1 MOL1        -0.1437
       9    H6      18.708479   17.402563   21.555645 H          1 MOL1         0.0947
      10    H7      20.378803   17.665681   22.040237 H          1 MOL1         0.0947
      11    C4      18.957001   19.028096   22.973084 C.3        1 MOL1        -0.1437
      12    H8      18.052406   19.581934   22.686969 H          1 MOL1         0.0947
      13    H9      19.719981   19.771569   23.234014 H          1 MOL1         0.0947
      14    C5      18.653381   18.143951   24.206167 C.3        1 MOL1        -0.1437
      15    H10     17.935488   17.363357   23.918898 H          1 MOL1         0.0947
      16    H11     19.565523   17.617078   24.516480 H          1 MOL1         0.0947
      17    C6      18.062217   18.933156   25.402819 C.3        1 MOL1        -0.1437
      18    H12     17.825651   18.227188   26.210197 H          1 MOL1         0.0947
      19    H13     17.101377   19.373178   25.102306 H          1 MOL1         0.0947
      20    C7      18.974678   20.057939   25.958662 C.3        1 MOL1        -0.1477
      21    H14     19.070377   20.858052   25.213616 H          1 MOL1         0.0947
      22    H15     18.490247   20.517446   26.830371 H          1 MOL1         0.0947
      23    C8      20.384482   19.579457   26.359173 C.3        1 MOL1         0.0145
      24    H16     20.972452   20.432103   26.709486 H          1 MOL1         0.0921
      25    H17     20.889736   19.151891   25.489200 H          1 MOL1         0.0921
      26    N1      20.380065   18.537632   27.459992 N.4        1 MOL1        -0.5969
      27    H18     19.944522   18.893013   28.317369 H          1 MOL1         0.3603
      28    H19     21.329964   18.239024   27.706680 H          1 MOL1         0.3603
      29    H20     19.861570   17.698617   27.181781 H          1 MOL1         0.3603
@<TRIPOS>BOND
    1     1     2    1
    2     1     3    1
    3     1     4    1
    4     1     5    1
    5     5     6    1
    6     5     7    1
    7     5     8    1
    8     8     9    1
    9     8    10    1
   10     8    11    1
   11    11    12    1
   12    11    13    1
   13    11    14    1
   14    14    15    1
   15    14    16    1
   16    14    17    1
   17    17    18    1
   18    17    19    1
   19    17    20    1
   20    20    21    1
   21    20    22    1
   22    20    23    1
   23    23    24    1
   24    23    25    1
   25    23    26    1
   26    26    27    1
   27    26    28    1
   28    26    29    1
@<TRIPOS>SUBSTRUCTURE
       1 MOL1            1 RESIDUE      1      MOL     
@<SCITEGIC>MOL_PROPERTY
VM2 Rank
SciTegic.value.IntegerValue
144

@<SCITEGIC>MOL_PROPERTY
Conf_Id
SciTegic.value.IntegerValue
2967

@<SCITEGIC>MOL_PROPERTY
Probability
SciTegic.value.DoubleValue
0.15

@<SCITEGIC>MOL_PROPERTY
Sum Probability
SciTegic.value.DoubleValue
92.92

@<SCITEGIC>MOL_PROPERTY
Delta G
SciTegic.value.DoubleValue
2.108

@<SCITEGIC>MOL_PROPERTY
G
SciTegic.value.DoubleValue
60.254

@<SCITEGIC>MOL_PROPERTY
E
SciTegic.value.DoubleValue
22.406

@<SCITEGIC>MOL_PROPERTY
-TS
SciTegic.value.DoubleValue
37.848

@<SCITEGIC>MOL_PROPERTY
U+W
SciTegic.value.DoubleValue
-1.739

@<SCITEGIC>MOL_PROPERTY
U
SciTegic.value.DoubleValue
50.314

@<SCITEGIC>MOL_PROPERTY
W
SciTegic.value.DoubleValue
-52.053

@<SCITEGIC>MOL_PROPERTY
W(PB)
SciTegic.value.DoubleValue
-54.516

@<SCITEGIC>MOL_PROPERTY
W(SA)
SciTegic.value.DoubleValue
2.463

@<SCITEGIC>MOL_PROPERTY
Valence
SciTegic.value.DoubleValue
3.941

@<SCITEGIC>MOL_PROPERTY
Coulomb
SciTegic.value.DoubleValue
45.534

@<SCITEGIC>MOL_PROPERTY
VdW
SciTegic.value.DoubleValue
0.839

@<SCITEGIC>MOL_PROPERTY
VdW6
SciTegic.value.DoubleValue
-9.918

@<SCITEGIC>MOL_PROPERTY
VdW12
SciTegic.value.DoubleValue
10.757

@<SCITEGIC>MOL_PROPERTY
Bond
SciTegic.value.DoubleValue
0.274

@<SCITEGIC>MOL_PROPERTY
Angle
SciTegic.value.DoubleValue
1.197

@<SCITEGIC>MOL_PROPERTY
Pdih
SciTegic.value.DoubleValue
2.470

@<SCITEGIC>MOL_PROPERTY
Idih
SciTegic.value.DoubleValue
0.000

@<SCITEGIC>MOL_PROPERTY
Tether
SciTegic.value.DoubleValue
0.000

@<TRIPOS>MOLECULE
guest-3_vm2.mol2 : vm2 ligand conformer 145
          29          28           1
SMALL
USER_CHARGES
 
@<TRIPOS>ATOM
       1    C1      20.240041   19.721767   19.730137 C.3        1 MOL1        -0.2427
       2    H1      21.173108   20.163498   20.103614 H          1 MOL1         0.0958
       3    H2      20.466896   18.719786   19.343083 H          1 MOL1         0.0958
       4    H3      19.888662   20.335820   18.890792 H          1 MOL1         0.0958
       5    C2      19.172435   19.657667   20.842757 C.3        1 MOL1        -0.1412
       6    H4      18.241228   19.244162   20.430800 H          1 MOL1         0.0947
       7    H5      18.942608   20.675853   21.186754 H          1 MOL1         0.0947
       8    C3      19.642081   18.797883   22.036875 C.3        1 MOL1        -0.1437
       9    H6      19.868311   17.780427   21.689459 H          1 MOL1         0.0947
      10    H7      20.576959   19.215379   22.433013 H          1 MOL1         0.0947
      11    C4      18.574750   18.736994   23.155506 C.3        1 MOL1        -0.1437
      12    H8      17.628604   18.378863   22.726913 H          1 MOL1         0.0947
      13    H9      18.371994   19.748562   23.531169 H          1 MOL1         0.0947
      14    C5      18.962075   17.802375   24.330310 C.3        1 MOL1        -0.1437
      15    H10     18.130017   17.772129   25.046393 H          1 MOL1         0.0947
      16    H11     19.061383   16.776433   23.949929 H          1 MOL1         0.0947
      17    C6      20.269167   18.183867   25.076157 C.3        1 MOL1        -0.1437
      18    H12     21.126944   18.052308   24.403429 H          1 MOL1         0.0947
      19    H13     20.429522   17.467978   25.893357 H          1 MOL1         0.0947
      20    C7      20.294155   19.625363   25.648191 C.3        1 MOL1        -0.1477
      21    H14     21.237464   19.783969   26.187288 H          1 MOL1         0.0947
      22    H15     20.294397   20.349449   24.823429 H          1 MOL1         0.0947
      23    C8      19.115182   19.943641   26.589170 C.3        1 MOL1         0.0145
      24    H16     18.171073   19.817442   26.052896 H          1 MOL1         0.0921
      25    H17     19.183315   20.983798   26.919090 H          1 MOL1         0.0921
      26    N1      19.074114   19.068441   27.825896 N.4        1 MOL1        -0.5969
      27    H18     18.281784   19.303483   28.433589 H          1 MOL1         0.3603
      28    H19     19.924848   19.167215   28.389423 H          1 MOL1         0.3603
      29    H20     18.985062   18.077031   27.582337 H          1 MOL1         0.3603
@<TRIPOS>BOND
    1     1     2    1
    2     1     3    1
    3     1     4    1
    4     1     5    1
    5     5     6    1
    6     5     7    1
    7     5     8    1
    8     8     9    1
    9     8    10    1
   10     8    11    1
   11    11    12    1
   12    11    13    1
   13    11    14    1
   14    14    15    1
   15    14    16    1
   16    14    17    1
   17    17    18    1
   18    17    19    1
   19    17    20    1
   20    20    21    1
   21    20    22    1
   22    20    23    1
   23    23    24    1
   24    23    25    1
   25    23    26    1
   26    26    27    1
   27    26    28    1
   28    26    29    1
@<TRIPOS>SUBSTRUCTURE
       1 MOL1            1 RESIDUE      1      MOL     
@<SCITEGIC>MOL_PROPERTY
VM2 Rank
SciTegic.value.IntegerValue
145

@<SCITEGIC>MOL_PROPERTY
Conf_Id
SciTegic.value.IntegerValue
593

@<SCITEGIC>MOL_PROPERTY
Probability
SciTegic.value.DoubleValue
0.15

@<SCITEGIC>MOL_PROPERTY
Sum Probability
SciTegic.value.DoubleValue
93.07

@<SCITEGIC>MOL_PROPERTY
Delta G
SciTegic.value.DoubleValue
2.114

@<SCITEGIC>MOL_PROPERTY
G
SciTegic.value.DoubleValue
60.260

@<SCITEGIC>MOL_PROPERTY
E
SciTegic.value.DoubleValue
22.188

@<SCITEGIC>MOL_PROPERTY
-TS
SciTegic.value.DoubleValue
38.071

@<SCITEGIC>MOL_PROPERTY
U+W
SciTegic.value.DoubleValue
-1.956

@<SCITEGIC>MOL_PROPERTY
U
SciTegic.value.DoubleValue
50.057

@<SCITEGIC>MOL_PROPERTY
W
SciTegic.value.DoubleValue
-52.013

@<SCITEGIC>MOL_PROPERTY
W(PB)
SciTegic.value.DoubleValue
-54.451

@<SCITEGIC>MOL_PROPERTY
W(SA)
SciTegic.value.DoubleValue
2.439

@<SCITEGIC>MOL_PROPERTY
Valence
SciTegic.value.DoubleValue
3.892

@<SCITEGIC>MOL_PROPERTY
Coulomb
SciTegic.value.DoubleValue
45.518

@<SCITEGIC>MOL_PROPERTY
VdW
SciTegic.value.DoubleValue
0.646

@<SCITEGIC>MOL_PROPERTY
VdW6
SciTegic.value.DoubleValue
-10.245

@<SCITEGIC>MOL_PROPERTY
VdW12
SciTegic.value.DoubleValue
10.892

@<SCITEGIC>MOL_PROPERTY
Bond
SciTegic.value.DoubleValue
0.281

@<SCITEGIC>MOL_PROPERTY
Angle
SciTegic.value.DoubleValue
1.301

@<SCITEGIC>MOL_PROPERTY
Pdih
SciTegic.value.DoubleValue
2.310

@<SCITEGIC>MOL_PROPERTY
Idih
SciTegic.value.DoubleValue
0.000

@<SCITEGIC>MOL_PROPERTY
Tether
SciTegic.value.DoubleValue
0.000

@<TRIPOS>MOLECULE
guest-3_vm2.mol2 : vm2 ligand conformer 146
          29          28           1
SMALL
USER_CHARGES
 
@<TRIPOS>ATOM
       1    C1      20.102912   18.262942   20.279004 C.3        1 MOL1        -0.2427
       2    H1      19.869041   17.483703   21.015096 H          1 MOL1         0.0958
       3    H2      19.276258   18.315749   19.558730 H          1 MOL1         0.0958
       4    H3      21.002494   17.945515   19.736033 H          1 MOL1         0.0958
       5    C2      20.335256   19.631231   20.958545 C.3        1 MOL1        -0.1412
       6    H4      20.680971   20.348181   20.200864 H          1 MOL1         0.0947
       7    H5      21.151859   19.548851   21.688193 H          1 MOL1         0.0947
       8    C3      19.065805   20.205544   21.637559 C.3        1 MOL1        -0.1437
       9    H6      19.307976   21.187373   22.067040 H          1 MOL1         0.0947
      10    H7      18.305763   20.393924   20.866891 H          1 MOL1         0.0947
      11    C4      18.443020   19.312557   22.741596 C.3        1 MOL1        -0.1437
      12    H8      18.091208   18.368478   22.304991 H          1 MOL1         0.0947
      13    H9      17.547928   19.817740   23.129758 H          1 MOL1         0.0947
      14    C5      19.405991   19.019988   23.916776 C.3        1 MOL1        -0.1437
      15    H10     20.269844   18.446101   23.556492 H          1 MOL1         0.0947
      16    H11     19.792952   19.969237   24.310163 H          1 MOL1         0.0947
      17    C6      18.706256   18.224629   25.044597 C.3        1 MOL1        -0.1437
      18    H12     18.280296   17.303310   24.623836 H          1 MOL1         0.0947
      19    H13     17.857836   18.801944   25.435643 H          1 MOL1         0.0947
      20    C7      19.661370   17.841539   26.202687 C.3        1 MOL1        -0.1477
      21    H14     19.111880   17.247220   26.944735 H          1 MOL1         0.0947
      22    H15     20.455795   17.189566   25.815812 H          1 MOL1         0.0947
      23    C8      20.312047   19.050048   26.905663 C.3        1 MOL1         0.0145
      24    H16     20.901319   19.623724   26.185733 H          1 MOL1         0.0921
      25    H17     20.986231   18.694495   27.689582 H          1 MOL1         0.0921
      26    N1      19.311343   19.989523   27.548573 N.4        1 MOL1        -0.5969
      27    H18     18.744500   19.513327   28.257854 H          1 MOL1         0.3603
      28    H19     18.665168   20.381883   26.856583 H          1 MOL1         0.3603
      29    H20     19.773241   20.778999   28.013105 H          1 MOL1         0.3603
@<TRIPOS>BOND
    1     1     2    1
    2     1     3    1
    3     1     4    1
    4     1     5    1
    5     5     6    1
    6     5     7    1
    7     5     8    1
    8     8     9    1
    9     8    10    1
   10     8    11    1
   11    11    12    1
   12    11    13    1
   13    11    14    1
   14    14    15    1
   15    14    16    1
   16    14    17    1
   17    17    18    1
   18    17    19    1
   19    17    20    1
   20    20    21    1
   21    20    22    1
   22    20    23    1
   23    23    24    1
   24    23    25    1
   25    23    26    1
   26    26    27    1
   27    26    28    1
   28    26    29    1
@<TRIPOS>SUBSTRUCTURE
       1 MOL1            1 RESIDUE      1      MOL     
@<SCITEGIC>MOL_PROPERTY
VM2 Rank
SciTegic.value.IntegerValue
146

@<SCITEGIC>MOL_PROPERTY
Conf_Id
SciTegic.value.IntegerValue
2445

@<SCITEGIC>MOL_PROPERTY
Probability
SciTegic.value.DoubleValue
0.15

@<SCITEGIC>MOL_PROPERTY
Sum Probability
SciTegic.value.DoubleValue
93.22

@<SCITEGIC>MOL_PROPERTY
Delta G
SciTegic.value.DoubleValue
2.121

@<SCITEGIC>MOL_PROPERTY
G
SciTegic.value.DoubleValue
60.268

@<SCITEGIC>MOL_PROPERTY
E
SciTegic.value.DoubleValue
22.361

@<SCITEGIC>MOL_PROPERTY
-TS
SciTegic.value.DoubleValue
37.907

@<SCITEGIC>MOL_PROPERTY
U+W
SciTegic.value.DoubleValue
-1.784

@<SCITEGIC>MOL_PROPERTY
U
SciTegic.value.DoubleValue
50.249

@<SCITEGIC>MOL_PROPERTY
W
SciTegic.value.DoubleValue
-52.032

@<SCITEGIC>MOL_PROPERTY
W(PB)
SciTegic.value.DoubleValue
-54.481

@<SCITEGIC>MOL_PROPERTY
W(SA)
SciTegic.value.DoubleValue
2.449

@<SCITEGIC>MOL_PROPERTY
Valence
SciTegic.value.DoubleValue
3.924

@<SCITEGIC>MOL_PROPERTY
Coulomb
SciTegic.value.DoubleValue
45.456

@<SCITEGIC>MOL_PROPERTY
VdW
SciTegic.value.DoubleValue
0.869

@<SCITEGIC>MOL_PROPERTY
VdW6
SciTegic.value.DoubleValue
-9.872

@<SCITEGIC>MOL_PROPERTY
VdW12
SciTegic.value.DoubleValue
10.741

@<SCITEGIC>MOL_PROPERTY
Bond
SciTegic.value.DoubleValue
0.270

@<SCITEGIC>MOL_PROPERTY
Angle
SciTegic.value.DoubleValue
1.270

@<SCITEGIC>MOL_PROPERTY
Pdih
SciTegic.value.DoubleValue
2.384

@<SCITEGIC>MOL_PROPERTY
Idih
SciTegic.value.DoubleValue
0.000

@<SCITEGIC>MOL_PROPERTY
Tether
SciTegic.value.DoubleValue
0.000

@<TRIPOS>MOLECULE
guest-3_vm2.mol2 : vm2 ligand conformer 147
          29          28           1
SMALL
USER_CHARGES
 
@<TRIPOS>ATOM
       1    C1      19.928973   17.580757   20.561723 C.3        1 MOL1        -0.2427
       2    H1      19.232122   17.104883   21.262694 H          1 MOL1         0.0958
       3    H2      19.770756   17.121928   19.577158 H          1 MOL1         0.0958
       4    H3      20.952764   17.346224   20.880886 H          1 MOL1         0.0958
       5    C2      19.706058   19.108368   20.488235 C.3        1 MOL1        -0.1412
       6    H4      18.666598   19.316776   20.198753 H          1 MOL1         0.0947
       7    H5      20.336607   19.519794   19.687686 H          1 MOL1         0.0947
       8    C3      20.038886   19.843262   21.809081 C.3        1 MOL1        -0.1437
       9    H6      21.084339   19.647321   22.084473 H          1 MOL1         0.0947
      10    H7      19.962703   20.925326   21.634269 H          1 MOL1         0.0947
      11    C4      19.108541   19.453718   22.982614 C.3        1 MOL1        -0.1437
      12    H8      19.226597   18.385814   23.203112 H          1 MOL1         0.0947
      13    H9      18.061574   19.607691   22.687585 H          1 MOL1         0.0947
      14    C5      19.414336   20.281190   24.253901 C.3        1 MOL1        -0.1437
      15    H10     20.449775   20.100609   24.571946 H          1 MOL1         0.0947
      16    H11     19.355056   21.350397   24.007925 H          1 MOL1         0.0947
      17    C6      18.440718   19.996223   25.426574 C.3        1 MOL1        -0.1437
      18    H12     17.422269   20.274461   25.122457 H          1 MOL1         0.0947
      19    H13     18.691959   20.660214   26.264553 H          1 MOL1         0.0947
      20    C7      18.429534   18.526984   25.924468 C.3        1 MOL1        -0.1477
      21    H14     17.751528   18.442736   26.784065 H          1 MOL1         0.0947
      22    H15     18.008715   17.876637   25.147040 H          1 MOL1         0.0947
      23    C8      19.818844   17.990893   26.323623 C.3        1 MOL1         0.0145
      24    H16     20.492788   18.037175   25.464201 H          1 MOL1         0.0921
      25    H17     19.730960   16.945478   26.631548 H          1 MOL1         0.0921
      26    N1      20.458111   18.756604   27.464781 N.4        1 MOL1        -0.5969
      27    H18     20.590223   19.744715   27.227369 H          1 MOL1         0.3603
      28    H19     21.379497   18.377897   27.709646 H          1 MOL1         0.3603
      29    H20     19.883968   18.722670   28.313485 H          1 MOL1         0.3603
@<TRIPOS>BOND
    1     1     2    1
    2     1     3    1
    3     1     4    1
    4     1     5    1
    5     5     6    1
    6     5     7    1
    7     5     8    1
    8     8     9    1
    9     8    10    1
   10     8    11    1
   11    11    12    1
   12    11    13    1
   13    11    14    1
   14    14    15    1
   15    14    16    1
   16    14    17    1
   17    17    18    1
   18    17    19    1
   19    17    20    1
   20    20    21    1
   21    20    22    1
   22    20    23    1
   23    23    24    1
   24    23    25    1
   25    23    26    1
   26    26    27    1
   27    26    28    1
   28    26    29    1
@<TRIPOS>SUBSTRUCTURE
       1 MOL1            1 RESIDUE      1      MOL     
@<SCITEGIC>MOL_PROPERTY
VM2 Rank
SciTegic.value.IntegerValue
147

@<SCITEGIC>MOL_PROPERTY
Conf_Id
SciTegic.value.IntegerValue
311

@<SCITEGIC>MOL_PROPERTY
Probability
SciTegic.value.DoubleValue
0.15

@<SCITEGIC>MOL_PROPERTY
Sum Probability
SciTegic.value.DoubleValue
93.37

@<SCITEGIC>MOL_PROPERTY
Delta G
SciTegic.value.DoubleValue
2.122

@<SCITEGIC>MOL_PROPERTY
G
SciTegic.value.DoubleValue
60.268

@<SCITEGIC>MOL_PROPERTY
E
SciTegic.value.DoubleValue
22.419

@<SCITEGIC>MOL_PROPERTY
-TS
SciTegic.value.DoubleValue
37.849

@<SCITEGIC>MOL_PROPERTY
U+W
SciTegic.value.DoubleValue
-1.725

@<SCITEGIC>MOL_PROPERTY
U
SciTegic.value.DoubleValue
50.314

@<SCITEGIC>MOL_PROPERTY
W
SciTegic.value.DoubleValue
-52.039

@<SCITEGIC>MOL_PROPERTY
W(PB)
SciTegic.value.DoubleValue
-54.487

@<SCITEGIC>MOL_PROPERTY
W(SA)
SciTegic.value.DoubleValue
2.448

@<SCITEGIC>MOL_PROPERTY
Valence
SciTegic.value.DoubleValue
3.941

@<SCITEGIC>MOL_PROPERTY
Coulomb
SciTegic.value.DoubleValue
45.534

@<SCITEGIC>MOL_PROPERTY
VdW
SciTegic.value.DoubleValue
0.839

@<SCITEGIC>MOL_PROPERTY
VdW6
SciTegic.value.DoubleValue
-9.918

@<SCITEGIC>MOL_PROPERTY
VdW12
SciTegic.value.DoubleValue
10.757

@<SCITEGIC>MOL_PROPERTY
Bond
SciTegic.value.DoubleValue
0.274

@<SCITEGIC>MOL_PROPERTY
Angle
SciTegic.value.DoubleValue
1.197

@<SCITEGIC>MOL_PROPERTY
Pdih
SciTegic.value.DoubleValue
2.470

@<SCITEGIC>MOL_PROPERTY
Idih
SciTegic.value.DoubleValue
0.000

@<SCITEGIC>MOL_PROPERTY
Tether
SciTegic.value.DoubleValue
0.000

@<TRIPOS>MOLECULE
guest-3_vm2.mol2 : vm2 ligand conformer 148
          29          28           1
SMALL
USER_CHARGES
 
@<TRIPOS>ATOM
       1    C1      19.299295   20.161068   20.090424 C.3        1 MOL1        -0.2427
       2    H1      18.860949   20.707960   20.934531 H          1 MOL1         0.0958
       3    H2      20.269150   20.616136   19.851183 H          1 MOL1         0.0958
       4    H3      18.638449   20.303199   19.225603 H          1 MOL1         0.0958
       5    C2      19.455564   18.657490   20.411017 C.3        1 MOL1        -0.1412
       6    H4      19.781689   18.134272   19.501340 H          1 MOL1         0.0947
       7    H5      18.477482   18.229396   20.667649 H          1 MOL1         0.0947
       8    C3      20.480251   18.370054   21.538103 C.3        1 MOL1        -0.1437
       9    H6      20.546592   17.283587   21.687369 H          1 MOL1         0.0947
      10    H7      21.475869   18.687688   21.199045 H          1 MOL1         0.0947
      11    C4      20.181906   19.048427   22.900468 C.3        1 MOL1        -0.1437
      12    H8      20.212130   20.140292   22.789524 H          1 MOL1         0.0947
      13    H9      20.997977   18.791308   23.587473 H          1 MOL1         0.0947
      14    C5      18.827966   18.621262   23.522070 C.3        1 MOL1        -0.1437
      15    H10     18.013472   18.881587   22.833910 H          1 MOL1         0.0947
      16    H11     18.799999   17.529006   23.636754 H          1 MOL1         0.0947
      17    C6      18.532641   19.294752   24.884914 C.3        1 MOL1        -0.1437
      18    H12     17.503810   19.045074   25.179612 H          1 MOL1         0.0947
      19    H13     18.563581   20.387212   24.770491 H          1 MOL1         0.0947
      20    C7      19.495053   18.860245   26.015219 C.3        1 MOL1        -0.1477
      21    H14     19.504389   17.764868   26.092300 H          1 MOL1         0.0947
      22    H15     20.519394   19.178035   25.784395 H          1 MOL1         0.0947
      23    C8      19.077715   19.463907   27.367658 C.3        1 MOL1         0.0145
      24    H16     18.064528   19.138842   27.619097 H          1 MOL1         0.0921
      25    H17     19.082616   20.555222   27.300911 H          1 MOL1         0.0921
      26    N1      19.993608   19.060795   28.505127 N.4        1 MOL1        -0.5969
      27    H18     19.697596   19.473158   29.396789 H          1 MOL1         0.3603
      28    H19     20.960048   19.362575   28.342628 H          1 MOL1         0.3603
      29    H20     20.012742   18.044172   28.637912 H          1 MOL1         0.3603
@<TRIPOS>BOND
    1     1     2    1
    2     1     3    1
    3     1     4    1
    4     1     5    1
    5     5     6    1
    6     5     7    1
    7     5     8    1
    8     8     9    1
    9     8    10    1
   10     8    11    1
   11    11    12    1
   12    11    13    1
   13    11    14    1
   14    14    15    1
   15    14    16    1
   16    14    17    1
   17    17    18    1
   18    17    19    1
   19    17    20    1
   20    20    21    1
   21    20    22    1
   22    20    23    1
   23    23    24    1
   24    23    25    1
   25    23    26    1
   26    26    27    1
   27    26    28    1
   28    26    29    1
@<TRIPOS>SUBSTRUCTURE
       1 MOL1            1 RESIDUE      1      MOL     
@<SCITEGIC>MOL_PROPERTY
VM2 Rank
SciTegic.value.IntegerValue
148

@<SCITEGIC>MOL_PROPERTY
Conf_Id
SciTegic.value.IntegerValue
2275

@<SCITEGIC>MOL_PROPERTY
Probability
SciTegic.value.DoubleValue
0.15

@<SCITEGIC>MOL_PROPERTY
Sum Probability
SciTegic.value.DoubleValue
93.52

@<SCITEGIC>MOL_PROPERTY
Delta G
SciTegic.value.DoubleValue
2.139

@<SCITEGIC>MOL_PROPERTY
G
SciTegic.value.DoubleValue
60.286

@<SCITEGIC>MOL_PROPERTY
E
SciTegic.value.DoubleValue
22.615

@<SCITEGIC>MOL_PROPERTY
-TS
SciTegic.value.DoubleValue
37.671

@<SCITEGIC>MOL_PROPERTY
U+W
SciTegic.value.DoubleValue
-1.530

@<SCITEGIC>MOL_PROPERTY
U
SciTegic.value.DoubleValue
49.922

@<SCITEGIC>MOL_PROPERTY
W
SciTegic.value.DoubleValue
-51.451

@<SCITEGIC>MOL_PROPERTY
W(PB)
SciTegic.value.DoubleValue
-53.951

@<SCITEGIC>MOL_PROPERTY
W(SA)
SciTegic.value.DoubleValue
2.500

@<SCITEGIC>MOL_PROPERTY
Valence
SciTegic.value.DoubleValue
4.160

@<SCITEGIC>MOL_PROPERTY
Coulomb
SciTegic.value.DoubleValue
44.771

@<SCITEGIC>MOL_PROPERTY
VdW
SciTegic.value.DoubleValue
0.992

@<SCITEGIC>MOL_PROPERTY
VdW6
SciTegic.value.DoubleValue
-9.113

@<SCITEGIC>MOL_PROPERTY
VdW12
SciTegic.value.DoubleValue
10.105

@<SCITEGIC>MOL_PROPERTY
Bond
SciTegic.value.DoubleValue
0.273

@<SCITEGIC>MOL_PROPERTY
Angle
SciTegic.value.DoubleValue
1.388

@<SCITEGIC>MOL_PROPERTY
Pdih
SciTegic.value.DoubleValue
2.499

@<SCITEGIC>MOL_PROPERTY
Idih
SciTegic.value.DoubleValue
0.000

@<SCITEGIC>MOL_PROPERTY
Tether
SciTegic.value.DoubleValue
0.000

@<TRIPOS>MOLECULE
guest-3_vm2.mol2 : vm2 ligand conformer 149
          29          28           1
SMALL
USER_CHARGES
 
@<TRIPOS>ATOM
       1    C1      20.518573   19.427944   20.305237 C.3        1 MOL1        -0.2427
       2    H1      19.855217   19.938452   19.595109 H          1 MOL1         0.0958
       3    H2      20.819797   20.149502   21.074884 H          1 MOL1         0.0958
       4    H3      21.423760   19.126057   19.762716 H          1 MOL1         0.0958
       5    C2      19.823462   18.195599   20.926621 C.3        1 MOL1        -0.1412
       6    H4      20.497602   17.713984   21.647452 H          1 MOL1         0.0947
       7    H5      19.648584   17.452321   20.136324 H          1 MOL1         0.0947
       8    C3      18.467405   18.527292   21.600038 C.3        1 MOL1        -0.1437
       9    H6      17.770609   18.892757   20.833232 H          1 MOL1         0.0947
      10    H7      18.027896   17.597593   21.986791 H          1 MOL1         0.0947
      11    C4      18.534101   19.568266   22.747256 C.3        1 MOL1        -0.1437
      12    H8      17.515850   19.728142   23.127617 H          1 MOL1         0.0947
      13    H9      18.864865   20.538401   22.353409 H          1 MOL1         0.0947
      14    C5      19.448267   19.139093   23.919465 C.3        1 MOL1        -0.1437
      15    H10     19.142156   18.144391   24.269371 H          1 MOL1         0.0947
      16    H11     20.485387   19.051133   23.570129 H          1 MOL1         0.0947
      17    C6      19.393166   20.152192   25.087714 C.3        1 MOL1        -0.1437
      18    H12     18.365424   20.226367   25.467547 H          1 MOL1         0.0947
      19    H13     19.651607   21.151068   24.709869 H          1 MOL1         0.0947
      20    C7      20.358925   19.798856   26.246435 C.3        1 MOL1        -0.1477
      21    H14     21.391988   19.816583   25.874525 H          1 MOL1         0.0947
      22    H15     20.298422   20.576618   27.019232 H          1 MOL1         0.0947
      23    C8      20.089177   18.424399   26.891537 C.3        1 MOL1         0.0145
      24    H16     20.825147   18.242234   27.679341 H          1 MOL1         0.0921
      25    H17     20.193292   17.636591   26.141095 H          1 MOL1         0.0921
      26    N1      18.710924   18.304360   27.510698 N.4        1 MOL1        -0.5969
      27    H18     17.972088   18.436688   26.812880 H          1 MOL1         0.3603
      28    H19     18.562718   19.002971   28.246314 H          1 MOL1         0.3603
      29    H20     18.563171   17.382974   27.936880 H          1 MOL1         0.3603
@<TRIPOS>BOND
    1     1     2    1
    2     1     3    1
    3     1     4    1
    4     1     5    1
    5     5     6    1
    6     5     7    1
    7     5     8    1
    8     8     9    1
    9     8    10    1
   10     8    11    1
   11    11    12    1
   12    11    13    1
   13    11    14    1
   14    14    15    1
   15    14    16    1
   16    14    17    1
   17    17    18    1
   18    17    19    1
   19    17    20    1
   20    20    21    1
   21    20    22    1
   22    20    23    1
   23    23    24    1
   24    23    25    1
   25    23    26    1
   26    26    27    1
   27    26    28    1
   28    26    29    1
@<TRIPOS>SUBSTRUCTURE
       1 MOL1            1 RESIDUE      1      MOL     
@<SCITEGIC>MOL_PROPERTY
VM2 Rank
SciTegic.value.IntegerValue
149

@<SCITEGIC>MOL_PROPERTY
Conf_Id
SciTegic.value.IntegerValue
2443

@<SCITEGIC>MOL_PROPERTY
Probability
SciTegic.value.DoubleValue
0.14

@<SCITEGIC>MOL_PROPERTY
Sum Probability
SciTegic.value.DoubleValue
93.66

@<SCITEGIC>MOL_PROPERTY
Delta G
SciTegic.value.DoubleValue
2.146

@<SCITEGIC>MOL_PROPERTY
G
SciTegic.value.DoubleValue
60.292

@<SCITEGIC>MOL_PROPERTY
E
SciTegic.value.DoubleValue
22.385

@<SCITEGIC>MOL_PROPERTY
-TS
SciTegic.value.DoubleValue
37.907

@<SCITEGIC>MOL_PROPERTY
U+W
SciTegic.value.DoubleValue
-1.759

@<SCITEGIC>MOL_PROPERTY
U
SciTegic.value.DoubleValue
50.249

@<SCITEGIC>MOL_PROPERTY
W
SciTegic.value.DoubleValue
-52.008

@<SCITEGIC>MOL_PROPERTY
W(PB)
SciTegic.value.DoubleValue
-54.457

@<SCITEGIC>MOL_PROPERTY
W(SA)
SciTegic.value.DoubleValue
2.449

@<SCITEGIC>MOL_PROPERTY
Valence
SciTegic.value.DoubleValue
3.924

@<SCITEGIC>MOL_PROPERTY
Coulomb
SciTegic.value.DoubleValue
45.456

@<SCITEGIC>MOL_PROPERTY
VdW
SciTegic.value.DoubleValue
0.869

@<SCITEGIC>MOL_PROPERTY
VdW6
SciTegic.value.DoubleValue
-9.872

@<SCITEGIC>MOL_PROPERTY
VdW12
SciTegic.value.DoubleValue
10.741

@<SCITEGIC>MOL_PROPERTY
Bond
SciTegic.value.DoubleValue
0.270

@<SCITEGIC>MOL_PROPERTY
Angle
SciTegic.value.DoubleValue
1.270

@<SCITEGIC>MOL_PROPERTY
Pdih
SciTegic.value.DoubleValue
2.384

@<SCITEGIC>MOL_PROPERTY
Idih
SciTegic.value.DoubleValue
0.000

@<SCITEGIC>MOL_PROPERTY
Tether
SciTegic.value.DoubleValue
0.000

@<TRIPOS>MOLECULE
guest-3_vm2.mol2 : vm2 ligand conformer 150
          29          28           1
SMALL
USER_CHARGES
 
@<TRIPOS>ATOM
       1    C1      19.533071   18.243171   20.148197 C.3        1 MOL1        -0.2427
       2    H1      19.071192   17.366059   19.676875 H          1 MOL1         0.0958
       3    H2      19.738733   18.979266   19.360297 H          1 MOL1         0.0958
       4    H3      20.490449   17.922574   20.577455 H          1 MOL1         0.0958
       5    C2      18.598203   18.833011   21.228005 C.3        1 MOL1        -0.1412
       6    H4      18.417064   18.084282   22.010711 H          1 MOL1         0.0947
       7    H5      17.618497   19.037685   20.774342 H          1 MOL1         0.0947
       8    C3      19.135689   20.144091   21.855525 C.3        1 MOL1        -0.1437
       9    H6      19.212188   20.907323   21.069011 H          1 MOL1         0.0947
      10    H7      18.393499   20.529371   22.567084 H          1 MOL1         0.0947
      11    C4      20.513032   20.022244   22.561547 C.3        1 MOL1        -0.1437
      12    H8      20.776810   21.000287   22.986731 H          1 MOL1         0.0947
      13    H9      21.286733   19.809358   21.811941 H          1 MOL1         0.0947
      14    C5      20.591150   18.951706   23.680261 C.3        1 MOL1        -0.1437
      15    H10     20.433242   17.952386   23.253595 H          1 MOL1         0.0947
      16    H11     21.612391   18.949282   24.085454 H          1 MOL1         0.0947
      17    C6      19.591352   19.192866   24.836252 C.3        1 MOL1        -0.1437
      18    H12     18.561991   19.130285   24.459282 H          1 MOL1         0.0947
      19    H13     19.728977   20.209950   25.226495 H          1 MOL1         0.0947
      20    C7      19.774956   18.162214   25.974997 C.3        1 MOL1        -0.1477
      21    H14     19.676167   17.147781   25.566188 H          1 MOL1         0.0947
      22    H15     20.789028   18.235761   26.389959 H          1 MOL1         0.0947
      23    C8      18.742896   18.335156   27.105817 C.3        1 MOL1         0.0145
      24    H16     18.868317   17.532456   27.837579 H          1 MOL1         0.0921
      25    H17     17.731889   18.267716   26.695091 H          1 MOL1         0.0921
      26    N1      18.863652   19.653539   27.844398 N.4        1 MOL1        -0.5969
      27    H18     19.787982   19.765554   28.273758 H          1 MOL1         0.3603
      28    H19     18.171320   19.733043   28.597344 H          1 MOL1         0.3603
      29    H20     18.720857   20.452718   27.218990 H          1 MOL1         0.3603
@<TRIPOS>BOND
    1     1     2    1
    2     1     3    1
    3     1     4    1
    4     1     5    1
    5     5     6    1
    6     5     7    1
    7     5     8    1
    8     8     9    1
    9     8    10    1
   10     8    11    1
   11    11    12    1
   12    11    13    1
   13    11    14    1
   14    14    15    1
   15    14    16    1
   16    14    17    1
   17    17    18    1
   18    17    19    1
   19    17    20    1
   20    20    21    1
   21    20    22    1
   22    20    23    1
   23    23    24    1
   24    23    25    1
   25    23    26    1
   26    26    27    1
   27    26    28    1
   28    26    29    1
@<TRIPOS>SUBSTRUCTURE
       1 MOL1            1 RESIDUE      1      MOL     
@<SCITEGIC>MOL_PROPERTY
VM2 Rank
SciTegic.value.IntegerValue
150

@<SCITEGIC>MOL_PROPERTY
Conf_Id
SciTegic.value.IntegerValue
607

@<SCITEGIC>MOL_PROPERTY
Probability
SciTegic.value.DoubleValue
0.14

@<SCITEGIC>MOL_PROPERTY
Sum Probability
SciTegic.value.DoubleValue
93.80

@<SCITEGIC>MOL_PROPERTY
Delta G
SciTegic.value.DoubleValue
2.158

@<SCITEGIC>MOL_PROPERTY
G
SciTegic.value.DoubleValue
60.304

@<SCITEGIC>MOL_PROPERTY
E
SciTegic.value.DoubleValue
22.241

@<SCITEGIC>MOL_PROPERTY
-TS
SciTegic.value.DoubleValue
38.063

@<SCITEGIC>MOL_PROPERTY
U+W
SciTegic.value.DoubleValue
-1.903

@<SCITEGIC>MOL_PROPERTY
U
SciTegic.value.DoubleValue
50.133

@<SCITEGIC>MOL_PROPERTY
W
SciTegic.value.DoubleValue
-52.037

@<SCITEGIC>MOL_PROPERTY
W(PB)
SciTegic.value.DoubleValue
-54.489

@<SCITEGIC>MOL_PROPERTY
W(SA)
SciTegic.value.DoubleValue
2.453

@<SCITEGIC>MOL_PROPERTY
Valence
SciTegic.value.DoubleValue
4.088

@<SCITEGIC>MOL_PROPERTY
Coulomb
SciTegic.value.DoubleValue
45.212

@<SCITEGIC>MOL_PROPERTY
VdW
SciTegic.value.DoubleValue
0.833

@<SCITEGIC>MOL_PROPERTY
VdW6
SciTegic.value.DoubleValue
-10.050

@<SCITEGIC>MOL_PROPERTY
VdW12
SciTegic.value.DoubleValue
10.884

@<SCITEGIC>MOL_PROPERTY
Bond
SciTegic.value.DoubleValue
0.287

@<SCITEGIC>MOL_PROPERTY
Angle
SciTegic.value.DoubleValue
1.409

@<SCITEGIC>MOL_PROPERTY
Pdih
SciTegic.value.DoubleValue
2.391

@<SCITEGIC>MOL_PROPERTY
Idih
SciTegic.value.DoubleValue
0.000

@<SCITEGIC>MOL_PROPERTY
Tether
SciTegic.value.DoubleValue
0.000

@<TRIPOS>MOLECULE
guest-3_vm2.mol2 : vm2 ligand conformer 151
          29          28           1
SMALL
USER_CHARGES
 
@<TRIPOS>ATOM
       1    C1      20.630043   18.687977   20.389570 C.3        1 MOL1        -0.2427
       2    H1      21.010030   19.655596   20.740204 H          1 MOL1         0.0958
       3    H2      21.495629   18.074682   20.107739 H          1 MOL1         0.0958
       4    H3      20.031492   18.860636   19.485775 H          1 MOL1         0.0958
       5    C2      19.795938   17.978971   21.480184 C.3        1 MOL1        -0.1412
       6    H4      20.410767   17.828151   22.377537 H          1 MOL1         0.0947
       7    H5      19.530042   16.973775   21.124649 H          1 MOL1         0.0947
       8    C3      18.493084   18.734887   21.844563 C.3        1 MOL1        -0.1437
       9    H6      17.851805   18.784088   20.953877 H          1 MOL1         0.0947
      10    H7      17.930490   18.143035   22.578543 H          1 MOL1         0.0947
      11    C4      18.694960   20.175119   22.388141 C.3        1 MOL1        -0.1437
      12    H8      17.711519   20.597250   22.636314 H          1 MOL1         0.0947
      13    H9      19.094383   20.811555   21.587348 H          1 MOL1         0.0947
      14    C5      19.618062   20.292133   23.628295 C.3        1 MOL1        -0.1437
      15    H10     20.635623   19.970961   23.369355 H          1 MOL1         0.0947
      16    H11     19.696590   21.353522   23.900999 H          1 MOL1         0.0947
      17    C6      19.111762   19.492902   24.852658 C.3        1 MOL1        -0.1437
      18    H12     19.086537   18.423398   24.609352 H          1 MOL1         0.0947
      19    H13     18.080981   19.793557   25.085926 H          1 MOL1         0.0947
      20    C7      20.007986   19.718555   26.093104 C.3        1 MOL1        -0.1477
      21    H14     21.035582   19.396221   25.878351 H          1 MOL1         0.0947
      22    H15     20.056538   20.792630   26.316517 H          1 MOL1         0.0947
      23    C8      19.488934   18.983945   27.344063 C.3        1 MOL1         0.0145
      24    H16     18.462831   19.296710   27.555424 H          1 MOL1         0.0921
      25    H17     20.110298   19.248523   28.203966 H          1 MOL1         0.0921
      26    N1      19.503230   17.473510   27.214421 N.4        1 MOL1        -0.5969
      27    H18     18.907460   17.153481   26.444515 H          1 MOL1         0.3603
      28    H19     19.164425   17.015250   28.067544 H          1 MOL1         0.3603
      29    H20     20.447663   17.116028   27.036881 H          1 MOL1         0.3603
@<TRIPOS>BOND
    1     1     2    1
    2     1     3    1
    3     1     4    1
    4     1     5    1
    5     5     6    1
    6     5     7    1
    7     5     8    1
    8     8     9    1
    9     8    10    1
   10     8    11    1
   11    11    12    1
   12    11    13    1
   13    11    14    1
   14    14    15    1
   15    14    16    1
   16    14    17    1
   17    17    18    1
   18    17    19    1
   19    17    20    1
   20    20    21    1
   21    20    22    1
   22    20    23    1
   23    23    24    1
   24    23    25    1
   25    23    26    1
   26    26    27    1
   27    26    28    1
   28    26    29    1
@<TRIPOS>SUBSTRUCTURE
       1 MOL1            1 RESIDUE      1      MOL     
@<SCITEGIC>MOL_PROPERTY
VM2 Rank
SciTegic.value.IntegerValue
151

@<SCITEGIC>MOL_PROPERTY
Conf_Id
SciTegic.value.IntegerValue
960

@<SCITEGIC>MOL_PROPERTY
Probability
SciTegic.value.DoubleValue
0.14

@<SCITEGIC>MOL_PROPERTY
Sum Probability
SciTegic.value.DoubleValue
93.94

@<SCITEGIC>MOL_PROPERTY
Delta G
SciTegic.value.DoubleValue
2.169

@<SCITEGIC>MOL_PROPERTY
G
SciTegic.value.DoubleValue
60.316

@<SCITEGIC>MOL_PROPERTY
E
SciTegic.value.DoubleValue
22.250

@<SCITEGIC>MOL_PROPERTY
-TS
SciTegic.value.DoubleValue
38.066

@<SCITEGIC>MOL_PROPERTY
U+W
SciTegic.value.DoubleValue
-1.895

@<SCITEGIC>MOL_PROPERTY
U
SciTegic.value.DoubleValue
50.557

@<SCITEGIC>MOL_PROPERTY
W
SciTegic.value.DoubleValue
-52.451

@<SCITEGIC>MOL_PROPERTY
W(PB)
SciTegic.value.DoubleValue
-54.892

@<SCITEGIC>MOL_PROPERTY
W(SA)
SciTegic.value.DoubleValue
2.440

@<SCITEGIC>MOL_PROPERTY
Valence
SciTegic.value.DoubleValue
4.083

@<SCITEGIC>MOL_PROPERTY
Coulomb
SciTegic.value.DoubleValue
45.658

@<SCITEGIC>MOL_PROPERTY
VdW
SciTegic.value.DoubleValue
0.816

@<SCITEGIC>MOL_PROPERTY
VdW6
SciTegic.value.DoubleValue
-10.084

@<SCITEGIC>MOL_PROPERTY
VdW12
SciTegic.value.DoubleValue
10.900

@<SCITEGIC>MOL_PROPERTY
Bond
SciTegic.value.DoubleValue
0.289

@<SCITEGIC>MOL_PROPERTY
Angle
SciTegic.value.DoubleValue
1.408

@<SCITEGIC>MOL_PROPERTY
Pdih
SciTegic.value.DoubleValue
2.386

@<SCITEGIC>MOL_PROPERTY
Idih
SciTegic.value.DoubleValue
0.000

@<SCITEGIC>MOL_PROPERTY
Tether
SciTegic.value.DoubleValue
0.000

@<TRIPOS>MOLECULE
guest-3_vm2.mol2 : vm2 ligand conformer 152
          29          28           1
SMALL
USER_CHARGES
 
@<TRIPOS>ATOM
       1    C1      21.126633   19.286029   20.800956 C.3        1 MOL1        -0.2427
       2    H1      21.916554   18.736890   20.272471 H          1 MOL1         0.0958
       3    H2      21.087408   20.301486   20.385938 H          1 MOL1         0.0958
       4    H3      21.421653   19.356019   21.855378 H          1 MOL1         0.0958
       5    C2      19.767725   18.567871   20.640344 C.3        1 MOL1        -0.1412
       6    H4      19.825143   17.563686   21.081267 H          1 MOL1         0.0947
       7    H5      19.572572   18.415283   19.569718 H          1 MOL1         0.0947
       8    C3      18.579379   19.353509   21.251117 C.3        1 MOL1        -0.1437
       9    H6      18.467974   20.304596   20.712506 H          1 MOL1         0.0947
      10    H7      17.652485   18.793267   21.066488 H          1 MOL1         0.0947
      11    C4      18.694860   19.651518   22.768218 C.3        1 MOL1        -0.1437
      12    H8      17.806658   20.219025   23.077928 H          1 MOL1         0.0947
      13    H9      19.553815   20.310239   22.946333 H          1 MOL1         0.0947
      14    C5      18.807679   18.374691   23.638861 C.3        1 MOL1        -0.1437
      15    H10     18.001299   17.681808   23.361861 H          1 MOL1         0.0947
      16    H11     19.750822   17.854809   23.424661 H          1 MOL1         0.0947
      17    C6      18.715565   18.653251   25.159131 C.3        1 MOL1        -0.1437
      18    H12     18.678023   17.688256   25.681523 H          1 MOL1         0.0947
      19    H13     17.768348   19.162996   25.383433 H          1 MOL1         0.0947
      20    C7      19.900332   19.488812   25.705583 C.3        1 MOL1        -0.1477
      21    H14     20.851707   18.997584   25.461949 H          1 MOL1         0.0947
      22    H15     19.919124   20.470871   25.217047 H          1 MOL1         0.0947
      23    C8      19.814208   19.716826   27.227037 C.3        1 MOL1         0.0145
      24    H16     18.859678   20.188713   27.475193 H          1 MOL1         0.0921
      25    H17     20.618262   20.389101   27.538599 H          1 MOL1         0.0921
      26    N1      19.937619   18.445493   28.043753 N.4        1 MOL1        -0.5969
      27    H18     20.827417   17.966610   27.869991 H          1 MOL1         0.3603
      28    H19     19.188175   17.781061   27.826897 H          1 MOL1         0.3603
      29    H20     19.890015   18.634034   29.051106 H          1 MOL1         0.3603
@<TRIPOS>BOND
    1     1     2    1
    2     1     3    1
    3     1     4    1
    4     1     5    1
    5     5     6    1
    6     5     7    1
    7     5     8    1
    8     8     9    1
    9     8    10    1
   10     8    11    1
   11    11    12    1
   12    11    13    1
   13    11    14    1
   14    14    15    1
   15    14    16    1
   16    14    17    1
   17    17    18    1
   18    17    19    1
   19    17    20    1
   20    20    21    1
   21    20    22    1
   22    20    23    1
   23    23    24    1
   24    23    25    1
   25    23    26    1
   26    26    27    1
   27    26    28    1
   28    26    29    1
@<TRIPOS>SUBSTRUCTURE
       1 MOL1            1 RESIDUE      1      MOL     
@<SCITEGIC>MOL_PROPERTY
VM2 Rank
SciTegic.value.IntegerValue
152

@<SCITEGIC>MOL_PROPERTY
Conf_Id
SciTegic.value.IntegerValue
1370

@<SCITEGIC>MOL_PROPERTY
Probability
SciTegic.value.DoubleValue
0.14

@<SCITEGIC>MOL_PROPERTY
Sum Probability
SciTegic.value.DoubleValue
94.08

@<SCITEGIC>MOL_PROPERTY
Delta G
SciTegic.value.DoubleValue
2.184

@<SCITEGIC>MOL_PROPERTY
G
SciTegic.value.DoubleValue
60.331

@<SCITEGIC>MOL_PROPERTY
E
SciTegic.value.DoubleValue
22.508

@<SCITEGIC>MOL_PROPERTY
-TS
SciTegic.value.DoubleValue
37.822

@<SCITEGIC>MOL_PROPERTY
U+W
SciTegic.value.DoubleValue
-1.636

@<SCITEGIC>MOL_PROPERTY
U
SciTegic.value.DoubleValue
50.199

@<SCITEGIC>MOL_PROPERTY
W
SciTegic.value.DoubleValue
-51.835

@<SCITEGIC>MOL_PROPERTY
W(PB)
SciTegic.value.DoubleValue
-54.265

@<SCITEGIC>MOL_PROPERTY
W(SA)
SciTegic.value.DoubleValue
2.430

@<SCITEGIC>MOL_PROPERTY
Valence
SciTegic.value.DoubleValue
4.164

@<SCITEGIC>MOL_PROPERTY
Coulomb
SciTegic.value.DoubleValue
45.026

@<SCITEGIC>MOL_PROPERTY
VdW
SciTegic.value.DoubleValue
1.009

@<SCITEGIC>MOL_PROPERTY
VdW6
SciTegic.value.DoubleValue
-9.773

@<SCITEGIC>MOL_PROPERTY
VdW12
SciTegic.value.DoubleValue
10.783

@<SCITEGIC>MOL_PROPERTY
Bond
SciTegic.value.DoubleValue
0.289

@<SCITEGIC>MOL_PROPERTY
Angle
SciTegic.value.DoubleValue
1.298

@<SCITEGIC>MOL_PROPERTY
Pdih
SciTegic.value.DoubleValue
2.577

@<SCITEGIC>MOL_PROPERTY
Idih
SciTegic.value.DoubleValue
0.000

@<SCITEGIC>MOL_PROPERTY
Tether
SciTegic.value.DoubleValue
0.000

@<TRIPOS>MOLECULE
guest-3_vm2.mol2 : vm2 ligand conformer 153
          29          28           1
SMALL
USER_CHARGES
 
@<TRIPOS>ATOM
       1    C1      20.657365   17.969075   20.771441 C.3        1 MOL1        -0.2427
       2    H1      19.991027   17.224449   20.317064 H          1 MOL1         0.0958
       3    H2      21.623945   17.915771   20.254039 H          1 MOL1         0.0958
       4    H3      20.826817   17.686611   21.817980 H          1 MOL1         0.0958
       5    C2      20.060646   19.390128   20.658679 C.3        1 MOL1        -0.1412
       6    H4      20.020988   19.674033   19.597814 H          1 MOL1         0.0947
       7    H5      20.733598   20.113505   21.138219 H          1 MOL1         0.0947
       8    C3      18.634735   19.508959   21.254577 C.3        1 MOL1        -0.1437
       9    H6      18.273270   20.535698   21.105449 H          1 MOL1         0.0947
      10    H7      17.954889   18.864676   20.680305 H          1 MOL1         0.0947
      11    C4      18.514459   19.145147   22.756882 C.3        1 MOL1        -0.1437
      12    H8      18.761217   18.085414   22.896575 H          1 MOL1         0.0947
      13    H9      17.463201   19.254942   23.056364 H          1 MOL1         0.0947
      14    C5      19.396492   20.027552   23.675801 C.3        1 MOL1        -0.1437
      15    H10     20.458880   19.842444   23.469051 H          1 MOL1         0.0947
      16    H11     19.213398   21.084420   23.437956 H          1 MOL1         0.0947
      17    C6      19.127628   19.809819   25.184977 C.3        1 MOL1        -0.1437
      18    H12     18.068293   20.004718   25.402221 H          1 MOL1         0.0947
      19    H13     19.700791   20.559870   25.745713 H          1 MOL1         0.0947
      20    C7      19.510282   18.392820   25.681098 C.3        1 MOL1        -0.1477
      21    H14     18.911495   17.640032   25.153630 H          1 MOL1         0.0947
      22    H15     20.561478   18.181821   25.443938 H          1 MOL1         0.0947
      23    C8      19.277688   18.210303   27.193322 C.3        1 MOL1         0.0145
      24    H16     19.471774   17.169544   27.466601 H          1 MOL1         0.0921
      25    H17     18.236196   18.438086   27.435801 H          1 MOL1         0.0921
      26    N1      20.164704   19.084197   28.058223 N.4        1 MOL1        -0.5969
      27    H18     19.994188   18.928378   29.057832 H          1 MOL1         0.3603
      28    H19     20.006703   20.080627   27.878426 H          1 MOL1         0.3603
      29    H20     21.159376   18.899703   27.891338 H          1 MOL1         0.3603
@<TRIPOS>BOND
    1     1     2    1
    2     1     3    1
    3     1     4    1
    4     1     5    1
    5     5     6    1
    6     5     7    1
    7     5     8    1
    8     8     9    1
    9     8    10    1
   10     8    11    1
   11    11    12    1
   12    11    13    1
   13    11    14    1
   14    14    15    1
   15    14    16    1
   16    14    17    1
   17    17    18    1
   18    17    19    1
   19    17    20    1
   20    20    21    1
   21    20    22    1
   22    20    23    1
   23    23    24    1
   24    23    25    1
   25    23    26    1
   26    26    27    1
   27    26    28    1
   28    26    29    1
@<TRIPOS>SUBSTRUCTURE
       1 MOL1            1 RESIDUE      1      MOL     
@<SCITEGIC>MOL_PROPERTY
VM2 Rank
SciTegic.value.IntegerValue
153

@<SCITEGIC>MOL_PROPERTY
Conf_Id
SciTegic.value.IntegerValue
696

@<SCITEGIC>MOL_PROPERTY
Probability
SciTegic.value.DoubleValue
0.13

@<SCITEGIC>MOL_PROPERTY
Sum Probability
SciTegic.value.DoubleValue
94.21

@<SCITEGIC>MOL_PROPERTY
Delta G
SciTegic.value.DoubleValue
2.191

@<SCITEGIC>MOL_PROPERTY
G
SciTegic.value.DoubleValue
60.337

@<SCITEGIC>MOL_PROPERTY
E
SciTegic.value.DoubleValue
22.515

@<SCITEGIC>MOL_PROPERTY
-TS
SciTegic.value.DoubleValue
37.823

@<SCITEGIC>MOL_PROPERTY
U+W
SciTegic.value.DoubleValue
-1.630

@<SCITEGIC>MOL_PROPERTY
U
SciTegic.value.DoubleValue
50.198

@<SCITEGIC>MOL_PROPERTY
W
SciTegic.value.DoubleValue
-51.828

@<SCITEGIC>MOL_PROPERTY
W(PB)
SciTegic.value.DoubleValue
-54.256

@<SCITEGIC>MOL_PROPERTY
W(SA)
SciTegic.value.DoubleValue
2.428

@<SCITEGIC>MOL_PROPERTY
Valence
SciTegic.value.DoubleValue
4.164

@<SCITEGIC>MOL_PROPERTY
Coulomb
SciTegic.value.DoubleValue
45.026

@<SCITEGIC>MOL_PROPERTY
VdW
SciTegic.value.DoubleValue
1.009

@<SCITEGIC>MOL_PROPERTY
VdW6
SciTegic.value.DoubleValue
-9.773

@<SCITEGIC>MOL_PROPERTY
VdW12
SciTegic.value.DoubleValue
10.782

@<SCITEGIC>MOL_PROPERTY
Bond
SciTegic.value.DoubleValue
0.289

@<SCITEGIC>MOL_PROPERTY
Angle
SciTegic.value.DoubleValue
1.298

@<SCITEGIC>MOL_PROPERTY
Pdih
SciTegic.value.DoubleValue
2.577

@<SCITEGIC>MOL_PROPERTY
Idih
SciTegic.value.DoubleValue
0.000

@<SCITEGIC>MOL_PROPERTY
Tether
SciTegic.value.DoubleValue
0.000

@<TRIPOS>MOLECULE
guest-3_vm2.mol2 : vm2 ligand conformer 154
          29          28           1
SMALL
USER_CHARGES
 
@<TRIPOS>ATOM
       1    C1      20.856621   19.587914   20.384706 C.3        1 MOL1        -0.2427
       2    H1      21.062703   20.342893   19.615052 H          1 MOL1         0.0958
       3    H2      21.255722   19.966446   21.334013 H          1 MOL1         0.0958
       4    H3      21.407411   18.676590   20.118136 H          1 MOL1         0.0958
       5    C2      19.339168   19.311696   20.479526 C.3        1 MOL1        -0.1412
       6    H4      18.963967   19.052767   19.479624 H          1 MOL1         0.0947
       7    H5      18.812181   20.230925   20.767754 H          1 MOL1         0.0947
       8    C3      18.981297   18.159617   21.452945 C.3        1 MOL1        -0.1437
       9    H6      17.892254   18.014689   21.444540 H          1 MOL1         0.0947
      10    H7      19.411359   17.225202   21.066920 H          1 MOL1         0.0947
      11    C4      19.452455   18.352994   22.917794 C.3        1 MOL1        -0.1437
      12    H8      20.548766   18.398253   22.955497 H          1 MOL1         0.0947
      13    H9      19.167024   17.456143   23.482014 H          1 MOL1         0.0947
      14    C5      18.851449   19.607239   23.601552 C.3        1 MOL1        -0.1437
      15    H10     19.141401   20.503435   23.038083 H          1 MOL1         0.0947
      16    H11     17.754440   19.559906   23.565987 H          1 MOL1         0.0947
      17    C6      19.316663   19.794566   25.066542 C.3        1 MOL1        -0.1437
      18    H12     18.951808   20.767261   25.424730 H          1 MOL1         0.0947
      19    H13     20.413316   19.845754   25.094731 H          1 MOL1         0.0947
      20    C7      18.810488   18.686870   26.023999 C.3        1 MOL1        -0.1477
      21    H14     17.722939   18.580813   25.915689 H          1 MOL1         0.0947
      22    H15     19.250171   17.717486   25.758109 H          1 MOL1         0.0947
      23    C8      19.126072   18.993380   27.500491 C.3        1 MOL1         0.0145
      24    H16     18.681657   18.221643   28.134875 H          1 MOL1         0.0921
      25    H17     18.689530   19.956594   27.778018 H          1 MOL1         0.0921
      26    N1      20.609786   19.043724   27.807445 N.4        1 MOL1        -0.5969
      27    H18     21.073666   18.155750   27.589439 H          1 MOL1         0.3603
      28    H19     20.787133   19.239736   28.798753 H          1 MOL1         0.3603
      29    H20     21.083618   19.774270   27.267036 H          1 MOL1         0.3603
@<TRIPOS>BOND
    1     1     2    1
    2     1     3    1
    3     1     4    1
    4     1     5    1
    5     5     6    1
    6     5     7    1
    7     5     8    1
    8     8     9    1
    9     8    10    1
   10     8    11    1
   11    11    12    1
   12    11    13    1
   13    11    14    1
   14    14    15    1
   15    14    16    1
   16    14    17    1
   17    17    18    1
   18    17    19    1
   19    17    20    1
   20    20    21    1
   21    20    22    1
   22    20    23    1
   23    23    24    1
   24    23    25    1
   25    23    26    1
   26    26    27    1
   27    26    28    1
   28    26    29    1
@<TRIPOS>SUBSTRUCTURE
       1 MOL1            1 RESIDUE      1      MOL     
@<SCITEGIC>MOL_PROPERTY
VM2 Rank
SciTegic.value.IntegerValue
154

@<SCITEGIC>MOL_PROPERTY
Conf_Id
SciTegic.value.IntegerValue
1339

@<SCITEGIC>MOL_PROPERTY
Probability
SciTegic.value.DoubleValue
0.12

@<SCITEGIC>MOL_PROPERTY
Sum Probability
SciTegic.value.DoubleValue
94.33

@<SCITEGIC>MOL_PROPERTY
Delta G
SciTegic.value.DoubleValue
2.235

@<SCITEGIC>MOL_PROPERTY
G
SciTegic.value.DoubleValue
60.381

@<SCITEGIC>MOL_PROPERTY
E
SciTegic.value.DoubleValue
22.593

@<SCITEGIC>MOL_PROPERTY
-TS
SciTegic.value.DoubleValue
37.789

@<SCITEGIC>MOL_PROPERTY
U+W
SciTegic.value.DoubleValue
-1.552

@<SCITEGIC>MOL_PROPERTY
U
SciTegic.value.DoubleValue
50.446

@<SCITEGIC>MOL_PROPERTY
W
SciTegic.value.DoubleValue
-51.998

@<SCITEGIC>MOL_PROPERTY
W(PB)
SciTegic.value.DoubleValue
-54.455

@<SCITEGIC>MOL_PROPERTY
W(SA)
SciTegic.value.DoubleValue
2.457

@<SCITEGIC>MOL_PROPERTY
Valence
SciTegic.value.DoubleValue
4.249

@<SCITEGIC>MOL_PROPERTY
Coulomb
SciTegic.value.DoubleValue
45.120

@<SCITEGIC>MOL_PROPERTY
VdW
SciTegic.value.DoubleValue
1.076

@<SCITEGIC>MOL_PROPERTY
VdW6
SciTegic.value.DoubleValue
-9.657

@<SCITEGIC>MOL_PROPERTY
VdW12
SciTegic.value.DoubleValue
10.734

@<SCITEGIC>MOL_PROPERTY
Bond
SciTegic.value.DoubleValue
0.293

@<SCITEGIC>MOL_PROPERTY
Angle
SciTegic.value.DoubleValue
1.397

@<SCITEGIC>MOL_PROPERTY
Pdih
SciTegic.value.DoubleValue
2.559

@<SCITEGIC>MOL_PROPERTY
Idih
SciTegic.value.DoubleValue
0.000

@<SCITEGIC>MOL_PROPERTY
Tether
SciTegic.value.DoubleValue
0.000

@<TRIPOS>MOLECULE
guest-3_vm2.mol2 : vm2 ligand conformer 155
          29          28           1
SMALL
USER_CHARGES
 
@<TRIPOS>ATOM
       1    C1      20.995694   17.993161   21.098895 C.3        1 MOL1        -0.2427
       2    H1      20.610208   17.163465   21.704256 H          1 MOL1         0.0958
       3    H2      21.434475   17.562205   20.189693 H          1 MOL1         0.0958
       4    H3      21.801077   18.484110   21.660419 H          1 MOL1         0.0958
       5    C2      19.878726   18.997934   20.736363 C.3        1 MOL1        -0.1412
       6    H4      19.072370   18.477523   20.200979 H          1 MOL1         0.0947
       7    H5      20.284121   19.740734   20.035213 H          1 MOL1         0.0947
       8    C3      19.299048   19.738983   21.964944 C.3        1 MOL1        -0.1437
       9    H6      20.110153   20.273086   22.476967 H          1 MOL1         0.0947
      10    H7      18.595845   20.505784   21.612081 H          1 MOL1         0.0947
      11    C4      18.567729   18.801394   22.958179 C.3        1 MOL1        -0.1437
      12    H8      19.274404   18.082064   23.390308 H          1 MOL1         0.0947
      13    H9      17.826982   18.205574   22.407573 H          1 MOL1         0.0947
      14    C5      17.837721   19.559952   24.096165 C.3        1 MOL1        -0.1437
      15    H10     17.055585   20.194013   23.656467 H          1 MOL1         0.0947
      16    H11     17.307695   18.831232   24.724139 H          1 MOL1         0.0947
      17    C6      18.748214   20.443568   24.991025 C.3        1 MOL1        -0.1437
      18    H12     18.130305   20.898649   25.777394 H          1 MOL1         0.0947
      19    H13     19.140698   21.282479   24.401062 H          1 MOL1         0.0947
      20    C7      19.930439   19.694813   25.654675 C.3        1 MOL1        -0.1477
      21    H14     20.627721   19.337735   24.885992 H          1 MOL1         0.0947
      22    H15     20.493836   20.402534   26.277113 H          1 MOL1         0.0947
      23    C8      19.469453   18.512601   26.526831 C.3        1 MOL1         0.0145
      24    H16     18.937420   17.784266   25.909272 H          1 MOL1         0.0921
      25    H17     18.787101   18.871385   27.302048 H          1 MOL1         0.0921
      26    N1      20.616977   17.795593   27.207924 N.4        1 MOL1        -0.5969
      27    H18     21.282880   17.410568   26.530003 H          1 MOL1         0.3603
      28    H19     20.288613   17.012191   27.783280 H          1 MOL1         0.3603
      29    H20     21.143391   18.420776   27.827155 H          1 MOL1         0.3603
@<TRIPOS>BOND
    1     1     2    1
    2     1     3    1
    3     1     4    1
    4     1     5    1
    5     5     6    1
    6     5     7    1
    7     5     8    1
    8     8     9    1
    9     8    10    1
   10     8    11    1
   11    11    12    1
   12    11    13    1
   13    11    14    1
   14    14    15    1
   15    14    16    1
   16    14    17    1
   17    17    18    1
   18    17    19    1
   19    17    20    1
   20    20    21    1
   21    20    22    1
   22    20    23    1
   23    23    24    1
   24    23    25    1
   25    23    26    1
   26    26    27    1
   27    26    28    1
   28    26    29    1
@<TRIPOS>SUBSTRUCTURE
       1 MOL1            1 RESIDUE      1      MOL     
@<SCITEGIC>MOL_PROPERTY
VM2 Rank
SciTegic.value.IntegerValue
155

@<SCITEGIC>MOL_PROPERTY
Conf_Id
SciTegic.value.IntegerValue
965

@<SCITEGIC>MOL_PROPERTY
Probability
SciTegic.value.DoubleValue
0.12

@<SCITEGIC>MOL_PROPERTY
Sum Probability
SciTegic.value.DoubleValue
94.46

@<SCITEGIC>MOL_PROPERTY
Delta G
SciTegic.value.DoubleValue
2.237

@<SCITEGIC>MOL_PROPERTY
G
SciTegic.value.DoubleValue
60.383

@<SCITEGIC>MOL_PROPERTY
E
SciTegic.value.DoubleValue
22.374

@<SCITEGIC>MOL_PROPERTY
-TS
SciTegic.value.DoubleValue
38.009

@<SCITEGIC>MOL_PROPERTY
U+W
SciTegic.value.DoubleValue
-1.771

@<SCITEGIC>MOL_PROPERTY
U
SciTegic.value.DoubleValue
50.712

@<SCITEGIC>MOL_PROPERTY
W
SciTegic.value.DoubleValue
-52.482

@<SCITEGIC>MOL_PROPERTY
W(PB)
SciTegic.value.DoubleValue
-54.901

@<SCITEGIC>MOL_PROPERTY
W(SA)
SciTegic.value.DoubleValue
2.418

@<SCITEGIC>MOL_PROPERTY
Valence
SciTegic.value.DoubleValue
4.258

@<SCITEGIC>MOL_PROPERTY
Coulomb
SciTegic.value.DoubleValue
45.781

@<SCITEGIC>MOL_PROPERTY
VdW
SciTegic.value.DoubleValue
0.673

@<SCITEGIC>MOL_PROPERTY
VdW6
SciTegic.value.DoubleValue
-10.326

@<SCITEGIC>MOL_PROPERTY
VdW12
SciTegic.value.DoubleValue
10.999

@<SCITEGIC>MOL_PROPERTY
Bond
SciTegic.value.DoubleValue
0.292

@<SCITEGIC>MOL_PROPERTY
Angle
SciTegic.value.DoubleValue
1.417

@<SCITEGIC>MOL_PROPERTY
Pdih
SciTegic.value.DoubleValue
2.549

@<SCITEGIC>MOL_PROPERTY
Idih
SciTegic.value.DoubleValue
0.000

@<SCITEGIC>MOL_PROPERTY
Tether
SciTegic.value.DoubleValue
0.000

@<TRIPOS>MOLECULE
guest-3_vm2.mol2 : vm2 ligand conformer 156
          29          28           1
SMALL
USER_CHARGES
 
@<TRIPOS>ATOM
       1    C1      20.854050   18.006104   20.902211 C.3        1 MOL1        -0.2427
       2    H1      21.360974   17.780583   19.955072 H          1 MOL1         0.0958
       3    H2      21.587941   17.894603   21.710887 H          1 MOL1         0.0958
       4    H3      20.068964   17.253024   21.043619 H          1 MOL1         0.0958
       5    C2      20.269745   19.436624   20.875576 C.3        1 MOL1        -0.1412
       6    H4      19.518945   19.514815   20.076911 H          1 MOL1         0.0947
       7    H5      21.071038   20.141998   20.614652 H          1 MOL1         0.0947
       8    C3      19.646924   19.868944   22.224560 C.3        1 MOL1        -0.1437
       9    H6      20.413303   19.808367   23.008302 H          1 MOL1         0.0947
      10    H7      19.356353   20.926082   22.153672 H          1 MOL1         0.0947
      11    C4      18.407746   19.029627   22.625356 C.3        1 MOL1        -0.1437
      12    H8      18.697382   17.985452   22.797071 H          1 MOL1         0.0947
      13    H9      17.700199   19.013281   21.785105 H          1 MOL1         0.0947
      14    C5      17.669935   19.576335   23.874689 C.3        1 MOL1        -0.1437
      15    H10     17.273090   20.574957   23.645747 H          1 MOL1         0.0947
      16    H11     16.793797   18.943410   24.071974 H          1 MOL1         0.0947
      17    C6      18.527639   19.664325   25.163376 C.3        1 MOL1        -0.1437
      18    H12     17.898275   20.062738   25.971196 H          1 MOL1         0.0947
      19    H13     19.334673   20.394183   25.020761 H          1 MOL1         0.0947
      20    C7      19.113560   18.301297   25.608394 C.3        1 MOL1        -0.1477
      21    H14     18.304642   17.561604   25.673127 H          1 MOL1         0.0947
      22    H15     19.824197   17.927092   24.860470 H          1 MOL1         0.0947
      23    C8      19.816591   18.378259   26.976966 C.3        1 MOL1         0.0145
      24    H16     20.139009   17.377356   27.276542 H          1 MOL1         0.0921
      25    H17     19.116962   18.751172   27.729835 H          1 MOL1         0.0921
      26    N1      21.037810   19.276485   26.983874 N.4        1 MOL1        -0.5969
      27    H18     20.797930   20.243323   26.743386 H          1 MOL1         0.3603
      28    H19     21.744994   18.962079   26.311481 H          1 MOL1         0.3603
      29    H20     21.488398   19.298611   27.905311 H          1 MOL1         0.3603
@<TRIPOS>BOND
    1     1     2    1
    2     1     3    1
    3     1     4    1
    4     1     5    1
    5     5     6    1
    6     5     7    1
    7     5     8    1
    8     8     9    1
    9     8    10    1
   10     8    11    1
   11    11    12    1
   12    11    13    1
   13    11    14    1
   14    14    15    1
   15    14    16    1
   16    14    17    1
   17    17    18    1
   18    17    19    1
   19    17    20    1
   20    20    21    1
   21    20    22    1
   22    20    23    1
   23    23    24    1
   24    23    25    1
   25    23    26    1
   26    26    27    1
   27    26    28    1
   28    26    29    1
@<TRIPOS>SUBSTRUCTURE
       1 MOL1            1 RESIDUE      1      MOL     
@<SCITEGIC>MOL_PROPERTY
VM2 Rank
SciTegic.value.IntegerValue
156

@<SCITEGIC>MOL_PROPERTY
Conf_Id
SciTegic.value.IntegerValue
1372

@<SCITEGIC>MOL_PROPERTY
Probability
SciTegic.value.DoubleValue
0.12

@<SCITEGIC>MOL_PROPERTY
Sum Probability
SciTegic.value.DoubleValue
94.58

@<SCITEGIC>MOL_PROPERTY
Delta G
SciTegic.value.DoubleValue
2.248

@<SCITEGIC>MOL_PROPERTY
G
SciTegic.value.DoubleValue
60.394

@<SCITEGIC>MOL_PROPERTY
E
SciTegic.value.DoubleValue
22.520

@<SCITEGIC>MOL_PROPERTY
-TS
SciTegic.value.DoubleValue
37.874

@<SCITEGIC>MOL_PROPERTY
U+W
SciTegic.value.DoubleValue
-1.624

@<SCITEGIC>MOL_PROPERTY
U
SciTegic.value.DoubleValue
50.862

@<SCITEGIC>MOL_PROPERTY
W
SciTegic.value.DoubleValue
-52.486

@<SCITEGIC>MOL_PROPERTY
W(PB)
SciTegic.value.DoubleValue
-54.909

@<SCITEGIC>MOL_PROPERTY
W(SA)
SciTegic.value.DoubleValue
2.422

@<SCITEGIC>MOL_PROPERTY
Valence
SciTegic.value.DoubleValue
4.116

@<SCITEGIC>MOL_PROPERTY
Coulomb
SciTegic.value.DoubleValue
45.896

@<SCITEGIC>MOL_PROPERTY
VdW
SciTegic.value.DoubleValue
0.851

@<SCITEGIC>MOL_PROPERTY
VdW6
SciTegic.value.DoubleValue
-9.985

@<SCITEGIC>MOL_PROPERTY
VdW12
SciTegic.value.DoubleValue
10.835

@<SCITEGIC>MOL_PROPERTY
Bond
SciTegic.value.DoubleValue
0.285

@<SCITEGIC>MOL_PROPERTY
Angle
SciTegic.value.DoubleValue
1.253

@<SCITEGIC>MOL_PROPERTY
Pdih
SciTegic.value.DoubleValue
2.578

@<SCITEGIC>MOL_PROPERTY
Idih
SciTegic.value.DoubleValue
0.000

@<SCITEGIC>MOL_PROPERTY
Tether
SciTegic.value.DoubleValue
0.000

@<TRIPOS>MOLECULE
guest-3_vm2.mol2 : vm2 ligand conformer 157
          29          28           1
SMALL
USER_CHARGES
 
@<TRIPOS>ATOM
       1    C1      20.656478   18.762197   20.391277 C.3        1 MOL1        -0.2427
       2    H1      20.096370   19.042662   19.489868 H          1 MOL1         0.0958
       3    H2      21.718765   18.701013   20.121830 H          1 MOL1         0.0958
       4    H3      20.334438   17.759244   20.697862 H          1 MOL1         0.0958
       5    C2      20.442790   19.794851   21.520798 C.3        1 MOL1        -0.1412
       6    H4      20.877015   20.754990   21.209181 H          1 MOL1         0.0947
       7    H5      21.001832   19.487476   22.414664 H          1 MOL1         0.0947
       8    C3      18.950380   20.018673   21.873258 C.3        1 MOL1        -0.1437
       9    H6      18.878080   20.803208   22.637983 H          1 MOL1         0.0947
      10    H7      18.434964   20.421144   20.990453 H          1 MOL1         0.0947
      11    C4      18.188975   18.754821   22.356418 C.3        1 MOL1        -0.1437
      12    H8      18.107570   18.041561   21.525459 H          1 MOL1         0.0947
      13    H9      17.156663   19.039748   22.601549 H          1 MOL1         0.0947
      14    C5      18.812834   18.031723   23.577779 C.3        1 MOL1        -0.1437
      15    H10     18.199119   17.149751   23.807038 H          1 MOL1         0.0947
      16    H11     19.807953   17.647560   23.317417 H          1 MOL1         0.0947
      17    C6      18.908271   18.921717   24.839913 C.3        1 MOL1        -0.1437
      18    H12     17.916200   19.331001   25.075709 H          1 MOL1         0.0947
      19    H13     19.567884   19.775204   24.639548 H          1 MOL1         0.0947
      20    C7      19.442862   18.131564   26.057581 C.3        1 MOL1        -0.1477
      21    H14     18.798763   17.260552   26.237529 H          1 MOL1         0.0947
      22    H15     20.445923   17.740396   25.841191 H          1 MOL1         0.0947
      23    C8      19.487156   18.978504   27.343933 C.3        1 MOL1         0.0145
      24    H16     19.789575   18.346989   28.183731 H          1 MOL1         0.0921
      25    H17     18.491331   19.376205   27.557355 H          1 MOL1         0.0921
      26    N1      20.454254   20.143949   27.274043 N.4        1 MOL1        -0.5969
      27    H18     21.414550   19.831122   27.097302 H          1 MOL1         0.3603
      28    H19     20.469268   20.678838   28.149416 H          1 MOL1         0.3603
      29    H20     20.205414   20.798680   26.526031 H          1 MOL1         0.3603
@<TRIPOS>BOND
    1     1     2    1
    2     1     3    1
    3     1     4    1
    4     1     5    1
    5     5     6    1
    6     5     7    1
    7     5     8    1
    8     8     9    1
    9     8    10    1
   10     8    11    1
   11    11    12    1
   12    11    13    1
   13    11    14    1
   14    14    15    1
   15    14    16    1
   16    14    17    1
   17    17    18    1
   18    17    19    1
   19    17    20    1
   20    20    21    1
   21    20    22    1
   22    20    23    1
   23    23    24    1
   24    23    25    1
   25    23    26    1
   26    26    27    1
   27    26    28    1
   28    26    29    1
@<TRIPOS>SUBSTRUCTURE
       1 MOL1            1 RESIDUE      1      MOL     
@<SCITEGIC>MOL_PROPERTY
VM2 Rank
SciTegic.value.IntegerValue
157

@<SCITEGIC>MOL_PROPERTY
Conf_Id
SciTegic.value.IntegerValue
2237

@<SCITEGIC>MOL_PROPERTY
Probability
SciTegic.value.DoubleValue
0.12

@<SCITEGIC>MOL_PROPERTY
Sum Probability
SciTegic.value.DoubleValue
94.70

@<SCITEGIC>MOL_PROPERTY
Delta G
SciTegic.value.DoubleValue
2.249

@<SCITEGIC>MOL_PROPERTY
G
SciTegic.value.DoubleValue
60.395

@<SCITEGIC>MOL_PROPERTY
E
SciTegic.value.DoubleValue
22.329

@<SCITEGIC>MOL_PROPERTY
-TS
SciTegic.value.DoubleValue
38.066

@<SCITEGIC>MOL_PROPERTY
U+W
SciTegic.value.DoubleValue
-1.815

@<SCITEGIC>MOL_PROPERTY
U
SciTegic.value.DoubleValue
50.557

@<SCITEGIC>MOL_PROPERTY
W
SciTegic.value.DoubleValue
-52.372

@<SCITEGIC>MOL_PROPERTY
W(PB)
SciTegic.value.DoubleValue
-54.828

@<SCITEGIC>MOL_PROPERTY
W(SA)
SciTegic.value.DoubleValue
2.456

@<SCITEGIC>MOL_PROPERTY
Valence
SciTegic.value.DoubleValue
4.083

@<SCITEGIC>MOL_PROPERTY
Coulomb
SciTegic.value.DoubleValue
45.658

@<SCITEGIC>MOL_PROPERTY
VdW
SciTegic.value.DoubleValue
0.816

@<SCITEGIC>MOL_PROPERTY
VdW6
SciTegic.value.DoubleValue
-10.085

@<SCITEGIC>MOL_PROPERTY
VdW12
SciTegic.value.DoubleValue
10.901

@<SCITEGIC>MOL_PROPERTY
Bond
SciTegic.value.DoubleValue
0.289

@<SCITEGIC>MOL_PROPERTY
Angle
SciTegic.value.DoubleValue
1.408

@<SCITEGIC>MOL_PROPERTY
Pdih
SciTegic.value.DoubleValue
2.386

@<SCITEGIC>MOL_PROPERTY
Idih
SciTegic.value.DoubleValue
0.000

@<SCITEGIC>MOL_PROPERTY
Tether
SciTegic.value.DoubleValue
0.000

@<TRIPOS>MOLECULE
guest-3_vm2.mol2 : vm2 ligand conformer 158
          29          28           1
SMALL
USER_CHARGES
 
@<TRIPOS>ATOM
       1    C1      21.253668   19.127881   20.927249 C.3        1 MOL1        -0.2427
       2    H1      21.881280   18.718489   21.729424 H          1 MOL1         0.0958
       3    H2      21.802457   19.019382   19.982813 H          1 MOL1         0.0958
       4    H3      21.119272   20.201340   21.109214 H          1 MOL1         0.0958
       5    C2      19.897221   18.391044   20.852212 C.3        1 MOL1        -0.1412
       6    H4      20.075996   17.349017   20.552334 H          1 MOL1         0.0947
       7    H5      19.277349   18.836623   20.061708 H          1 MOL1         0.0947
       8    C3      19.122336   18.396703   22.191647 C.3        1 MOL1        -0.1437
       9    H6      18.230009   17.765078   22.083017 H          1 MOL1         0.0947
      10    H7      19.743313   17.928106   22.966284 H          1 MOL1         0.0947
      11    C4      18.687126   19.813624   22.642845 C.3        1 MOL1        -0.1437
      12    H8      18.161140   20.306803   21.813976 H          1 MOL1         0.0947
      13    H9      19.569114   20.431811   22.851698 H          1 MOL1         0.0947
      14    C5      17.752295   19.807396   23.879834 C.3        1 MOL1        -0.1437
      15    H10     17.470765   20.843186   24.114388 H          1 MOL1         0.0947
      16    H11     16.816849   19.294487   23.617136 H          1 MOL1         0.0947
      17    C6      18.343016   19.146102   25.151784 C.3        1 MOL1        -0.1437
      18    H12     18.508958   18.076812   24.968982 H          1 MOL1         0.0947
      19    H13     17.592174   19.203584   25.951994 H          1 MOL1         0.0947
      20    C7      19.652250   19.812933   25.642133 C.3        1 MOL1        -0.1477
      21    H14     20.449923   19.682919   24.899680 H          1 MOL1         0.0947
      22    H15     19.492189   20.894119   25.747485 H          1 MOL1         0.0947
      23    C8      20.128950   19.254833   26.996552 C.3        1 MOL1         0.0145
      24    H16     19.340588   19.378765   27.743870 H          1 MOL1         0.0921
      25    H17     21.007234   19.813702   27.330900 H          1 MOL1         0.0921
      26    N1      20.507139   17.787484   26.950743 N.4        1 MOL1        -0.5969
      27    H18     20.829269   17.449108   27.864142 H          1 MOL1         0.3603
      28    H19     21.263219   17.610314   26.281395 H          1 MOL1         0.3603
      29    H20     19.713498   17.200451   26.675649 H          1 MOL1         0.3603
@<TRIPOS>BOND
    1     1     2    1
    2     1     3    1
    3     1     4    1
    4     1     5    1
    5     5     6    1
    6     5     7    1
    7     5     8    1
    8     8     9    1
    9     8    10    1
   10     8    11    1
   11    11    12    1
   12    11    13    1
   13    11    14    1
   14    14    15    1
   15    14    16    1
   16    14    17    1
   17    17    18    1
   18    17    19    1
   19    17    20    1
   20    20    21    1
   21    20    22    1
   22    20    23    1
   23    23    24    1
   24    23    25    1
   25    23    26    1
   26    26    27    1
   27    26    28    1
   28    26    29    1
@<TRIPOS>SUBSTRUCTURE
       1 MOL1            1 RESIDUE      1      MOL     
@<SCITEGIC>MOL_PROPERTY
VM2 Rank
SciTegic.value.IntegerValue
158

@<SCITEGIC>MOL_PROPERTY
Conf_Id
SciTegic.value.IntegerValue
2587

@<SCITEGIC>MOL_PROPERTY
Probability
SciTegic.value.DoubleValue
0.12

@<SCITEGIC>MOL_PROPERTY
Sum Probability
SciTegic.value.DoubleValue
94.82

@<SCITEGIC>MOL_PROPERTY
Delta G
SciTegic.value.DoubleValue
2.250

@<SCITEGIC>MOL_PROPERTY
G
SciTegic.value.DoubleValue
60.396

@<SCITEGIC>MOL_PROPERTY
E
SciTegic.value.DoubleValue
22.521

@<SCITEGIC>MOL_PROPERTY
-TS
SciTegic.value.DoubleValue
37.875

@<SCITEGIC>MOL_PROPERTY
U+W
SciTegic.value.DoubleValue
-1.623

@<SCITEGIC>MOL_PROPERTY
U
SciTegic.value.DoubleValue
50.862

@<SCITEGIC>MOL_PROPERTY
W
SciTegic.value.DoubleValue
-52.485

@<SCITEGIC>MOL_PROPERTY
W(PB)
SciTegic.value.DoubleValue
-54.915

@<SCITEGIC>MOL_PROPERTY
W(SA)
SciTegic.value.DoubleValue
2.430

@<SCITEGIC>MOL_PROPERTY
Valence
SciTegic.value.DoubleValue
4.116

@<SCITEGIC>MOL_PROPERTY
Coulomb
SciTegic.value.DoubleValue
45.895

@<SCITEGIC>MOL_PROPERTY
VdW
SciTegic.value.DoubleValue
0.851

@<SCITEGIC>MOL_PROPERTY
VdW6
SciTegic.value.DoubleValue
-9.985

@<SCITEGIC>MOL_PROPERTY
VdW12
SciTegic.value.DoubleValue
10.835

@<SCITEGIC>MOL_PROPERTY
Bond
SciTegic.value.DoubleValue
0.285

@<SCITEGIC>MOL_PROPERTY
Angle
SciTegic.value.DoubleValue
1.253

@<SCITEGIC>MOL_PROPERTY
Pdih
SciTegic.value.DoubleValue
2.578

@<SCITEGIC>MOL_PROPERTY
Idih
SciTegic.value.DoubleValue
0.000

@<SCITEGIC>MOL_PROPERTY
Tether
SciTegic.value.DoubleValue
0.000

@<TRIPOS>MOLECULE
guest-3_vm2.mol2 : vm2 ligand conformer 159
          29          28           1
SMALL
USER_CHARGES
 
@<TRIPOS>ATOM
       1    C1      20.861048   19.226325   20.087223 C.3        1 MOL1        -0.2427
       2    H1      21.252085   20.088830   20.641090 H          1 MOL1         0.0958
       3    H2      21.415247   18.333426   20.404413 H          1 MOL1         0.0958
       4    H3      21.073306   19.393175   19.023258 H          1 MOL1         0.0958
       5    C2      19.342892   19.047655   20.314478 C.3        1 MOL1        -0.1412
       6    H4      18.976690   18.249658   19.653543 H          1 MOL1         0.0947
       7    H5      18.814025   19.962854   20.013785 H          1 MOL1         0.0947
       8    C3      18.979899   18.689014   21.775550 C.3        1 MOL1        -0.1437
       9    H6      17.902114   18.482168   21.827018 H          1 MOL1         0.0947
      10    H7      19.489706   17.756965   22.052175 H          1 MOL1         0.0947
      11    C4      19.330160   19.809720   22.786856 C.3        1 MOL1        -0.1437
      12    H8      18.920055   20.761106   22.421142 H          1 MOL1         0.0947
      13    H9      20.418830   19.941850   22.840608 H          1 MOL1         0.0947
      14    C5      18.777529   19.553212   24.210419 C.3        1 MOL1        -0.1437
      15    H10     18.965870   20.450333   24.814562 H          1 MOL1         0.0947
      16    H11     17.686129   19.435270   24.165210 H          1 MOL1         0.0947
      17    C6      19.408253   18.319124   24.904047 C.3        1 MOL1        -0.1437
      18    H12     20.501312   18.422155   24.923765 H          1 MOL1         0.0947
      19    H13     19.196624   17.417844   24.314433 H          1 MOL1         0.0947
      20    C7      18.874031   18.088256   26.340126 C.3        1 MOL1        -0.1477
      21    H14     17.791099   17.911007   26.299012 H          1 MOL1         0.0947
      22    H15     19.318709   17.171021   26.748470 H          1 MOL1         0.0947
      23    C8      19.148134   19.254753   27.311009 C.3        1 MOL1         0.0145
      24    H16     18.724087   19.018590   28.290745 H          1 MOL1         0.0921
      25    H17     18.665975   20.164095   26.943464 H          1 MOL1         0.0921
      26    N1      20.622054   19.549940   27.505291 N.4        1 MOL1        -0.5969
      27    H18     21.126201   18.738592   27.877721 H          1 MOL1         0.3603
      28    H19     20.772668   20.324459   28.160933 H          1 MOL1         0.3603
      29    H20     21.073489   19.809145   26.622485 H          1 MOL1         0.3603
@<TRIPOS>BOND
    1     1     2    1
    2     1     3    1
    3     1     4    1
    4     1     5    1
    5     5     6    1
    6     5     7    1
    7     5     8    1
    8     8     9    1
    9     8    10    1
   10     8    11    1
   11    11    12    1
   12    11    13    1
   13    11    14    1
   14    14    15    1
   15    14    16    1
   16    14    17    1
   17    17    18    1
   18    17    19    1
   19    17    20    1
   20    20    21    1
   21    20    22    1
   22    20    23    1
   23    23    24    1
   24    23    25    1
   25    23    26    1
   26    26    27    1
   27    26    28    1
   28    26    29    1
@<TRIPOS>SUBSTRUCTURE
       1 MOL1            1 RESIDUE      1      MOL     
@<SCITEGIC>MOL_PROPERTY
VM2 Rank
SciTegic.value.IntegerValue
159

@<SCITEGIC>MOL_PROPERTY
Conf_Id
SciTegic.value.IntegerValue
2297

@<SCITEGIC>MOL_PROPERTY
Probability
SciTegic.value.DoubleValue
0.12

@<SCITEGIC>MOL_PROPERTY
Sum Probability
SciTegic.value.DoubleValue
94.94

@<SCITEGIC>MOL_PROPERTY
Delta G
SciTegic.value.DoubleValue
2.253

@<SCITEGIC>MOL_PROPERTY
G
SciTegic.value.DoubleValue
60.399

@<SCITEGIC>MOL_PROPERTY
E
SciTegic.value.DoubleValue
22.715

@<SCITEGIC>MOL_PROPERTY
-TS
SciTegic.value.DoubleValue
37.684

@<SCITEGIC>MOL_PROPERTY
U+W
SciTegic.value.DoubleValue
-1.430

@<SCITEGIC>MOL_PROPERTY
U
SciTegic.value.DoubleValue
50.438

@<SCITEGIC>MOL_PROPERTY
W
SciTegic.value.DoubleValue
-51.868

@<SCITEGIC>MOL_PROPERTY
W(PB)
SciTegic.value.DoubleValue
-54.345

@<SCITEGIC>MOL_PROPERTY
W(SA)
SciTegic.value.DoubleValue
2.477

@<SCITEGIC>MOL_PROPERTY
Valence
SciTegic.value.DoubleValue
4.026

@<SCITEGIC>MOL_PROPERTY
Coulomb
SciTegic.value.DoubleValue
45.352

@<SCITEGIC>MOL_PROPERTY
VdW
SciTegic.value.DoubleValue
1.061

@<SCITEGIC>MOL_PROPERTY
VdW6
SciTegic.value.DoubleValue
-9.537

@<SCITEGIC>MOL_PROPERTY
VdW12
SciTegic.value.DoubleValue
10.598

@<SCITEGIC>MOL_PROPERTY
Bond
SciTegic.value.DoubleValue
0.273

@<SCITEGIC>MOL_PROPERTY
Angle
SciTegic.value.DoubleValue
1.127

@<SCITEGIC>MOL_PROPERTY
Pdih
SciTegic.value.DoubleValue
2.625

@<SCITEGIC>MOL_PROPERTY
Idih
SciTegic.value.DoubleValue
0.000

@<SCITEGIC>MOL_PROPERTY
Tether
SciTegic.value.DoubleValue
0.000

@<TRIPOS>MOLECULE
guest-3_vm2.mol2 : vm2 ligand conformer 160
          29          28           1
SMALL
USER_CHARGES
 
@<TRIPOS>ATOM
       1    C1      20.519238   19.441521   19.854261 C.3        1 MOL1        -0.2427
       2    H1      20.752232   20.416102   19.406029 H          1 MOL1         0.0958
       3    H2      21.467354   18.962216   20.130944 H          1 MOL1         0.0958
       4    H3      20.035324   18.824442   19.085985 H          1 MOL1         0.0958
       5    C2      19.604984   19.612879   21.085736 C.3        1 MOL1        -0.1412
       6    H4      18.678225   20.120770   20.784478 H          1 MOL1         0.0947
       7    H5      20.105444   20.266395   21.812640 H          1 MOL1         0.0947
       8    C3      19.266098   18.251978   21.737981 C.3        1 MOL1        -0.1437
       9    H6      18.837653   17.587915   20.974682 H          1 MOL1         0.0947
      10    H7      20.188427   17.762579   22.077291 H          1 MOL1         0.0947
      11    C4      18.257579   18.358666   22.911168 C.3        1 MOL1        -0.1437
      12    H8      18.056369   17.349310   23.295566 H          1 MOL1         0.0947
      13    H9      17.298791   18.727333   22.521351 H          1 MOL1         0.0947
      14    C5      18.695745   19.266861   24.089374 C.3        1 MOL1        -0.1437
      15    H10     18.787413   20.306247   23.747766 H          1 MOL1         0.0947
      16    H11     17.888520   19.264972   24.833380 H          1 MOL1         0.0947
      17    C6      20.018616   18.817033   24.759559 C.3        1 MOL1        -0.1437
      18    H12     20.831918   18.848219   24.022979 H          1 MOL1         0.0947
      19    H13     19.935514   17.770171   25.080291 H          1 MOL1         0.0947
      20    C7      20.426701   19.707042   25.960451 C.3        1 MOL1        -0.1477
      21    H14     21.395782   19.367471   26.349504 H          1 MOL1         0.0947
      22    H15     20.581094   20.736717   25.611501 H          1 MOL1         0.0947
      23    C8      19.400840   19.723089   27.111848 C.3        1 MOL1         0.0145
      24    H16     18.444650   20.110343   26.751025 H          1 MOL1         0.0921
      25    H17     19.756803   20.385204   27.905799 H          1 MOL1         0.0921
      26    N1      19.154199   18.358931   27.724620 N.4        1 MOL1        -0.5969
      27    H18     20.014156   17.953750   28.108590 H          1 MOL1         0.3603
      28    H19     18.788613   17.696548   27.033290 H          1 MOL1         0.3603
      29    H20     18.473856   18.402506   28.491199 H          1 MOL1         0.3603
@<TRIPOS>BOND
    1     1     2    1
    2     1     3    1
    3     1     4    1
    4     1     5    1
    5     5     6    1
    6     5     7    1
    7     5     8    1
    8     8     9    1
    9     8    10    1
   10     8    11    1
   11    11    12    1
   12    11    13    1
   13    11    14    1
   14    14    15    1
   15    14    16    1
   16    14    17    1
   17    17    18    1
   18    17    19    1
   19    17    20    1
   20    20    21    1
   21    20    22    1
   22    20    23    1
   23    23    24    1
   24    23    25    1
   25    23    26    1
   26    26    27    1
   27    26    28    1
   28    26    29    1
@<TRIPOS>SUBSTRUCTURE
       1 MOL1            1 RESIDUE      1      MOL     
@<SCITEGIC>MOL_PROPERTY
VM2 Rank
SciTegic.value.IntegerValue
160

@<SCITEGIC>MOL_PROPERTY
Conf_Id
SciTegic.value.IntegerValue
989

@<SCITEGIC>MOL_PROPERTY
Probability
SciTegic.value.DoubleValue
0.12

@<SCITEGIC>MOL_PROPERTY
Sum Probability
SciTegic.value.DoubleValue
95.06

@<SCITEGIC>MOL_PROPERTY
Delta G
SciTegic.value.DoubleValue
2.268

@<SCITEGIC>MOL_PROPERTY
G
SciTegic.value.DoubleValue
60.415

@<SCITEGIC>MOL_PROPERTY
E
SciTegic.value.DoubleValue
22.506

@<SCITEGIC>MOL_PROPERTY
-TS
SciTegic.value.DoubleValue
37.909

@<SCITEGIC>MOL_PROPERTY
U+W
SciTegic.value.DoubleValue
-1.638

@<SCITEGIC>MOL_PROPERTY
U
SciTegic.value.DoubleValue
50.350

@<SCITEGIC>MOL_PROPERTY
W
SciTegic.value.DoubleValue
-51.989

@<SCITEGIC>MOL_PROPERTY
W(PB)
SciTegic.value.DoubleValue
-54.421

@<SCITEGIC>MOL_PROPERTY
W(SA)
SciTegic.value.DoubleValue
2.433

@<SCITEGIC>MOL_PROPERTY
Valence
SciTegic.value.DoubleValue
4.001

@<SCITEGIC>MOL_PROPERTY
Coulomb
SciTegic.value.DoubleValue
45.464

@<SCITEGIC>MOL_PROPERTY
VdW
SciTegic.value.DoubleValue
0.885

@<SCITEGIC>MOL_PROPERTY
VdW6
SciTegic.value.DoubleValue
-9.931

@<SCITEGIC>MOL_PROPERTY
VdW12
SciTegic.value.DoubleValue
10.816

@<SCITEGIC>MOL_PROPERTY
Bond
SciTegic.value.DoubleValue
0.283

@<SCITEGIC>MOL_PROPERTY
Angle
SciTegic.value.DoubleValue
1.376

@<SCITEGIC>MOL_PROPERTY
Pdih
SciTegic.value.DoubleValue
2.342

@<SCITEGIC>MOL_PROPERTY
Idih
SciTegic.value.DoubleValue
0.000

@<SCITEGIC>MOL_PROPERTY
Tether
SciTegic.value.DoubleValue
0.000

@<TRIPOS>MOLECULE
guest-3_vm2.mol2 : vm2 ligand conformer 161
          29          28           1
SMALL
USER_CHARGES
 
@<TRIPOS>ATOM
       1    C1      21.368714   19.040976   21.121608 C.3        1 MOL1        -0.2427
       2    H1      21.674803   18.129764   21.651688 H          1 MOL1         0.0958
       3    H2      21.993688   19.133384   20.223961 H          1 MOL1         0.0958
       4    H3      21.585850   19.902756   21.764763 H          1 MOL1         0.0958
       5    C2      19.873271   18.983410   20.735674 C.3        1 MOL1        -0.1412
       6    H4      19.727798   18.180126   19.999956 H          1 MOL1         0.0947
       7    H5      19.584671   19.917012   20.232908 H          1 MOL1         0.0947
       8    C3      18.938742   18.727303   21.942181 C.3        1 MOL1        -0.1437
       9    H6      17.914184   18.592050   21.569384 H          1 MOL1         0.0947
      10    H7      19.222729   17.781060   22.421037 H          1 MOL1         0.0947
      11    C4      18.950612   19.875745   22.982063 C.3        1 MOL1        -0.1437
      12    H8      18.760837   20.826855   22.466069 H          1 MOL1         0.0947
      13    H9      19.946725   19.968810   23.432242 H          1 MOL1         0.0947
      14    C5      17.889604   19.704784   24.099370 C.3        1 MOL1        -0.1437
      15    H10     17.930527   20.578879   24.763142 H          1 MOL1         0.0947
      16    H11     16.889022   19.725644   23.646042 H          1 MOL1         0.0947
      17    C6      18.024239   18.410028   24.945551 C.3        1 MOL1        -0.1437
      18    H12     17.806831   17.536028   24.317277 H          1 MOL1         0.0947
      19    H13     17.246628   18.416936   25.721800 H          1 MOL1         0.0947
      20    C7      19.404067   18.216448   25.621803 C.3        1 MOL1        -0.1477
      21    H14     19.384755   17.287877   26.207547 H          1 MOL1         0.0947
      22    H15     20.181065   18.082978   24.858231 H          1 MOL1         0.0947
      23    C8      19.781133   19.388191   26.546808 C.3        1 MOL1         0.0145
      24    H16     19.014436   19.510762   27.316513 H          1 MOL1         0.0921
      25    H17     19.837894   20.312692   25.966303 H          1 MOL1         0.0921
      26    N1      21.113620   19.191116   27.239943 N.4        1 MOL1        -0.5969
      27    H18     21.882748   19.095364   26.568734 H          1 MOL1         0.3603
      28    H19     21.117628   18.349953   27.826323 H          1 MOL1         0.3603
      29    H20     21.345793   19.982135   27.850649 H          1 MOL1         0.3603
@<TRIPOS>BOND
    1     1     2    1
    2     1     3    1
    3     1     4    1
    4     1     5    1
    5     5     6    1
    6     5     7    1
    7     5     8    1
    8     8     9    1
    9     8    10    1
   10     8    11    1
   11    11    12    1
   12    11    13    1
   13    11    14    1
   14    14    15    1
   15    14    16    1
   16    14    17    1
   17    17    18    1
   18    17    19    1
   19    17    20    1
   20    20    21    1
   21    20    22    1
   22    20    23    1
   23    23    24    1
   24    23    25    1
   25    23    26    1
   26    26    27    1
   27    26    28    1
   28    26    29    1
@<TRIPOS>SUBSTRUCTURE
       1 MOL1            1 RESIDUE      1      MOL     
@<SCITEGIC>MOL_PROPERTY
VM2 Rank
SciTegic.value.IntegerValue
161

@<SCITEGIC>MOL_PROPERTY
Conf_Id
SciTegic.value.IntegerValue
992

@<SCITEGIC>MOL_PROPERTY
Probability
SciTegic.value.DoubleValue
0.12

@<SCITEGIC>MOL_PROPERTY
Sum Probability
SciTegic.value.DoubleValue
95.18

@<SCITEGIC>MOL_PROPERTY
Delta G
SciTegic.value.DoubleValue
2.269

@<SCITEGIC>MOL_PROPERTY
G
SciTegic.value.DoubleValue
60.416

@<SCITEGIC>MOL_PROPERTY
E
SciTegic.value.DoubleValue
22.407

@<SCITEGIC>MOL_PROPERTY
-TS
SciTegic.value.DoubleValue
38.009

@<SCITEGIC>MOL_PROPERTY
U+W
SciTegic.value.DoubleValue
-1.738

@<SCITEGIC>MOL_PROPERTY
U
SciTegic.value.DoubleValue
50.711

@<SCITEGIC>MOL_PROPERTY
W
SciTegic.value.DoubleValue
-52.448

@<SCITEGIC>MOL_PROPERTY
W(PB)
SciTegic.value.DoubleValue
-54.900

@<SCITEGIC>MOL_PROPERTY
W(SA)
SciTegic.value.DoubleValue
2.452

@<SCITEGIC>MOL_PROPERTY
Valence
SciTegic.value.DoubleValue
4.258

@<SCITEGIC>MOL_PROPERTY
Coulomb
SciTegic.value.DoubleValue
45.780

@<SCITEGIC>MOL_PROPERTY
VdW
SciTegic.value.DoubleValue
0.673

@<SCITEGIC>MOL_PROPERTY
VdW6
SciTegic.value.DoubleValue
-10.324

@<SCITEGIC>MOL_PROPERTY
VdW12
SciTegic.value.DoubleValue
10.997

@<SCITEGIC>MOL_PROPERTY
Bond
SciTegic.value.DoubleValue
0.292

@<SCITEGIC>MOL_PROPERTY
Angle
SciTegic.value.DoubleValue
1.417

@<SCITEGIC>MOL_PROPERTY
Pdih
SciTegic.value.DoubleValue
2.549

@<SCITEGIC>MOL_PROPERTY
Idih
SciTegic.value.DoubleValue
0.000

@<SCITEGIC>MOL_PROPERTY
Tether
SciTegic.value.DoubleValue
0.000

@<TRIPOS>MOLECULE
guest-3_vm2.mol2 : vm2 ligand conformer 162
          29          28           1
SMALL
USER_CHARGES
 
@<TRIPOS>ATOM
       1    C1      20.101554   18.270309   19.827828 C.3        1 MOL1        -0.2427
       2    H1      20.127247   19.084267   19.091608 H          1 MOL1         0.0958
       3    H2      21.135278   18.031075   20.109594 H          1 MOL1         0.0958
       4    H3      19.672370   17.386592   19.338079 H          1 MOL1         0.0958
       5    C2      19.267760   18.666536   21.064577 C.3        1 MOL1        -0.1412
       6    H4      19.232398   17.815559   21.757775 H          1 MOL1         0.0947
       7    H5      18.232870   18.871153   20.756801 H          1 MOL1         0.0947
       8    C3      19.856227   19.908033   21.775003 C.3        1 MOL1        -0.1437
       9    H6      20.875390   19.690318   22.120319 H          1 MOL1         0.0947
      10    H7      19.954756   20.723054   21.044795 H          1 MOL1         0.0947
      11    C4      18.990899   20.416362   22.957233 C.3        1 MOL1        -0.1437
      12    H8      18.020495   20.752504   22.566755 H          1 MOL1         0.0947
      13    H9      19.467556   21.309445   23.384138 H          1 MOL1         0.0947
      14    C5      18.739794   19.389822   24.092193 C.3        1 MOL1        -0.1437
      15    H10     18.104977   19.871942   24.846995 H          1 MOL1         0.0947
      16    H11     18.158797   18.540967   23.708383 H          1 MOL1         0.0947
      17    C6      20.039637   18.875412   24.760971 C.3        1 MOL1        -0.1437
      18    H12     20.632303   19.725476   25.124064 H          1 MOL1         0.0947
      19    H13     20.660538   18.366456   24.012350 H          1 MOL1         0.0947
      20    C7      19.776409   17.881120   25.919804 C.3        1 MOL1        -0.1477
      21    H14     19.250409   17.000337   25.528167 H          1 MOL1         0.0947
      22    H15     20.736418   17.516246   26.308438 H          1 MOL1         0.0947
      23    C8      18.954875   18.471349   27.083884 C.3        1 MOL1         0.0145
      24    H16     18.801205   17.702545   27.845979 H          1 MOL1         0.0921
      25    H17     17.974257   18.789880   26.721414 H          1 MOL1         0.0921
      26    N1      19.616845   19.659057   27.753506 N.4        1 MOL1        -0.5969
      27    H18     19.051107   20.024947   28.527116 H          1 MOL1         0.3603
      28    H19     19.761859   20.430051   27.094052 H          1 MOL1         0.3603
      29    H20     20.533832   19.414263   28.141244 H          1 MOL1         0.3603
@<TRIPOS>BOND
    1     1     2    1
    2     1     3    1
    3     1     4    1
    4     1     5    1
    5     5     6    1
    6     5     7    1
    7     5     8    1
    8     8     9    1
    9     8    10    1
   10     8    11    1
   11    11    12    1
   12    11    13    1
   13    11    14    1
   14    14    15    1
   15    14    16    1
   16    14    17    1
   17    17    18    1
   18    17    19    1
   19    17    20    1
   20    20    21    1
   21    20    22    1
   22    20    23    1
   23    23    24    1
   24    23    25    1
   25    23    26    1
   26    26    27    1
   27    26    28    1
   28    26    29    1
@<TRIPOS>SUBSTRUCTURE
       1 MOL1            1 RESIDUE      1      MOL     
@<SCITEGIC>MOL_PROPERTY
VM2 Rank
SciTegic.value.IntegerValue
162

@<SCITEGIC>MOL_PROPERTY
Conf_Id
SciTegic.value.IntegerValue
318

@<SCITEGIC>MOL_PROPERTY
Probability
SciTegic.value.DoubleValue
0.11

@<SCITEGIC>MOL_PROPERTY
Sum Probability
SciTegic.value.DoubleValue
95.29

@<SCITEGIC>MOL_PROPERTY
Delta G
SciTegic.value.DoubleValue
2.284

@<SCITEGIC>MOL_PROPERTY
G
SciTegic.value.DoubleValue
60.430

@<SCITEGIC>MOL_PROPERTY
E
SciTegic.value.DoubleValue
22.522

@<SCITEGIC>MOL_PROPERTY
-TS
SciTegic.value.DoubleValue
37.908

@<SCITEGIC>MOL_PROPERTY
U+W
SciTegic.value.DoubleValue
-1.622

@<SCITEGIC>MOL_PROPERTY
U
SciTegic.value.DoubleValue
50.350

@<SCITEGIC>MOL_PROPERTY
W
SciTegic.value.DoubleValue
-51.973

@<SCITEGIC>MOL_PROPERTY
W(PB)
SciTegic.value.DoubleValue
-54.438

@<SCITEGIC>MOL_PROPERTY
W(SA)
SciTegic.value.DoubleValue
2.465

@<SCITEGIC>MOL_PROPERTY
Valence
SciTegic.value.DoubleValue
4.001

@<SCITEGIC>MOL_PROPERTY
Coulomb
SciTegic.value.DoubleValue
45.464

@<SCITEGIC>MOL_PROPERTY
VdW
SciTegic.value.DoubleValue
0.885

@<SCITEGIC>MOL_PROPERTY
VdW6
SciTegic.value.DoubleValue
-9.931

@<SCITEGIC>MOL_PROPERTY
VdW12
SciTegic.value.DoubleValue
10.816

@<SCITEGIC>MOL_PROPERTY
Bond
SciTegic.value.DoubleValue
0.283

@<SCITEGIC>MOL_PROPERTY
Angle
SciTegic.value.DoubleValue
1.376

@<SCITEGIC>MOL_PROPERTY
Pdih
SciTegic.value.DoubleValue
2.343

@<SCITEGIC>MOL_PROPERTY
Idih
SciTegic.value.DoubleValue
0.000

@<SCITEGIC>MOL_PROPERTY
Tether
SciTegic.value.DoubleValue
0.000

@<TRIPOS>MOLECULE
guest-3_vm2.mol2 : vm2 ligand conformer 163
          29          28           1
SMALL
USER_CHARGES
 
@<TRIPOS>ATOM
       1    C1      20.250062   19.297969   19.873734 C.3        1 MOL1        -0.2427
       2    H1      19.738370   20.259958   20.001531 H          1 MOL1         0.0958
       3    H2      21.284814   19.409322   20.222877 H          1 MOL1         0.0958
       4    H3      20.279948   19.080102   18.798303 H          1 MOL1         0.0958
       5    C2      19.525713   18.164971   20.635308 C.3        1 MOL1        -0.1412
       6    H4      20.002939   17.207368   20.384345 H          1 MOL1         0.0947
       7    H5      18.486148   18.091187   20.286645 H          1 MOL1         0.0947
       8    C3      19.551121   18.345557   22.172112 C.3        1 MOL1        -0.1437
       9    H6      19.108753   17.453187   22.635739 H          1 MOL1         0.0947
      10    H7      20.594662   18.388134   22.510557 H          1 MOL1         0.0947
      11    C4      18.782522   19.601553   22.654675 C.3        1 MOL1        -0.1437
      12    H8      17.780252   19.602896   22.204684 H          1 MOL1         0.0947
      13    H9      19.284012   20.510665   22.297475 H          1 MOL1         0.0947
      14    C5      18.630311   19.675669   24.193525 C.3        1 MOL1        -0.1437
      15    H10     17.987396   20.532189   24.438947 H          1 MOL1         0.0947
      16    H11     18.101508   18.780773   24.547727 H          1 MOL1         0.0947
      17    C6      19.980607   19.828905   24.937931 C.3        1 MOL1        -0.1437
      18    H12     20.535583   20.673678   24.507257 H          1 MOL1         0.0947
      19    H13     20.604006   18.939959   24.779179 H          1 MOL1         0.0947
      20    C7      19.809530   20.074658   26.457863 C.3        1 MOL1        -0.1477
      21    H14     20.797603   20.209269   26.917627 H          1 MOL1         0.0947
      22    H15     19.268512   21.017466   26.613592 H          1 MOL1         0.0947
      23    C8      19.059023   18.946446   27.194006 C.3        1 MOL1         0.0145
      24    H16     18.056438   18.833685   26.773522 H          1 MOL1         0.0921
      25    H17     18.956729   19.207513   28.250814 H          1 MOL1         0.0921
      26    N1      19.755110   17.602272   27.115846 N.4        1 MOL1        -0.5969
      27    H18     19.855736   17.286498   26.146135 H          1 MOL1         0.3603
      28    H19     19.236028   16.874413   27.619066 H          1 MOL1         0.3603
      29    H20     20.695184   17.637119   27.523560 H          1 MOL1         0.3603
@<TRIPOS>BOND
    1     1     2    1
    2     1     3    1
    3     1     4    1
    4     1     5    1
    5     5     6    1
    6     5     7    1
    7     5     8    1
    8     8     9    1
    9     8    10    1
   10     8    11    1
   11    11    12    1
   12    11    13    1
   13    11    14    1
   14    14    15    1
   15    14    16    1
   16    14    17    1
   17    17    18    1
   18    17    19    1
   19    17    20    1
   20    20    21    1
   21    20    22    1
   22    20    23    1
   23    23    24    1
   24    23    25    1
   25    23    26    1
   26    26    27    1
   27    26    28    1
   28    26    29    1
@<TRIPOS>SUBSTRUCTURE
       1 MOL1            1 RESIDUE      1      MOL     
@<SCITEGIC>MOL_PROPERTY
VM2 Rank
SciTegic.value.IntegerValue
163

@<SCITEGIC>MOL_PROPERTY
Conf_Id
SciTegic.value.IntegerValue
2898

@<SCITEGIC>MOL_PROPERTY
Probability
SciTegic.value.DoubleValue
0.11

@<SCITEGIC>MOL_PROPERTY
Sum Probability
SciTegic.value.DoubleValue
95.40

@<SCITEGIC>MOL_PROPERTY
Delta G
SciTegic.value.DoubleValue
2.292

@<SCITEGIC>MOL_PROPERTY
G
SciTegic.value.DoubleValue
60.438

@<SCITEGIC>MOL_PROPERTY
E
SciTegic.value.DoubleValue
22.718

@<SCITEGIC>MOL_PROPERTY
-TS
SciTegic.value.DoubleValue
37.720

@<SCITEGIC>MOL_PROPERTY
U+W
SciTegic.value.DoubleValue
-1.427

@<SCITEGIC>MOL_PROPERTY
U
SciTegic.value.DoubleValue
50.719

@<SCITEGIC>MOL_PROPERTY
W
SciTegic.value.DoubleValue
-52.145

@<SCITEGIC>MOL_PROPERTY
W(PB)
SciTegic.value.DoubleValue
-54.613

@<SCITEGIC>MOL_PROPERTY
W(SA)
SciTegic.value.DoubleValue
2.468

@<SCITEGIC>MOL_PROPERTY
Valence
SciTegic.value.DoubleValue
3.960

@<SCITEGIC>MOL_PROPERTY
Coulomb
SciTegic.value.DoubleValue
45.809

@<SCITEGIC>MOL_PROPERTY
VdW
SciTegic.value.DoubleValue
0.951

@<SCITEGIC>MOL_PROPERTY
VdW6
SciTegic.value.DoubleValue
-9.643

@<SCITEGIC>MOL_PROPERTY
VdW12
SciTegic.value.DoubleValue
10.593

@<SCITEGIC>MOL_PROPERTY
Bond
SciTegic.value.DoubleValue
0.266

@<SCITEGIC>MOL_PROPERTY
Angle
SciTegic.value.DoubleValue
1.045

@<SCITEGIC>MOL_PROPERTY
Pdih
SciTegic.value.DoubleValue
2.649

@<SCITEGIC>MOL_PROPERTY
Idih
SciTegic.value.DoubleValue
0.000

@<SCITEGIC>MOL_PROPERTY
Tether
SciTegic.value.DoubleValue
0.000

@<TRIPOS>MOLECULE
guest-3_vm2.mol2 : vm2 ligand conformer 164
          29          28           1
SMALL
USER_CHARGES
 
@<TRIPOS>ATOM
       1    C1      20.382702   18.764380   19.563597 C.3        1 MOL1        -0.2427
       2    H1      21.432661   18.534360   19.787030 H          1 MOL1         0.0958
       3    H2      20.028815   18.037336   18.821164 H          1 MOL1         0.0958
       4    H3      20.340890   19.761128   19.105367 H          1 MOL1         0.0958
       5    C2      19.518274   18.703592   20.840753 C.3        1 MOL1        -0.1412
       6    H4      19.552634   17.683257   21.244520 H          1 MOL1         0.0947
       7    H5      18.470405   18.909184   20.581227 H          1 MOL1         0.0947
       8    C3      20.001752   19.717637   21.904380 C.3        1 MOL1        -0.1437
       9    H6      21.030803   19.477502   22.205344 H          1 MOL1         0.0947
      10    H7      20.039298   20.717488   21.450300 H          1 MOL1         0.0947
      11    C4      19.095901   19.784538   23.158591 C.3        1 MOL1        -0.1437
      12    H8      18.066351   20.021017   22.856805 H          1 MOL1         0.0947
      13    H9      19.438142   20.624325   23.776842 H          1 MOL1         0.0947
      14    C5      19.109284   18.484390   24.001967 C.3        1 MOL1        -0.1437
      15    H10     18.764283   17.644704   23.385373 H          1 MOL1         0.0947
      16    H11     20.140009   18.243617   24.293907 H          1 MOL1         0.0947
      17    C6      18.202912   18.553013   25.258513 C.3        1 MOL1        -0.1437
      18    H12     18.216779   17.574662   25.757400 H          1 MOL1         0.0947
      19    H13     17.162554   18.709528   24.941810 H          1 MOL1         0.0947
      20    C7      18.583987   19.652546   26.284567 C.3        1 MOL1        -0.1477
      21    H14     18.395370   20.643501   25.852558 H          1 MOL1         0.0947
      22    H15     17.921278   19.576390   27.156761 H          1 MOL1         0.0947
      23    C8      20.049637   19.586261   26.758204 C.3        1 MOL1         0.0145
      24    H16     20.245444   20.408087   27.452243 H          1 MOL1         0.0921
      25    H17     20.719363   19.697347   25.901434 H          1 MOL1         0.0921
      26    N1      20.399551   18.291642   27.464428 N.4        1 MOL1        -0.5969
      27    H18     19.822671   18.146735   28.299476 H          1 MOL1         0.3603
      28    H19     21.378983   18.275772   27.769056 H          1 MOL1         0.3603
      29    H20     20.259006   17.480429   26.854219 H          1 MOL1         0.3603
@<TRIPOS>BOND
    1     1     2    1
    2     1     3    1
    3     1     4    1
    4     1     5    1
    5     5     6    1
    6     5     7    1
    7     5     8    1
    8     8     9    1
    9     8    10    1
   10     8    11    1
   11    11    12    1
   12    11    13    1
   13    11    14    1
   14    14    15    1
   15    14    16    1
   16    14    17    1
   17    17    18    1
   18    17    19    1
   19    17    20    1
   20    20    21    1
   21    20    22    1
   22    20    23    1
   23    23    24    1
   24    23    25    1
   25    23    26    1
   26    26    27    1
   27    26    28    1
   28    26    29    1
@<TRIPOS>SUBSTRUCTURE
       1 MOL1            1 RESIDUE      1      MOL     
@<SCITEGIC>MOL_PROPERTY
VM2 Rank
SciTegic.value.IntegerValue
164

@<SCITEGIC>MOL_PROPERTY
Conf_Id
SciTegic.value.IntegerValue
2574

@<SCITEGIC>MOL_PROPERTY
Probability
SciTegic.value.DoubleValue
0.11

@<SCITEGIC>MOL_PROPERTY
Sum Probability
SciTegic.value.DoubleValue
95.51

@<SCITEGIC>MOL_PROPERTY
Delta G
SciTegic.value.DoubleValue
2.309

@<SCITEGIC>MOL_PROPERTY
G
SciTegic.value.DoubleValue
60.455

@<SCITEGIC>MOL_PROPERTY
E
SciTegic.value.DoubleValue
22.661

@<SCITEGIC>MOL_PROPERTY
-TS
SciTegic.value.DoubleValue
37.794

@<SCITEGIC>MOL_PROPERTY
U+W
SciTegic.value.DoubleValue
-1.483

@<SCITEGIC>MOL_PROPERTY
U
SciTegic.value.DoubleValue
50.507

@<SCITEGIC>MOL_PROPERTY
W
SciTegic.value.DoubleValue
-51.991

@<SCITEGIC>MOL_PROPERTY
W(PB)
SciTegic.value.DoubleValue
-54.450

@<SCITEGIC>MOL_PROPERTY
W(SA)
SciTegic.value.DoubleValue
2.459

@<SCITEGIC>MOL_PROPERTY
Valence
SciTegic.value.DoubleValue
4.059

@<SCITEGIC>MOL_PROPERTY
Coulomb
SciTegic.value.DoubleValue
45.540

@<SCITEGIC>MOL_PROPERTY
VdW
SciTegic.value.DoubleValue
0.908

@<SCITEGIC>MOL_PROPERTY
VdW6
SciTegic.value.DoubleValue
-9.839

@<SCITEGIC>MOL_PROPERTY
VdW12
SciTegic.value.DoubleValue
10.747

@<SCITEGIC>MOL_PROPERTY
Bond
SciTegic.value.DoubleValue
0.285

@<SCITEGIC>MOL_PROPERTY
Angle
SciTegic.value.DoubleValue
1.295

@<SCITEGIC>MOL_PROPERTY
Pdih
SciTegic.value.DoubleValue
2.479

@<SCITEGIC>MOL_PROPERTY
Idih
SciTegic.value.DoubleValue
0.000

@<SCITEGIC>MOL_PROPERTY
Tether
SciTegic.value.DoubleValue
0.000

@<TRIPOS>MOLECULE
guest-3_vm2.mol2 : vm2 ligand conformer 165
          29          28           1
SMALL
USER_CHARGES
 
@<TRIPOS>ATOM
       1    C1      20.242359   19.523940   19.651568 C.3        1 MOL1        -0.2427
       2    H1      20.796371   18.582229   19.545419 H          1 MOL1         0.0958
       3    H2      20.038633   19.908753   18.643925 H          1 MOL1         0.0958
       4    H3      20.891278   20.250390   20.155898 H          1 MOL1         0.0958
       5    C2      18.921388   19.307562   20.424336 C.3        1 MOL1        -0.1412
       6    H4      18.257493   18.676706   19.816849 H          1 MOL1         0.0947
       7    H5      18.403131   20.268682   20.548310 H          1 MOL1         0.0947
       8    C3      19.115683   18.635283   21.805109 C.3        1 MOL1        -0.1437
       9    H6      18.122811   18.400104   22.208690 H          1 MOL1         0.0947
      10    H7      19.633632   17.675122   21.675508 H          1 MOL1         0.0947
      11    C4      19.892403   19.516804   22.816190 C.3        1 MOL1        -0.1437
      12    H8      19.372431   20.475290   22.949663 H          1 MOL1         0.0947
      13    H9      20.881029   19.756663   22.404329 H          1 MOL1         0.0947
      14    C5      20.102312   18.843224   24.194928 C.3        1 MOL1        -0.1437
      15    H10     20.606309   17.876512   24.058624 H          1 MOL1         0.0947
      16    H11     20.791143   19.470350   24.775862 H          1 MOL1         0.0947
      17    C6      18.789934   18.641710   24.994718 C.3        1 MOL1        -0.1437
      18    H12     18.111600   17.987635   24.432385 H          1 MOL1         0.0947
      19    H13     18.269199   19.602413   25.102633 H          1 MOL1         0.0947
      20    C7      19.018310   18.006228   26.389438 C.3        1 MOL1        -0.1477
      21    H14     18.047299   17.840015   26.874540 H          1 MOL1         0.0947
      22    H15     19.471683   17.013860   26.264882 H          1 MOL1         0.0947
      23    C8      19.911095   18.844158   27.327177 C.3        1 MOL1         0.0145
      24    H16     20.900200   18.972747   26.880425 H          1 MOL1         0.0921
      25    H17     20.034320   18.317265   28.277268 H          1 MOL1         0.0921
      26    N1      19.350517   20.219091   27.631536 N.4        1 MOL1        -0.5969
      27    H18     19.239213   20.777244   26.779235 H          1 MOL1         0.3603
      28    H19     19.961670   20.749003   28.262500 H          1 MOL1         0.3603
      29    H20     18.430564   20.163487   28.080703 H          1 MOL1         0.3603
@<TRIPOS>BOND
    1     1     2    1
    2     1     3    1
    3     1     4    1
    4     1     5    1
    5     5     6    1
    6     5     7    1
    7     5     8    1
    8     8     9    1
    9     8    10    1
   10     8    11    1
   11    11    12    1
   12    11    13    1
   13    11    14    1
   14    14    15    1
   15    14    16    1
   16    14    17    1
   17    17    18    1
   18    17    19    1
   19    17    20    1
   20    20    21    1
   21    20    22    1
   22    20    23    1
   23    23    24    1
   24    23    25    1
   25    23    26    1
   26    26    27    1
   27    26    28    1
   28    26    29    1
@<TRIPOS>SUBSTRUCTURE
       1 MOL1            1 RESIDUE      1      MOL     
@<SCITEGIC>MOL_PROPERTY
VM2 Rank
SciTegic.value.IntegerValue
165

@<SCITEGIC>MOL_PROPERTY
Conf_Id
SciTegic.value.IntegerValue
1274

@<SCITEGIC>MOL_PROPERTY
Probability
SciTegic.value.DoubleValue
0.11

@<SCITEGIC>MOL_PROPERTY
Sum Probability
SciTegic.value.DoubleValue
95.62

@<SCITEGIC>MOL_PROPERTY
Delta G
SciTegic.value.DoubleValue
2.312

@<SCITEGIC>MOL_PROPERTY
G
SciTegic.value.DoubleValue
60.458

@<SCITEGIC>MOL_PROPERTY
E
SciTegic.value.DoubleValue
22.874

@<SCITEGIC>MOL_PROPERTY
-TS
SciTegic.value.DoubleValue
37.584

@<SCITEGIC>MOL_PROPERTY
U+W
SciTegic.value.DoubleValue
-1.270

@<SCITEGIC>MOL_PROPERTY
U
SciTegic.value.DoubleValue
50.585

@<SCITEGIC>MOL_PROPERTY
W
SciTegic.value.DoubleValue
-51.856

@<SCITEGIC>MOL_PROPERTY
W(PB)
SciTegic.value.DoubleValue
-54.327

@<SCITEGIC>MOL_PROPERTY
W(SA)
SciTegic.value.DoubleValue
2.471

@<SCITEGIC>MOL_PROPERTY
Valence
SciTegic.value.DoubleValue
4.139

@<SCITEGIC>MOL_PROPERTY
Coulomb
SciTegic.value.DoubleValue
45.307

@<SCITEGIC>MOL_PROPERTY
VdW
SciTegic.value.DoubleValue
1.139

@<SCITEGIC>MOL_PROPERTY
VdW6
SciTegic.value.DoubleValue
-9.438

@<SCITEGIC>MOL_PROPERTY
VdW12
SciTegic.value.DoubleValue
10.577

@<SCITEGIC>MOL_PROPERTY
Bond
SciTegic.value.DoubleValue
0.283

@<SCITEGIC>MOL_PROPERTY
Angle
SciTegic.value.DoubleValue
1.231

@<SCITEGIC>MOL_PROPERTY
Pdih
SciTegic.value.DoubleValue
2.625

@<SCITEGIC>MOL_PROPERTY
Idih
SciTegic.value.DoubleValue
0.000

@<SCITEGIC>MOL_PROPERTY
Tether
SciTegic.value.DoubleValue
0.000

@<TRIPOS>MOLECULE
guest-3_vm2.mol2 : vm2 ligand conformer 166
          29          28           1
SMALL
USER_CHARGES
 
@<TRIPOS>ATOM
       1    C1      21.069999   18.805970   20.303374 C.3        1 MOL1        -0.2427
       2    H1      21.593813   19.565863   19.709084 H          1 MOL1         0.0958
       3    H2      21.809517   18.312831   20.947680 H          1 MOL1         0.0958
       4    H3      20.665643   18.056328   19.610747 H          1 MOL1         0.0958
       5    C2      19.946071   19.449879   21.142318 C.3        1 MOL1        -0.1412
       6    H4      19.238711   19.960520   20.474139 H          1 MOL1         0.0947
       7    H5      20.382492   20.219685   21.792516 H          1 MOL1         0.0947
       8    C3      19.194792   18.398001   21.991579 C.3        1 MOL1        -0.1437
       9    H6      18.822214   17.604910   21.328798 H          1 MOL1         0.0947
      10    H7      19.894635   17.909545   22.682294 H          1 MOL1         0.0947
      11    C4      17.992927   18.981603   22.778159 C.3        1 MOL1        -0.1437
      12    H8      17.481980   18.164619   23.304519 H          1 MOL1         0.0947
      13    H9      17.257549   19.373476   22.062138 H          1 MOL1         0.0947
      14    C5      18.345153   20.105369   23.790040 C.3        1 MOL1        -0.1437
      15    H10     18.678436   20.995961   23.240879 H          1 MOL1         0.0947
      16    H11     17.426298   20.408773   24.310333 H          1 MOL1         0.0947
      17    C6      19.419673   19.736372   24.845219 C.3        1 MOL1        -0.1437
      18    H12     19.595441   20.619418   25.473465 H          1 MOL1         0.0947
      19    H13     20.375636   19.523516   24.348618 H          1 MOL1         0.0947
      20    C7      19.017930   18.538948   25.742116 C.3        1 MOL1        -0.1477
      21    H14     18.057135   18.742272   26.233248 H          1 MOL1         0.0947
      22    H15     18.872044   17.644728   25.123436 H          1 MOL1         0.0947
      23    C8      20.081869   18.211923   26.807471 C.3        1 MOL1         0.0145
      24    H16     21.044042   18.026925   26.322325 H          1 MOL1         0.0921
      25    H17     19.790341   17.304952   27.344066 H          1 MOL1         0.0921
      26    N1      20.275587   19.309935   27.834724 N.4        1 MOL1        -0.5969
      27    H18     20.586418   20.184717   27.400842 H          1 MOL1         0.3603
      28    H19     20.979647   19.055263   28.536135 H          1 MOL1         0.3603
      29    H20     19.407795   19.514105   28.341190 H          1 MOL1         0.3603
@<TRIPOS>BOND
    1     1     2    1
    2     1     3    1
    3     1     4    1
    4     1     5    1
    5     5     6    1
    6     5     7    1
    7     5     8    1
    8     8     9    1
    9     8    10    1
   10     8    11    1
   11    11    12    1
   12    11    13    1
   13    11    14    1
   14    14    15    1
   15    14    16    1
   16    14    17    1
   17    17    18    1
   18    17    19    1
   19    17    20    1
   20    20    21    1
   21    20    22    1
   22    20    23    1
   23    23    24    1
   24    23    25    1
   25    23    26    1
   26    26    27    1
   27    26    28    1
   28    26    29    1
@<TRIPOS>SUBSTRUCTURE
       1 MOL1            1 RESIDUE      1      MOL     
@<SCITEGIC>MOL_PROPERTY
VM2 Rank
SciTegic.value.IntegerValue
166

@<SCITEGIC>MOL_PROPERTY
Conf_Id
SciTegic.value.IntegerValue
1048

@<SCITEGIC>MOL_PROPERTY
Probability
SciTegic.value.DoubleValue
0.11

@<SCITEGIC>MOL_PROPERTY
Sum Probability
SciTegic.value.DoubleValue
95.73

@<SCITEGIC>MOL_PROPERTY
Delta G
SciTegic.value.DoubleValue
2.320

@<SCITEGIC>MOL_PROPERTY
G
SciTegic.value.DoubleValue
60.466

@<SCITEGIC>MOL_PROPERTY
E
SciTegic.value.DoubleValue
22.390

@<SCITEGIC>MOL_PROPERTY
-TS
SciTegic.value.DoubleValue
38.076

@<SCITEGIC>MOL_PROPERTY
U+W
SciTegic.value.DoubleValue
-1.754

@<SCITEGIC>MOL_PROPERTY
U
SciTegic.value.DoubleValue
50.241

@<SCITEGIC>MOL_PROPERTY
W
SciTegic.value.DoubleValue
-51.996

@<SCITEGIC>MOL_PROPERTY
W(PB)
SciTegic.value.DoubleValue
-54.449

@<SCITEGIC>MOL_PROPERTY
W(SA)
SciTegic.value.DoubleValue
2.453

@<SCITEGIC>MOL_PROPERTY
Valence
SciTegic.value.DoubleValue
4.143

@<SCITEGIC>MOL_PROPERTY
Coulomb
SciTegic.value.DoubleValue
45.288

@<SCITEGIC>MOL_PROPERTY
VdW
SciTegic.value.DoubleValue
0.811

@<SCITEGIC>MOL_PROPERTY
VdW6
SciTegic.value.DoubleValue
-10.141

@<SCITEGIC>MOL_PROPERTY
VdW12
SciTegic.value.DoubleValue
10.952

@<SCITEGIC>MOL_PROPERTY
Bond
SciTegic.value.DoubleValue
0.297

@<SCITEGIC>MOL_PROPERTY
Angle
SciTegic.value.DoubleValue
1.473

@<SCITEGIC>MOL_PROPERTY
Pdih
SciTegic.value.DoubleValue
2.372

@<SCITEGIC>MOL_PROPERTY
Idih
SciTegic.value.DoubleValue
0.000

@<SCITEGIC>MOL_PROPERTY
Tether
SciTegic.value.DoubleValue
0.000

@<TRIPOS>MOLECULE
guest-3_vm2.mol2 : vm2 ligand conformer 167
          29          28           1
SMALL
USER_CHARGES
 
@<TRIPOS>ATOM
       1    C1      21.078298   19.285255   20.815587 C.3        1 MOL1        -0.2427
       2    H1      21.353673   18.392530   21.390747 H          1 MOL1         0.0958
       3    H2      20.775462   18.966443   19.809819 H          1 MOL1         0.0958
       4    H3      21.978493   19.905223   20.715157 H          1 MOL1         0.0958
       5    C2      19.948573   20.079114   21.509379 C.3        1 MOL1        -0.1412
       6    H4      19.783248   21.014854   20.957487 H          1 MOL1         0.0947
       7    H5      20.269107   20.376445   22.516783 H          1 MOL1         0.0947
       8    C3      18.608274   19.304324   21.580792 C.3        1 MOL1        -0.1437
       9    H6      17.846009   19.951811   22.033968 H          1 MOL1         0.0947
      10    H7      18.257535   19.108927   20.558159 H          1 MOL1         0.0947
      11    C4      18.664143   17.956945   22.350110 C.3        1 MOL1        -0.1437
      12    H8      19.292093   17.247996   21.794293 H          1 MOL1         0.0947
      13    H9      17.658209   17.515382   22.357949 H          1 MOL1         0.0947
      14    C5      19.182827   18.050062   23.807991 C.3        1 MOL1        -0.1437
      15    H10     19.192705   17.038610   24.236809 H          1 MOL1         0.0947
      16    H11     20.226842   18.388155   23.805779 H          1 MOL1         0.0947
      17    C6      18.322511   18.971365   24.708854 C.3        1 MOL1        -0.1437
      18    H12     17.270136   18.663456   24.639731 H          1 MOL1         0.0947
      19    H13     18.369786   20.006355   24.345145 H          1 MOL1         0.0947
      20    C7      18.754748   18.937996   26.193288 C.3        1 MOL1        -0.1477
      21    H14     18.053726   19.543956   26.782592 H          1 MOL1         0.0947
      22    H15     18.682231   17.911358   26.576316 H          1 MOL1         0.0947
      23    C8      20.183863   19.470986   26.406327 C.3        1 MOL1         0.0145
      24    H16     20.255427   20.493855   26.026894 H          1 MOL1         0.0921
      25    H17     20.896416   18.849216   25.858272 H          1 MOL1         0.0921
      26    N1      20.600763   19.481953   27.862672 N.4        1 MOL1        -0.5969
      27    H18     19.985577   20.073233   28.431352 H          1 MOL1         0.3603
      28    H19     21.554665   19.839912   27.983353 H          1 MOL1         0.3603
      29    H20     20.579909   18.542328   28.272708 H          1 MOL1         0.3603
@<TRIPOS>BOND
    1     1     2    1
    2     1     3    1
    3     1     4    1
    4     1     5    1
    5     5     6    1
    6     5     7    1
    7     5     8    1
    8     8     9    1
    9     8    10    1
   10     8    11    1
   11    11    12    1
   12    11    13    1
   13    11    14    1
   14    14    15    1
   15    14    16    1
   16    14    17    1
   17    17    18    1
   18    17    19    1
   19    17    20    1
   20    20    21    1
   21    20    22    1
   22    20    23    1
   23    23    24    1
   24    23    25    1
   25    23    26    1
   26    26    27    1
   27    26    28    1
   28    26    29    1
@<TRIPOS>SUBSTRUCTURE
       1 MOL1            1 RESIDUE      1      MOL     
@<SCITEGIC>MOL_PROPERTY
VM2 Rank
SciTegic.value.IntegerValue
167

@<SCITEGIC>MOL_PROPERTY
Conf_Id
SciTegic.value.IntegerValue
994

@<SCITEGIC>MOL_PROPERTY
Probability
SciTegic.value.DoubleValue
0.11

@<SCITEGIC>MOL_PROPERTY
Sum Probability
SciTegic.value.DoubleValue
95.84

@<SCITEGIC>MOL_PROPERTY
Delta G
SciTegic.value.DoubleValue
2.329

@<SCITEGIC>MOL_PROPERTY
G
SciTegic.value.DoubleValue
60.475

@<SCITEGIC>MOL_PROPERTY
E
SciTegic.value.DoubleValue
22.408

@<SCITEGIC>MOL_PROPERTY
-TS
SciTegic.value.DoubleValue
38.067

@<SCITEGIC>MOL_PROPERTY
U+W
SciTegic.value.DoubleValue
-1.736

@<SCITEGIC>MOL_PROPERTY
U
SciTegic.value.DoubleValue
50.365

@<SCITEGIC>MOL_PROPERTY
W
SciTegic.value.DoubleValue
-52.102

@<SCITEGIC>MOL_PROPERTY
W(PB)
SciTegic.value.DoubleValue
-54.540

@<SCITEGIC>MOL_PROPERTY
W(SA)
SciTegic.value.DoubleValue
2.438

@<SCITEGIC>MOL_PROPERTY
Valence
SciTegic.value.DoubleValue
4.264

@<SCITEGIC>MOL_PROPERTY
Coulomb
SciTegic.value.DoubleValue
45.392

@<SCITEGIC>MOL_PROPERTY
VdW
SciTegic.value.DoubleValue
0.709

@<SCITEGIC>MOL_PROPERTY
VdW6
SciTegic.value.DoubleValue
-10.225

@<SCITEGIC>MOL_PROPERTY
VdW12
SciTegic.value.DoubleValue
10.935

@<SCITEGIC>MOL_PROPERTY
Bond
SciTegic.value.DoubleValue
0.291

@<SCITEGIC>MOL_PROPERTY
Angle
SciTegic.value.DoubleValue
1.460

@<SCITEGIC>MOL_PROPERTY
Pdih
SciTegic.value.DoubleValue
2.514

@<SCITEGIC>MOL_PROPERTY
Idih
SciTegic.value.DoubleValue
0.000

@<SCITEGIC>MOL_PROPERTY
Tether
SciTegic.value.DoubleValue
0.000

@<TRIPOS>MOLECULE
guest-3_vm2.mol2 : vm2 ligand conformer 168
          29          28           1
SMALL
USER_CHARGES
 
@<TRIPOS>ATOM
       1    C1      19.387975   18.933685   19.648079 C.3        1 MOL1        -0.2427
       2    H1      20.250389   19.569153   19.408425 H          1 MOL1         0.0958
       3    H2      19.751520   17.915799   19.834958 H          1 MOL1         0.0958
       4    H3      18.742858   18.894943   18.760812 H          1 MOL1         0.0958
       5    C2      18.606908   19.490760   20.859868 C.3        1 MOL1        -0.1412
       6    H4      17.770948   18.819724   21.101867 H          1 MOL1         0.0947
       7    H5      18.156820   20.452541   20.576765 H          1 MOL1         0.0947
       8    C3      19.485823   19.706403   22.115614 C.3        1 MOL1        -0.1437
       9    H6      20.318790   20.379256   21.869951 H          1 MOL1         0.0947
      10    H7      18.878452   20.225467   22.868136 H          1 MOL1         0.0947
      11    C4      20.037255   18.388527   22.716333 C.3        1 MOL1        -0.1437
      12    H8      20.637540   17.866512   21.960300 H          1 MOL1         0.0947
      13    H9      19.205960   17.713826   22.958826 H          1 MOL1         0.0947
      14    C5      20.931552   18.601158   23.965624 C.3        1 MOL1        -0.1437
      15    H10     21.305874   17.623601   24.299442 H          1 MOL1         0.0947
      16    H11     21.819788   19.177212   23.671725 H          1 MOL1         0.0947
      17    C6      20.252848   19.312430   25.165145 C.3        1 MOL1        -0.1437
      18    H12     19.987694   20.342065   24.891208 H          1 MOL1         0.0947
      19    H13     20.994116   19.397593   25.970554 H          1 MOL1         0.0947
      20    C7      18.999503   18.572804   25.696169 C.3        1 MOL1        -0.1477
      21    H14     18.236470   18.524990   24.909222 H          1 MOL1         0.0947
      22    H15     19.254307   17.535867   25.952168 H          1 MOL1         0.0947
      23    C8      18.374623   19.267219   26.921464 C.3        1 MOL1         0.0145
      24    H16     17.444042   18.759765   27.189856 H          1 MOL1         0.0921
      25    H17     18.138039   20.305865   26.675266 H          1 MOL1         0.0921
      26    N1      19.267514   19.265014   28.146704 N.4        1 MOL1        -0.5969
      27    H18     19.507018   18.312479   28.440950 H          1 MOL1         0.3603
      28    H19     18.816844   19.721979   28.947099 H          1 MOL1         0.3603
      29    H20     20.148336   19.759837   27.975141 H          1 MOL1         0.3603
@<TRIPOS>BOND
    1     1     2    1
    2     1     3    1
    3     1     4    1
    4     1     5    1
    5     5     6    1
    6     5     7    1
    7     5     8    1
    8     8     9    1
    9     8    10    1
   10     8    11    1
   11    11    12    1
   12    11    13    1
   13    11    14    1
   14    14    15    1
   15    14    16    1
   16    14    17    1
   17    17    18    1
   18    17    19    1
   19    17    20    1
   20    20    21    1
   21    20    22    1
   22    20    23    1
   23    23    24    1
   24    23    25    1
   25    23    26    1
   26    26    27    1
   27    26    28    1
   28    26    29    1
@<TRIPOS>SUBSTRUCTURE
       1 MOL1            1 RESIDUE      1      MOL     
@<SCITEGIC>MOL_PROPERTY
VM2 Rank
SciTegic.value.IntegerValue
168

@<SCITEGIC>MOL_PROPERTY
Conf_Id
SciTegic.value.IntegerValue
2244

@<SCITEGIC>MOL_PROPERTY
Probability
SciTegic.value.DoubleValue
0.10

@<SCITEGIC>MOL_PROPERTY
Sum Probability
SciTegic.value.DoubleValue
95.94

@<SCITEGIC>MOL_PROPERTY
Delta G
SciTegic.value.DoubleValue
2.343

@<SCITEGIC>MOL_PROPERTY
G
SciTegic.value.DoubleValue
60.490

@<SCITEGIC>MOL_PROPERTY
E
SciTegic.value.DoubleValue
22.684

@<SCITEGIC>MOL_PROPERTY
-TS
SciTegic.value.DoubleValue
37.806

@<SCITEGIC>MOL_PROPERTY
U+W
SciTegic.value.DoubleValue
-1.461

@<SCITEGIC>MOL_PROPERTY
U
SciTegic.value.DoubleValue
50.427

@<SCITEGIC>MOL_PROPERTY
W
SciTegic.value.DoubleValue
-51.888

@<SCITEGIC>MOL_PROPERTY
W(PB)
SciTegic.value.DoubleValue
-54.336

@<SCITEGIC>MOL_PROPERTY
W(SA)
SciTegic.value.DoubleValue
2.448

@<SCITEGIC>MOL_PROPERTY
Valence
SciTegic.value.DoubleValue
4.273

@<SCITEGIC>MOL_PROPERTY
Coulomb
SciTegic.value.DoubleValue
45.070

@<SCITEGIC>MOL_PROPERTY
VdW
SciTegic.value.DoubleValue
1.084

@<SCITEGIC>MOL_PROPERTY
VdW6
SciTegic.value.DoubleValue
-9.708

@<SCITEGIC>MOL_PROPERTY
VdW12
SciTegic.value.DoubleValue
10.793

@<SCITEGIC>MOL_PROPERTY
Bond
SciTegic.value.DoubleValue
0.299

@<SCITEGIC>MOL_PROPERTY
Angle
SciTegic.value.DoubleValue
1.475

@<SCITEGIC>MOL_PROPERTY
Pdih
SciTegic.value.DoubleValue
2.499

@<SCITEGIC>MOL_PROPERTY
Idih
SciTegic.value.DoubleValue
0.000

@<SCITEGIC>MOL_PROPERTY
Tether
SciTegic.value.DoubleValue
0.000

@<TRIPOS>MOLECULE
guest-3_vm2.mol2 : vm2 ligand conformer 169
          29          28           1
SMALL
USER_CHARGES
 
@<TRIPOS>ATOM
       1    C1      20.262820   17.922547   20.347335 C.3        1 MOL1        -0.2427
       2    H1      21.269479   18.289943   20.109434 H          1 MOL1         0.0958
       3    H2      20.319148   17.339537   21.275063 H          1 MOL1         0.0958
       4    H3      19.955945   17.238762   19.545401 H          1 MOL1         0.0958
       5    C2      19.260768   19.092008   20.474621 C.3        1 MOL1        -0.1412
       6    H4      18.267254   18.702587   20.733569 H          1 MOL1         0.0947
       7    H5      19.147994   19.569346   19.491232 H          1 MOL1         0.0947
       8    C3      19.698307   20.170939   21.498031 C.3        1 MOL1        -0.1437
       9    H6      20.627693   20.637343   21.143338 H          1 MOL1         0.0947
      10    H7      18.946484   20.971991   21.510918 H          1 MOL1         0.0947
      11    C4      19.920363   19.665146   22.947175 C.3        1 MOL1        -0.1437
      12    H8      20.258248   20.517114   23.550613 H          1 MOL1         0.0947
      13    H9      20.740522   18.935558   22.967433 H          1 MOL1         0.0947
      14    C5      18.652204   19.047316   23.588983 C.3        1 MOL1        -0.1437
      15    H10     17.832691   19.778753   23.570726 H          1 MOL1         0.0947
      16    H11     18.318410   18.192816   22.986363 H          1 MOL1         0.0947
      17    C6      18.873410   18.550245   25.038705 C.3        1 MOL1        -0.1437
      18    H12     19.690551   17.816604   25.049491 H          1 MOL1         0.0947
      19    H13     17.970958   18.013608   25.362980 H          1 MOL1         0.0947
      20    C7      19.167277   19.689549   26.046454 C.3        1 MOL1        -0.1477
      21    H14     20.124167   20.172887   25.813069 H          1 MOL1         0.0947
      22    H15     18.392838   20.462942   25.957852 H          1 MOL1         0.0947
      23    C8      19.197425   19.194259   27.504996 C.3        1 MOL1         0.0145
      24    H16     18.246748   18.713150   27.750185 H          1 MOL1         0.0921
      25    H17     19.331382   20.047294   28.175752 H          1 MOL1         0.0921
      26    N1      20.311425   18.205991   27.788700 N.4        1 MOL1        -0.5969
      27    H18     20.224966   17.362541   27.213048 H          1 MOL1         0.3603
      28    H19     20.311076   17.902831   28.768831 H          1 MOL1         0.3603
      29    H20     21.234929   18.609219   27.599605 H          1 MOL1         0.3603
@<TRIPOS>BOND
    1     1     2    1
    2     1     3    1
    3     1     4    1
    4     1     5    1
    5     5     6    1
    6     5     7    1
    7     5     8    1
    8     8     9    1
    9     8    10    1
   10     8    11    1
   11    11    12    1
   12    11    13    1
   13    11    14    1
   14    14    15    1
   15    14    16    1
   16    14    17    1
   17    17    18    1
   18    17    19    1
   19    17    20    1
   20    20    21    1
   21    20    22    1
   22    20    23    1
   23    23    24    1
   24    23    25    1
   25    23    26    1
   26    26    27    1
   27    26    28    1
   28    26    29    1
@<TRIPOS>SUBSTRUCTURE
       1 MOL1            1 RESIDUE      1      MOL     
@<SCITEGIC>MOL_PROPERTY
VM2 Rank
SciTegic.value.IntegerValue
169

@<SCITEGIC>MOL_PROPERTY
Conf_Id
SciTegic.value.IntegerValue
1000

@<SCITEGIC>MOL_PROPERTY
Probability
SciTegic.value.DoubleValue
0.10

@<SCITEGIC>MOL_PROPERTY
Sum Probability
SciTegic.value.DoubleValue
96.04

@<SCITEGIC>MOL_PROPERTY
Delta G
SciTegic.value.DoubleValue
2.343

@<SCITEGIC>MOL_PROPERTY
G
SciTegic.value.DoubleValue
60.490

@<SCITEGIC>MOL_PROPERTY
E
SciTegic.value.DoubleValue
22.701

@<SCITEGIC>MOL_PROPERTY
-TS
SciTegic.value.DoubleValue
37.788

@<SCITEGIC>MOL_PROPERTY
U+W
SciTegic.value.DoubleValue
-1.443

@<SCITEGIC>MOL_PROPERTY
U
SciTegic.value.DoubleValue
50.446

@<SCITEGIC>MOL_PROPERTY
W
SciTegic.value.DoubleValue
-51.889

@<SCITEGIC>MOL_PROPERTY
W(PB)
SciTegic.value.DoubleValue
-54.352

@<SCITEGIC>MOL_PROPERTY
W(SA)
SciTegic.value.DoubleValue
2.463

@<SCITEGIC>MOL_PROPERTY
Valence
SciTegic.value.DoubleValue
4.249

@<SCITEGIC>MOL_PROPERTY
Coulomb
SciTegic.value.DoubleValue
45.120

@<SCITEGIC>MOL_PROPERTY
VdW
SciTegic.value.DoubleValue
1.076

@<SCITEGIC>MOL_PROPERTY
VdW6
SciTegic.value.DoubleValue
-9.657

@<SCITEGIC>MOL_PROPERTY
VdW12
SciTegic.value.DoubleValue
10.734

@<SCITEGIC>MOL_PROPERTY
Bond
SciTegic.value.DoubleValue
0.293

@<SCITEGIC>MOL_PROPERTY
Angle
SciTegic.value.DoubleValue
1.397

@<SCITEGIC>MOL_PROPERTY
Pdih
SciTegic.value.DoubleValue
2.559

@<SCITEGIC>MOL_PROPERTY
Idih
SciTegic.value.DoubleValue
0.000

@<SCITEGIC>MOL_PROPERTY
Tether
SciTegic.value.DoubleValue
0.000

@<TRIPOS>MOLECULE
guest-3_vm2.mol2 : vm2 ligand conformer 170
          29          28           1
SMALL
USER_CHARGES
 
@<TRIPOS>ATOM
       1    C1      21.314961   19.224618   20.637481 C.3        1 MOL1        -0.2427
       2    H1      22.094638   19.100050   21.400220 H          1 MOL1         0.0958
       3    H2      21.300628   18.322297   20.012332 H          1 MOL1         0.0958
       4    H3      21.599209   20.071728   19.999825 H          1 MOL1         0.0958
       5    C2      19.937475   19.470829   21.288297 C.3        1 MOL1        -0.1412
       6    H4      19.184204   19.621532   20.502521 H          1 MOL1         0.0947
       7    H5      19.979531   20.400189   21.871642 H          1 MOL1         0.0947
       8    C3      19.516441   18.290612   22.194865 C.3        1 MOL1        -0.1437
       9    H6      19.542672   17.362739   21.607121 H          1 MOL1         0.0947
      10    H7      20.252386   18.158881   22.998771 H          1 MOL1         0.0947
      11    C4      18.095913   18.447673   22.795992 C.3        1 MOL1        -0.1437
      12    H8      17.854536   17.547443   23.376565 H          1 MOL1         0.0947
      13    H9      17.364815   18.472950   21.976313 H          1 MOL1         0.0947
      14    C5      17.886779   19.703575   23.684558 C.3        1 MOL1        -0.1437
      15    H10     17.944483   20.604790   23.059853 H          1 MOL1         0.0947
      16    H11     16.861948   19.686169   24.080111 H          1 MOL1         0.0947
      17    C6      18.878492   19.848069   24.867270 C.3        1 MOL1        -0.1437
      18    H12     18.640816   20.774812   25.407626 H          1 MOL1         0.0947
      19    H13     19.897695   19.975316   24.480899 H          1 MOL1         0.0947
      20    C7      18.827827   18.660534   25.860233 C.3        1 MOL1        -0.1477
      21    H14     17.791152   18.503738   26.186407 H          1 MOL1         0.0947
      22    H15     19.146149   17.733751   25.366331 H          1 MOL1         0.0947
      23    C8      19.702550   18.894238   27.106589 C.3        1 MOL1         0.0145
      24    H16     19.565872   18.065720   27.806861 H          1 MOL1         0.0921
      25    H17     19.394014   19.817055   27.605152 H          1 MOL1         0.0921
      26    N1      21.183561   18.997853   26.799717 N.4        1 MOL1        -0.5969
      27    H18     21.539380   18.147333   26.351302 H          1 MOL1         0.3603
      28    H19     21.738742   19.143679   27.650058 H          1 MOL1         0.3603
      29    H20     21.385907   19.781023   26.170570 H          1 MOL1         0.3603
@<TRIPOS>BOND
    1     1     2    1
    2     1     3    1
    3     1     4    1
    4     1     5    1
    5     5     6    1
    6     5     7    1
    7     5     8    1
    8     8     9    1
    9     8    10    1
   10     8    11    1
   11    11    12    1
   12    11    13    1
   13    11    14    1
   14    14    15    1
   15    14    16    1
   16    14    17    1
   17    17    18    1
   18    17    19    1
   19    17    20    1
   20    20    21    1
   21    20    22    1
   22    20    23    1
   23    23    24    1
   24    23    25    1
   25    23    26    1
   26    26    27    1
   27    26    28    1
   28    26    29    1
@<TRIPOS>SUBSTRUCTURE
       1 MOL1            1 RESIDUE      1      MOL     
@<SCITEGIC>MOL_PROPERTY
VM2 Rank
SciTegic.value.IntegerValue
170

@<SCITEGIC>MOL_PROPERTY
Conf_Id
SciTegic.value.IntegerValue
628

@<SCITEGIC>MOL_PROPERTY
Probability
SciTegic.value.DoubleValue
0.10

@<SCITEGIC>MOL_PROPERTY
Sum Probability
SciTegic.value.DoubleValue
96.15

@<SCITEGIC>MOL_PROPERTY
Delta G
SciTegic.value.DoubleValue
2.356

@<SCITEGIC>MOL_PROPERTY
G
SciTegic.value.DoubleValue
60.502

@<SCITEGIC>MOL_PROPERTY
E
SciTegic.value.DoubleValue
22.412

@<SCITEGIC>MOL_PROPERTY
-TS
SciTegic.value.DoubleValue
38.090

@<SCITEGIC>MOL_PROPERTY
U+W
SciTegic.value.DoubleValue
-1.732

@<SCITEGIC>MOL_PROPERTY
U
SciTegic.value.DoubleValue
50.850

@<SCITEGIC>MOL_PROPERTY
W
SciTegic.value.DoubleValue
-52.582

@<SCITEGIC>MOL_PROPERTY
W(PB)
SciTegic.value.DoubleValue
-55.016

@<SCITEGIC>MOL_PROPERTY
W(SA)
SciTegic.value.DoubleValue
2.433

@<SCITEGIC>MOL_PROPERTY
Valence
SciTegic.value.DoubleValue
4.103

@<SCITEGIC>MOL_PROPERTY
Coulomb
SciTegic.value.DoubleValue
46.056

@<SCITEGIC>MOL_PROPERTY
VdW
SciTegic.value.DoubleValue
0.692

@<SCITEGIC>MOL_PROPERTY
VdW6
SciTegic.value.DoubleValue
-10.267

@<SCITEGIC>MOL_PROPERTY
VdW12
SciTegic.value.DoubleValue
10.959

@<SCITEGIC>MOL_PROPERTY
Bond
SciTegic.value.DoubleValue
0.293

@<SCITEGIC>MOL_PROPERTY
Angle
SciTegic.value.DoubleValue
1.410

@<SCITEGIC>MOL_PROPERTY
Pdih
SciTegic.value.DoubleValue
2.400

@<SCITEGIC>MOL_PROPERTY
Idih
SciTegic.value.DoubleValue
0.000

@<SCITEGIC>MOL_PROPERTY
Tether
SciTegic.value.DoubleValue
0.000

@<TRIPOS>MOLECULE
guest-3_vm2.mol2 : vm2 ligand conformer 171
          29          28           1
SMALL
USER_CHARGES
 
@<TRIPOS>ATOM
       1    C1      20.236911   18.377650   19.901099 C.3        1 MOL1        -0.2427
       2    H1      21.002136   19.068865   19.524468 H          1 MOL1         0.0958
       3    H2      20.744427   17.489424   20.299448 H          1 MOL1         0.0958
       4    H3      19.620905   18.060636   19.049605 H          1 MOL1         0.0958
       5    C2      19.365873   19.050002   20.983200 C.3        1 MOL1        -0.1412
       6    H4      18.589630   18.343533   21.305900 H          1 MOL1         0.0947
       7    H5      18.848002   19.916282   20.548527 H          1 MOL1         0.0947
       8    C3      20.212165   19.502588   22.196064 C.3        1 MOL1        -0.1437
       9    H6      20.701483   18.632048   22.652154 H          1 MOL1         0.0947
      10    H7      21.023120   20.153620   21.841685 H          1 MOL1         0.0947
      11    C4      19.397889   20.275481   23.265414 C.3        1 MOL1        -0.1437
      12    H8      18.995942   21.191566   22.811309 H          1 MOL1         0.0947
      13    H9      20.080818   20.614521   24.055599 H          1 MOL1         0.0947
      14    C5      18.225555   19.483472   23.904330 C.3        1 MOL1        -0.1437
      15    H10     17.734222   20.123081   24.649701 H          1 MOL1         0.0947
      16    H11     17.459400   19.290408   23.141888 H          1 MOL1         0.0947
      17    C6      18.622844   18.136722   24.566222 C.3        1 MOL1        -0.1437
      18    H12     18.972653   17.437356   23.795263 H          1 MOL1         0.0947
      19    H13     17.721501   17.677901   24.995510 H          1 MOL1         0.0947
      20    C7      19.700440   18.251715   25.672586 C.3        1 MOL1        -0.1477
      21    H14     19.899462   17.251198   26.078868 H          1 MOL1         0.0947
      22    H15     20.646239   18.603267   25.241143 H          1 MOL1         0.0947
      23    C8      19.275266   19.186028   26.820229 C.3        1 MOL1         0.0145
      24    H16     18.339782   18.828245   27.258578 H          1 MOL1         0.0921
      25    H17     19.110990   20.194878   26.432783 H          1 MOL1         0.0921
      26    N1      20.307057   19.274342   27.925856 N.4        1 MOL1        -0.5969
      27    H18     20.488028   18.359692   28.352560 H          1 MOL1         0.3603
      28    H19     20.004741   19.901199   28.679671 H          1 MOL1         0.3603
      29    H20     21.205081   19.630649   27.582510 H          1 MOL1         0.3603
@<TRIPOS>BOND
    1     1     2    1
    2     1     3    1
    3     1     4    1
    4     1     5    1
    5     5     6    1
    6     5     7    1
    7     5     8    1
    8     8     9    1
    9     8    10    1
   10     8    11    1
   11    11    12    1
   12    11    13    1
   13    11    14    1
   14    14    15    1
   15    14    16    1
   16    14    17    1
   17    17    18    1
   18    17    19    1
   19    17    20    1
   20    20    21    1
   21    20    22    1
   22    20    23    1
   23    23    24    1
   24    23    25    1
   25    23    26    1
   26    26    27    1
   27    26    28    1
   28    26    29    1
@<TRIPOS>SUBSTRUCTURE
       1 MOL1            1 RESIDUE      1      MOL     
@<SCITEGIC>MOL_PROPERTY
VM2 Rank
SciTegic.value.IntegerValue
171

@<SCITEGIC>MOL_PROPERTY
Conf_Id
SciTegic.value.IntegerValue
492

@<SCITEGIC>MOL_PROPERTY
Probability
SciTegic.value.DoubleValue
0.10

@<SCITEGIC>MOL_PROPERTY
Sum Probability
SciTegic.value.DoubleValue
96.25

@<SCITEGIC>MOL_PROPERTY
Delta G
SciTegic.value.DoubleValue
2.358

@<SCITEGIC>MOL_PROPERTY
G
SciTegic.value.DoubleValue
60.504

@<SCITEGIC>MOL_PROPERTY
E
SciTegic.value.DoubleValue
22.318

@<SCITEGIC>MOL_PROPERTY
-TS
SciTegic.value.DoubleValue
38.186

@<SCITEGIC>MOL_PROPERTY
U+W
SciTegic.value.DoubleValue
-1.827

@<SCITEGIC>MOL_PROPERTY
U
SciTegic.value.DoubleValue
50.384

@<SCITEGIC>MOL_PROPERTY
W
SciTegic.value.DoubleValue
-52.210

@<SCITEGIC>MOL_PROPERTY
W(PB)
SciTegic.value.DoubleValue
-54.659

@<SCITEGIC>MOL_PROPERTY
W(SA)
SciTegic.value.DoubleValue
2.448

@<SCITEGIC>MOL_PROPERTY
Valence
SciTegic.value.DoubleValue
4.249

@<SCITEGIC>MOL_PROPERTY
Coulomb
SciTegic.value.DoubleValue
45.544

@<SCITEGIC>MOL_PROPERTY
VdW
SciTegic.value.DoubleValue
0.592

@<SCITEGIC>MOL_PROPERTY
VdW6
SciTegic.value.DoubleValue
-10.475

@<SCITEGIC>MOL_PROPERTY
VdW12
SciTegic.value.DoubleValue
11.067

@<SCITEGIC>MOL_PROPERTY
Bond
SciTegic.value.DoubleValue
0.300

@<SCITEGIC>MOL_PROPERTY
Angle
SciTegic.value.DoubleValue
1.566

@<SCITEGIC>MOL_PROPERTY
Pdih
SciTegic.value.DoubleValue
2.383

@<SCITEGIC>MOL_PROPERTY
Idih
SciTegic.value.DoubleValue
0.000

@<SCITEGIC>MOL_PROPERTY
Tether
SciTegic.value.DoubleValue
0.000

@<TRIPOS>MOLECULE
guest-3_vm2.mol2 : vm2 ligand conformer 172
          29          28           1
SMALL
USER_CHARGES
 
@<TRIPOS>ATOM
       1    C1      20.844787   17.903996   20.608601 C.3        1 MOL1        -0.2427
       2    H1      21.516729   17.477586   21.364813 H          1 MOL1         0.0958
       3    H2      20.538830   17.093858   19.934016 H          1 MOL1         0.0958
       4    H3      21.412867   18.636096   20.019949 H          1 MOL1         0.0958
       5    C2      19.612504   18.558285   21.268165 C.3        1 MOL1        -0.1412
       6    H4      19.049443   17.789371   21.813603 H          1 MOL1         0.0947
       7    H5      18.944812   18.948673   20.487552 H          1 MOL1         0.0947
       8    C3      20.019125   19.702084   22.226512 C.3        1 MOL1        -0.1437
       9    H6      20.661298   19.307277   23.024619 H          1 MOL1         0.0947
      10    H7      20.634071   20.426960   21.675626 H          1 MOL1         0.0947
      11    C4      18.810537   20.454345   22.840793 C.3        1 MOL1        -0.1437
      12    H8      18.239644   20.929192   22.031089 H          1 MOL1         0.0947
      13    H9      19.184094   21.280712   23.459918 H          1 MOL1         0.0947
      14    C5      17.842278   19.579203   23.681736 C.3        1 MOL1        -0.1437
      15    H10     17.053572   20.224621   24.092129 H          1 MOL1         0.0947
      16    H11     17.326283   18.869985   23.021027 H          1 MOL1         0.0947
      17    C6      18.502747   18.793721   24.843625 C.3        1 MOL1        -0.1437
      18    H12     19.217565   18.066510   24.438110 H          1 MOL1         0.0947
      19    H13     17.725316   18.205148   25.350094 H          1 MOL1         0.0947
      20    C7      19.199915   19.705477   25.883548 C.3        1 MOL1        -0.1477
      21    H14     20.039075   20.241436   25.422301 H          1 MOL1         0.0947
      22    H15     18.491010   20.468854   26.230506 H          1 MOL1         0.0947
      23    C8      19.712750   18.922294   27.106981 C.3        1 MOL1         0.0145
      24    H16     18.883626   18.383021   27.572910 H          1 MOL1         0.0921
      25    H17     20.120512   19.622131   27.841461 H          1 MOL1         0.0921
      26    N1      20.799357   17.918597   26.775038 N.4        1 MOL1        -0.5969
      27    H18     20.470149   17.209535   26.112486 H          1 MOL1         0.3603
      28    H19     21.125616   17.421106   27.610879 H          1 MOL1         0.3603
      29    H20     21.618740   18.370036   26.355656 H          1 MOL1         0.3603
@<TRIPOS>BOND
    1     1     2    1
    2     1     3    1
    3     1     4    1
    4     1     5    1
    5     5     6    1
    6     5     7    1
    7     5     8    1
    8     8     9    1
    9     8    10    1
   10     8    11    1
   11    11    12    1
   12    11    13    1
   13    11    14    1
   14    14    15    1
   15    14    16    1
   16    14    17    1
   17    17    18    1
   18    17    19    1
   19    17    20    1
   20    20    21    1
   21    20    22    1
   22    20    23    1
   23    23    24    1
   24    23    25    1
   25    23    26    1
   26    26    27    1
   27    26    28    1
   28    26    29    1
@<TRIPOS>SUBSTRUCTURE
       1 MOL1            1 RESIDUE      1      MOL     
@<SCITEGIC>MOL_PROPERTY
VM2 Rank
SciTegic.value.IntegerValue
172

@<SCITEGIC>MOL_PROPERTY
Conf_Id
SciTegic.value.IntegerValue
120

@<SCITEGIC>MOL_PROPERTY
Probability
SciTegic.value.DoubleValue
0.10

@<SCITEGIC>MOL_PROPERTY
Sum Probability
SciTegic.value.DoubleValue
96.35

@<SCITEGIC>MOL_PROPERTY
Delta G
SciTegic.value.DoubleValue
2.358

@<SCITEGIC>MOL_PROPERTY
G
SciTegic.value.DoubleValue
60.504

@<SCITEGIC>MOL_PROPERTY
E
SciTegic.value.DoubleValue
22.414

@<SCITEGIC>MOL_PROPERTY
-TS
SciTegic.value.DoubleValue
38.091

@<SCITEGIC>MOL_PROPERTY
U+W
SciTegic.value.DoubleValue
-1.731

@<SCITEGIC>MOL_PROPERTY
U
SciTegic.value.DoubleValue
50.851

@<SCITEGIC>MOL_PROPERTY
W
SciTegic.value.DoubleValue
-52.582

@<SCITEGIC>MOL_PROPERTY
W(PB)
SciTegic.value.DoubleValue
-54.998

@<SCITEGIC>MOL_PROPERTY
W(SA)
SciTegic.value.DoubleValue
2.416

@<SCITEGIC>MOL_PROPERTY
Valence
SciTegic.value.DoubleValue
4.102

@<SCITEGIC>MOL_PROPERTY
Coulomb
SciTegic.value.DoubleValue
46.057

@<SCITEGIC>MOL_PROPERTY
VdW
SciTegic.value.DoubleValue
0.692

@<SCITEGIC>MOL_PROPERTY
VdW6
SciTegic.value.DoubleValue
-10.268

@<SCITEGIC>MOL_PROPERTY
VdW12
SciTegic.value.DoubleValue
10.960

@<SCITEGIC>MOL_PROPERTY
Bond
SciTegic.value.DoubleValue
0.293

@<SCITEGIC>MOL_PROPERTY
Angle
SciTegic.value.DoubleValue
1.409

@<SCITEGIC>MOL_PROPERTY
Pdih
SciTegic.value.DoubleValue
2.400

@<SCITEGIC>MOL_PROPERTY
Idih
SciTegic.value.DoubleValue
0.000

@<SCITEGIC>MOL_PROPERTY
Tether
SciTegic.value.DoubleValue
0.000

@<TRIPOS>MOLECULE
guest-3_vm2.mol2 : vm2 ligand conformer 173
          29          28           1
SMALL
USER_CHARGES
 
@<TRIPOS>ATOM
       1    C1      21.411820   19.230044   21.706978 C.3        1 MOL1        -0.2427
       2    H1      22.176008   19.948779   21.384103 H          1 MOL1         0.0958
       3    H2      21.395154   19.236247   22.803780 H          1 MOL1         0.0958
       4    H3      21.725618   18.232643   21.372847 H          1 MOL1         0.0958
       5    C2      20.033159   19.604506   21.117450 C.3        1 MOL1        -0.1412
       6    H4      20.129582   19.702727   20.027195 H          1 MOL1         0.0947
       7    H5      19.731065   20.595288   21.482259 H          1 MOL1         0.0947
       8    C3      18.927773   18.561479   21.422366 C.3        1 MOL1        -0.1437
       9    H6      17.992316   18.887356   20.947187 H          1 MOL1         0.0947
      10    H7      19.194383   17.610785   20.940537 H          1 MOL1         0.0947
      11    C4      18.664698   18.299071   22.927425 C.3        1 MOL1        -0.1437
      12    H8      19.563141   17.866261   23.384728 H          1 MOL1         0.0947
      13    H9      17.880675   17.534507   23.014718 H          1 MOL1         0.0947
      14    C5      18.223670   19.564395   23.705079 C.3        1 MOL1        -0.1437
      15    H10     19.030653   20.308054   23.704093 H          1 MOL1         0.0947
      16    H11     17.379371   20.030859   23.179191 H          1 MOL1         0.0947
      17    C6      17.791170   19.271285   25.164775 C.3        1 MOL1        -0.1437
      18    H12     16.912139   18.612205   25.155263 H          1 MOL1         0.0947
      19    H13     17.459778   20.210371   25.629177 H          1 MOL1         0.0947
      20    C7      18.889078   18.633418   26.052081 C.3        1 MOL1        -0.1477
      21    H14     18.490817   18.499065   27.066542 H          1 MOL1         0.0947
      22    H15     19.134018   17.629370   25.682902 H          1 MOL1         0.0947
      23    C8      20.168892   19.487007   26.122066 C.3        1 MOL1         0.0145
      24    H16     19.927046   20.482153   26.504845 H          1 MOL1         0.0921
      25    H17     20.594317   19.596306   25.121144 H          1 MOL1         0.0921
      26    N1      21.233741   18.886795   27.016780 N.4        1 MOL1        -0.5969
      27    H18     20.905502   18.782315   27.982580 H          1 MOL1         0.3603
      28    H19     22.077093   19.470085   27.049413 H          1 MOL1         0.3603
      29    H20     21.524394   17.957873   26.694481 H          1 MOL1         0.3603
@<TRIPOS>BOND
    1     1     2    1
    2     1     3    1
    3     1     4    1
    4     1     5    1
    5     5     6    1
    6     5     7    1
    7     5     8    1
    8     8     9    1
    9     8    10    1
   10     8    11    1
   11    11    12    1
   12    11    13    1
   13    11    14    1
   14    14    15    1
   15    14    16    1
   16    14    17    1
   17    17    18    1
   18    17    19    1
   19    17    20    1
   20    20    21    1
   21    20    22    1
   22    20    23    1
   23    23    24    1
   24    23    25    1
   25    23    26    1
   26    26    27    1
   27    26    28    1
   28    26    29    1
@<TRIPOS>SUBSTRUCTURE
       1 MOL1            1 RESIDUE      1      MOL     
@<SCITEGIC>MOL_PROPERTY
VM2 Rank
SciTegic.value.IntegerValue
173

@<SCITEGIC>MOL_PROPERTY
Conf_Id
SciTegic.value.IntegerValue
1995

@<SCITEGIC>MOL_PROPERTY
Probability
SciTegic.value.DoubleValue
0.10

@<SCITEGIC>MOL_PROPERTY
Sum Probability
SciTegic.value.DoubleValue
96.45

@<SCITEGIC>MOL_PROPERTY
Delta G
SciTegic.value.DoubleValue
2.366

@<SCITEGIC>MOL_PROPERTY
G
SciTegic.value.DoubleValue
60.512

@<SCITEGIC>MOL_PROPERTY
E
SciTegic.value.DoubleValue
22.462

@<SCITEGIC>MOL_PROPERTY
-TS
SciTegic.value.DoubleValue
38.051

@<SCITEGIC>MOL_PROPERTY
U+W
SciTegic.value.DoubleValue
-1.683

@<SCITEGIC>MOL_PROPERTY
U
SciTegic.value.DoubleValue
50.969

@<SCITEGIC>MOL_PROPERTY
W
SciTegic.value.DoubleValue
-52.651

@<SCITEGIC>MOL_PROPERTY
W(PB)
SciTegic.value.DoubleValue
-55.059

@<SCITEGIC>MOL_PROPERTY
W(SA)
SciTegic.value.DoubleValue
2.407

@<SCITEGIC>MOL_PROPERTY
Valence
SciTegic.value.DoubleValue
4.229

@<SCITEGIC>MOL_PROPERTY
Coulomb
SciTegic.value.DoubleValue
46.141

@<SCITEGIC>MOL_PROPERTY
VdW
SciTegic.value.DoubleValue
0.598

@<SCITEGIC>MOL_PROPERTY
VdW6
SciTegic.value.DoubleValue
-10.517

@<SCITEGIC>MOL_PROPERTY
VdW12
SciTegic.value.DoubleValue
11.115

@<SCITEGIC>MOL_PROPERTY
Bond
SciTegic.value.DoubleValue
0.292

@<SCITEGIC>MOL_PROPERTY
Angle
SciTegic.value.DoubleValue
1.459

@<SCITEGIC>MOL_PROPERTY
Pdih
SciTegic.value.DoubleValue
2.478

@<SCITEGIC>MOL_PROPERTY
Idih
SciTegic.value.DoubleValue
0.000

@<SCITEGIC>MOL_PROPERTY
Tether
SciTegic.value.DoubleValue
0.000

@<TRIPOS>MOLECULE
guest-3_vm2.mol2 : vm2 ligand conformer 174
          29          28           1
SMALL
USER_CHARGES
 
@<TRIPOS>ATOM
       1    C1      19.790776   20.288706   20.206046 C.3        1 MOL1        -0.2427
       2    H1      20.521158   20.685527   19.489173 H          1 MOL1         0.0958
       3    H2      18.790279   20.417449   19.773183 H          1 MOL1         0.0958
       4    H3      19.854235   20.900024   21.114903 H          1 MOL1         0.0958
       5    C2      20.079053   18.800211   20.504755 C.3        1 MOL1        -0.1412
       6    H4      21.074935   18.698601   20.956037 H          1 MOL1         0.0947
       7    H5      20.124190   18.251297   19.553817 H          1 MOL1         0.0947
       8    C3      19.009597   18.133536   21.407397 C.3        1 MOL1        -0.1437
       9    H6      18.049783   18.129417   20.872752 H          1 MOL1         0.0947
      10    H7      19.276971   17.077759   21.552090 H          1 MOL1         0.0947
      11    C4      18.800218   18.794831   22.794540 C.3        1 MOL1        -0.1437
      12    H8      17.997760   18.249142   23.306491 H          1 MOL1         0.0947
      13    H9      18.434703   19.822326   22.667912 H          1 MOL1         0.0947
      14    C5      20.073021   18.795756   23.679001 C.3        1 MOL1        -0.1437
      15    H10     20.435849   17.767054   23.809673 H          1 MOL1         0.0947
      16    H11     20.872587   19.343050   23.163369 H          1 MOL1         0.0947
      17    C6      19.865082   19.453790   25.065424 C.3        1 MOL1        -0.1437
      18    H12     19.486042   20.476755   24.934032 H          1 MOL1         0.0947
      19    H13     20.847052   19.548463   25.547384 H          1 MOL1         0.0947
      20    C7      18.913531   18.658677   25.994569 C.3        1 MOL1        -0.1477
      21    H14     17.915586   18.598652   25.543504 H          1 MOL1         0.0947
      22    H15     19.271469   17.626598   26.106151 H          1 MOL1         0.0947
      23    C8      18.766072   19.304509   27.385824 C.3        1 MOL1         0.0145
      24    H16     18.012459   18.758911   27.960214 H          1 MOL1         0.0921
      25    H17     18.429466   20.339111   27.277744 H          1 MOL1         0.0921
      26    N1      20.046650   19.307984   28.197445 N.4        1 MOL1        -0.5969
      27    H18     20.789928   19.837478   27.731260 H          1 MOL1         0.3603
      28    H19     20.401589   18.358551   28.351992 H          1 MOL1         0.3603
      29    H20     19.910303   19.731520   29.121896 H          1 MOL1         0.3603
@<TRIPOS>BOND
    1     1     2    1
    2     1     3    1
    3     1     4    1
    4     1     5    1
    5     5     6    1
    6     5     7    1
    7     5     8    1
    8     8     9    1
    9     8    10    1
   10     8    11    1
   11    11    12    1
   12    11    13    1
   13    11    14    1
   14    14    15    1
   15    14    16    1
   16    14    17    1
   17    17    18    1
   18    17    19    1
   19    17    20    1
   20    20    21    1
   21    20    22    1
   22    20    23    1
   23    23    24    1
   24    23    25    1
   25    23    26    1
   26    26    27    1
   27    26    28    1
   28    26    29    1
@<TRIPOS>SUBSTRUCTURE
       1 MOL1            1 RESIDUE      1      MOL     
@<SCITEGIC>MOL_PROPERTY
VM2 Rank
SciTegic.value.IntegerValue
174

@<SCITEGIC>MOL_PROPERTY
Conf_Id
SciTegic.value.IntegerValue
1352

@<SCITEGIC>MOL_PROPERTY
Probability
SciTegic.value.DoubleValue
0.10

@<SCITEGIC>MOL_PROPERTY
Sum Probability
SciTegic.value.DoubleValue
96.55

@<SCITEGIC>MOL_PROPERTY
Delta G
SciTegic.value.DoubleValue
2.369

@<SCITEGIC>MOL_PROPERTY
G
SciTegic.value.DoubleValue
60.515

@<SCITEGIC>MOL_PROPERTY
E
SciTegic.value.DoubleValue
22.770

@<SCITEGIC>MOL_PROPERTY
-TS
SciTegic.value.DoubleValue
37.745

@<SCITEGIC>MOL_PROPERTY
U+W
SciTegic.value.DoubleValue
-1.374

@<SCITEGIC>MOL_PROPERTY
U
SciTegic.value.DoubleValue
50.320

@<SCITEGIC>MOL_PROPERTY
W
SciTegic.value.DoubleValue
-51.694

@<SCITEGIC>MOL_PROPERTY
W(PB)
SciTegic.value.DoubleValue
-54.161

@<SCITEGIC>MOL_PROPERTY
W(SA)
SciTegic.value.DoubleValue
2.467

@<SCITEGIC>MOL_PROPERTY
Valence
SciTegic.value.DoubleValue
4.288

@<SCITEGIC>MOL_PROPERTY
Coulomb
SciTegic.value.DoubleValue
44.897

@<SCITEGIC>MOL_PROPERTY
VdW
SciTegic.value.DoubleValue
1.135

@<SCITEGIC>MOL_PROPERTY
VdW6
SciTegic.value.DoubleValue
-9.608

@<SCITEGIC>MOL_PROPERTY
VdW12
SciTegic.value.DoubleValue
10.743

@<SCITEGIC>MOL_PROPERTY
Bond
SciTegic.value.DoubleValue
0.299

@<SCITEGIC>MOL_PROPERTY
Angle
SciTegic.value.DoubleValue
1.449

@<SCITEGIC>MOL_PROPERTY
Pdih
SciTegic.value.DoubleValue
2.540

@<SCITEGIC>MOL_PROPERTY
Idih
SciTegic.value.DoubleValue
0.000

@<SCITEGIC>MOL_PROPERTY
Tether
SciTegic.value.DoubleValue
0.000

@<TRIPOS>MOLECULE
guest-3_vm2.mol2 : vm2 ligand conformer 175
          29          28           1
SMALL
USER_CHARGES
 
@<TRIPOS>ATOM
       1    C1      20.409862   19.102901   19.789282 C.3        1 MOL1        -0.2427
       2    H1      20.252014   20.181203   19.913960 H          1 MOL1         0.0958
       3    H2      21.442767   18.869956   20.078861 H          1 MOL1         0.0958
       4    H3      20.301639   18.875931   18.720777 H          1 MOL1         0.0958
       5    C2      19.400295   18.279765   20.621222 C.3        1 MOL1        -0.1412
       6    H4      19.514864   17.217583   20.363519 H          1 MOL1         0.0947
       7    H5      18.374957   18.555742   20.337966 H          1 MOL1         0.0947
       8    C3      19.582597   18.440561   22.149936 C.3        1 MOL1        -0.1437
       9    H6      18.919870   17.720833   22.646992 H          1 MOL1         0.0947
      10    H7      20.608375   18.162156   22.427775 H          1 MOL1         0.0947
      11    C4      19.271513   19.870428   22.660806 C.3        1 MOL1        -0.1437
      12    H8      18.245254   20.148453   22.384335 H          1 MOL1         0.0947
      13    H9      19.932116   20.588896   22.158839 H          1 MOL1         0.0947
      14    C5      19.460422   20.035433   24.188808 C.3        1 MOL1        -0.1437
      15    H10     20.488790   19.759232   24.457428 H          1 MOL1         0.0947
      16    H11     19.351220   21.099863   24.438405 H          1 MOL1         0.0947
      17    C6      18.448748   19.216831   25.030186 C.3        1 MOL1        -0.1437
      18    H12     18.605401   18.142302   24.873774 H          1 MOL1         0.0947
      19    H13     17.430131   19.432957   24.679758 H          1 MOL1         0.0947
      20    C7      18.526442   19.532830   26.544799 C.3        1 MOL1        -0.1477
      21    H14     18.271502   20.588381   26.708086 H          1 MOL1         0.0947
      22    H15     17.764782   18.948140   27.077535 H          1 MOL1         0.0947
      23    C8      19.907423   19.254925   27.172260 C.3        1 MOL1         0.0145
      24    H16     19.887028   19.527841   28.230827 H          1 MOL1         0.0921
      25    H17     20.667470   19.865960   26.678626 H          1 MOL1         0.0921
      26    N1      20.336697   17.804325   27.077701 N.4        1 MOL1        -0.5969
      27    H18     19.674229   17.180611   27.550248 H          1 MOL1         0.3603
      28    H19     21.254804   17.649673   27.508532 H          1 MOL1         0.3603
      29    H20     20.403812   17.494568   26.103150 H          1 MOL1         0.3603
@<TRIPOS>BOND
    1     1     2    1
    2     1     3    1
    3     1     4    1
    4     1     5    1
    5     5     6    1
    6     5     7    1
    7     5     8    1
    8     8     9    1
    9     8    10    1
   10     8    11    1
   11    11    12    1
   12    11    13    1
   13    11    14    1
   14    14    15    1
   15    14    16    1
   16    14    17    1
   17    17    18    1
   18    17    19    1
   19    17    20    1
   20    20    21    1
   21    20    22    1
   22    20    23    1
   23    23    24    1
   24    23    25    1
   25    23    26    1
   26    26    27    1
   27    26    28    1
   28    26    29    1
@<TRIPOS>SUBSTRUCTURE
       1 MOL1            1 RESIDUE      1      MOL     
@<SCITEGIC>MOL_PROPERTY
VM2 Rank
SciTegic.value.IntegerValue
175

@<SCITEGIC>MOL_PROPERTY
Conf_Id
SciTegic.value.IntegerValue
703

@<SCITEGIC>MOL_PROPERTY
Probability
SciTegic.value.DoubleValue
0.10

@<SCITEGIC>MOL_PROPERTY
Sum Probability
SciTegic.value.DoubleValue
96.64

@<SCITEGIC>MOL_PROPERTY
Delta G
SciTegic.value.DoubleValue
2.389

@<SCITEGIC>MOL_PROPERTY
G
SciTegic.value.DoubleValue
60.535

@<SCITEGIC>MOL_PROPERTY
E
SciTegic.value.DoubleValue
22.891

@<SCITEGIC>MOL_PROPERTY
-TS
SciTegic.value.DoubleValue
37.644

@<SCITEGIC>MOL_PROPERTY
U+W
SciTegic.value.DoubleValue
-1.254

@<SCITEGIC>MOL_PROPERTY
U
SciTegic.value.DoubleValue
50.887

@<SCITEGIC>MOL_PROPERTY
W
SciTegic.value.DoubleValue
-52.141

@<SCITEGIC>MOL_PROPERTY
W(PB)
SciTegic.value.DoubleValue
-54.601

@<SCITEGIC>MOL_PROPERTY
W(SA)
SciTegic.value.DoubleValue
2.460

@<SCITEGIC>MOL_PROPERTY
Valence
SciTegic.value.DoubleValue
4.062

@<SCITEGIC>MOL_PROPERTY
Coulomb
SciTegic.value.DoubleValue
45.799

@<SCITEGIC>MOL_PROPERTY
VdW
SciTegic.value.DoubleValue
1.026

@<SCITEGIC>MOL_PROPERTY
VdW6
SciTegic.value.DoubleValue
-9.553

@<SCITEGIC>MOL_PROPERTY
VdW12
SciTegic.value.DoubleValue
10.580

@<SCITEGIC>MOL_PROPERTY
Bond
SciTegic.value.DoubleValue
0.275

@<SCITEGIC>MOL_PROPERTY
Angle
SciTegic.value.DoubleValue
1.140

@<SCITEGIC>MOL_PROPERTY
Pdih
SciTegic.value.DoubleValue
2.648

@<SCITEGIC>MOL_PROPERTY
Idih
SciTegic.value.DoubleValue
0.000

@<SCITEGIC>MOL_PROPERTY
Tether
SciTegic.value.DoubleValue
0.000

@<TRIPOS>MOLECULE
guest-3_vm2.mol2 : vm2 ligand conformer 176
          29          28           1
SMALL
USER_CHARGES
 
@<TRIPOS>ATOM
       1    C1      20.620471   18.000006   20.786531 C.3        1 MOL1        -0.2427
       2    H1      21.389873   18.494192   21.392664 H          1 MOL1         0.0958
       3    H2      20.927778   16.955315   20.648764 H          1 MOL1         0.0958
       4    H3      20.601332   18.478111   19.798619 H          1 MOL1         0.0958
       5    C2      19.233640   18.071724   21.464318 C.3        1 MOL1        -0.1412
       6    H4      19.280043   17.599000   22.454464 H          1 MOL1         0.0947
       7    H5      18.522023   17.473779   20.878154 H          1 MOL1         0.0947
       8    C3      18.683492   19.515487   21.585501 C.3        1 MOL1        -0.1437
       9    H6      18.549526   19.929007   20.576526 H          1 MOL1         0.0947
      10    H7      17.677277   19.477894   22.023421 H          1 MOL1         0.0947
      11    C4      19.567306   20.492572   22.406828 C.3        1 MOL1        -0.1437
      12    H8      19.066683   21.469685   22.446416 H          1 MOL1         0.0947
      13    H9      20.509756   20.666606   21.870768 H          1 MOL1         0.0947
      14    C5      19.889793   20.034872   23.852384 C.3        1 MOL1        -0.1437
      15    H10     20.485229   19.113561   23.821995 H          1 MOL1         0.0947
      16    H11     20.530500   20.794519   24.320840 H          1 MOL1         0.0947
      17    C6      18.628194   19.829594   24.728013 C.3        1 MOL1        -0.1437
      18    H12     18.016085   19.012912   24.322949 H          1 MOL1         0.0947
      19    H13     18.008123   20.735582   24.685908 H          1 MOL1         0.0947
      20    C7      18.963187   19.523609   26.206402 C.3        1 MOL1        -0.1477
      21    H14     19.550005   20.349105   26.630849 H          1 MOL1         0.0947
      22    H15     18.028667   19.473923   26.780946 H          1 MOL1         0.0947
      23    C8      19.731233   18.199808   26.378113 C.3        1 MOL1         0.0145
      24    H16     20.684105   18.252827   25.845273 H          1 MOL1         0.0921
      25    H17     19.146024   17.377680   25.957411 H          1 MOL1         0.0921
      26    N1      20.026683   17.870330   27.826910 N.4        1 MOL1        -0.5969
      27    H18     20.598179   18.594769   28.274170 H          1 MOL1         0.3603
      28    H19     20.538249   16.985871   27.919964 H          1 MOL1         0.3603
      29    H20     19.168243   17.778617   28.380203 H          1 MOL1         0.3603
@<TRIPOS>BOND
    1     1     2    1
    2     1     3    1
    3     1     4    1
    4     1     5    1
    5     5     6    1
    6     5     7    1
    7     5     8    1
    8     8     9    1
    9     8    10    1
   10     8    11    1
   11    11    12    1
   12    11    13    1
   13    11    14    1
   14    14    15    1
   15    14    16    1
   16    14    17    1
   17    17    18    1
   18    17    19    1
   19    17    20    1
   20    20    21    1
   21    20    22    1
   22    20    23    1
   23    23    24    1
   24    23    25    1
   25    23    26    1
   26    26    27    1
   27    26    28    1
   28    26    29    1
@<TRIPOS>SUBSTRUCTURE
       1 MOL1            1 RESIDUE      1      MOL     
@<SCITEGIC>MOL_PROPERTY
VM2 Rank
SciTegic.value.IntegerValue
176

@<SCITEGIC>MOL_PROPERTY
Conf_Id
SciTegic.value.IntegerValue
976

@<SCITEGIC>MOL_PROPERTY
Probability
SciTegic.value.DoubleValue
0.09

@<SCITEGIC>MOL_PROPERTY
Sum Probability
SciTegic.value.DoubleValue
96.74

@<SCITEGIC>MOL_PROPERTY
Delta G
SciTegic.value.DoubleValue
2.399

@<SCITEGIC>MOL_PROPERTY
G
SciTegic.value.DoubleValue
60.545

@<SCITEGIC>MOL_PROPERTY
E
SciTegic.value.DoubleValue
22.479

@<SCITEGIC>MOL_PROPERTY
-TS
SciTegic.value.DoubleValue
38.066

@<SCITEGIC>MOL_PROPERTY
U+W
SciTegic.value.DoubleValue
-1.666

@<SCITEGIC>MOL_PROPERTY
U
SciTegic.value.DoubleValue
50.365

@<SCITEGIC>MOL_PROPERTY
W
SciTegic.value.DoubleValue
-52.031

@<SCITEGIC>MOL_PROPERTY
W(PB)
SciTegic.value.DoubleValue
-54.487

@<SCITEGIC>MOL_PROPERTY
W(SA)
SciTegic.value.DoubleValue
2.456

@<SCITEGIC>MOL_PROPERTY
Valence
SciTegic.value.DoubleValue
4.264

@<SCITEGIC>MOL_PROPERTY
Coulomb
SciTegic.value.DoubleValue
45.392

@<SCITEGIC>MOL_PROPERTY
VdW
SciTegic.value.DoubleValue
0.709

@<SCITEGIC>MOL_PROPERTY
VdW6
SciTegic.value.DoubleValue
-10.225

@<SCITEGIC>MOL_PROPERTY
VdW12
SciTegic.value.DoubleValue
10.934

@<SCITEGIC>MOL_PROPERTY
Bond
SciTegic.value.DoubleValue
0.291

@<SCITEGIC>MOL_PROPERTY
Angle
SciTegic.value.DoubleValue
1.460

@<SCITEGIC>MOL_PROPERTY
Pdih
SciTegic.value.DoubleValue
2.514

@<SCITEGIC>MOL_PROPERTY
Idih
SciTegic.value.DoubleValue
0.000

@<SCITEGIC>MOL_PROPERTY
Tether
SciTegic.value.DoubleValue
0.000

@<TRIPOS>MOLECULE
guest-3_vm2.mol2 : vm2 ligand conformer 177
          29          28           1
SMALL
USER_CHARGES
 
@<TRIPOS>ATOM
       1    C1      18.996065   18.061381   20.156307 C.3        1 MOL1        -0.2427
       2    H1      18.645714   17.512373   21.039258 H          1 MOL1         0.0958
       3    H2      18.145977   18.611907   19.732970 H          1 MOL1         0.0958
       4    H3      19.320647   17.320835   19.413967 H          1 MOL1         0.0958
       5    C2      20.156752   19.018439   20.509569 C.3        1 MOL1        -0.1412
       6    H4      20.552311   19.452141   19.580558 H          1 MOL1         0.0947
       7    H5      20.985840   18.449117   20.950301 H          1 MOL1         0.0947
       8    C3      19.737716   20.174851   21.453005 C.3        1 MOL1        -0.1437
       9    H6      20.610602   20.816615   21.635488 H          1 MOL1         0.0947
      10    H7      19.004546   20.806375   20.932671 H          1 MOL1         0.0947
      11    C4      19.137861   19.740834   22.815766 C.3        1 MOL1        -0.1437
      12    H8      18.206736   19.182114   22.653850 H          1 MOL1         0.0947
      13    H9      18.854288   20.650243   23.360167 H          1 MOL1         0.0947
      14    C5      20.110658   18.900243   23.681430 C.3        1 MOL1        -0.1437
      15    H10     20.391377   17.991748   23.133212 H          1 MOL1         0.0947
      16    H11     21.040231   19.461639   23.847785 H          1 MOL1         0.0947
      17    C6      19.513843   18.467445   25.043384 C.3        1 MOL1        -0.1437
      18    H12     20.208034   17.754542   25.507477 H          1 MOL1         0.0947
      19    H13     18.575574   17.920388   24.876738 H          1 MOL1         0.0947
      20    C7      19.265602   19.647395   26.016549 C.3        1 MOL1        -0.1477
      21    H14     20.193522   20.215710   26.163984 H          1 MOL1         0.0947
      22    H15     18.536593   20.342268   25.582207 H          1 MOL1         0.0947
      23    C8      18.723401   19.185584   27.382998 C.3        1 MOL1         0.0145
      24    H16     17.810470   18.601546   27.238635 H          1 MOL1         0.0921
      25    H17     18.475757   20.061357   27.988988 H          1 MOL1         0.0921
      26    N1      19.702102   18.341830   28.175992 N.4        1 MOL1        -0.5969
      27    H18     19.950459   17.480827   27.678854 H          1 MOL1         0.3603
      28    H19     19.315578   18.063455   29.084667 H          1 MOL1         0.3603
      29    H20     20.574723   18.846564   28.363248 H          1 MOL1         0.3603
@<TRIPOS>BOND
    1     1     2    1
    2     1     3    1
    3     1     4    1
    4     1     5    1
    5     5     6    1
    6     5     7    1
    7     5     8    1
    8     8     9    1
    9     8    10    1
   10     8    11    1
   11    11    12    1
   12    11    13    1
   13    11    14    1
   14    14    15    1
   15    14    16    1
   16    14    17    1
   17    17    18    1
   18    17    19    1
   19    17    20    1
   20    20    21    1
   21    20    22    1
   22    20    23    1
   23    23    24    1
   24    23    25    1
   25    23    26    1
   26    26    27    1
   27    26    28    1
   28    26    29    1
@<TRIPOS>SUBSTRUCTURE
       1 MOL1            1 RESIDUE      1      MOL     
@<SCITEGIC>MOL_PROPERTY
VM2 Rank
SciTegic.value.IntegerValue
177

@<SCITEGIC>MOL_PROPERTY
Conf_Id
SciTegic.value.IntegerValue
535

@<SCITEGIC>MOL_PROPERTY
Probability
SciTegic.value.DoubleValue
0.09

@<SCITEGIC>MOL_PROPERTY
Sum Probability
SciTegic.value.DoubleValue
96.83

@<SCITEGIC>MOL_PROPERTY
Delta G
SciTegic.value.DoubleValue
2.401

@<SCITEGIC>MOL_PROPERTY
G
SciTegic.value.DoubleValue
60.548

@<SCITEGIC>MOL_PROPERTY
E
SciTegic.value.DoubleValue
22.804

@<SCITEGIC>MOL_PROPERTY
-TS
SciTegic.value.DoubleValue
37.744

@<SCITEGIC>MOL_PROPERTY
U+W
SciTegic.value.DoubleValue
-1.341

@<SCITEGIC>MOL_PROPERTY
U
SciTegic.value.DoubleValue
50.320

@<SCITEGIC>MOL_PROPERTY
W
SciTegic.value.DoubleValue
-51.661

@<SCITEGIC>MOL_PROPERTY
W(PB)
SciTegic.value.DoubleValue
-54.113

@<SCITEGIC>MOL_PROPERTY
W(SA)
SciTegic.value.DoubleValue
2.453

@<SCITEGIC>MOL_PROPERTY
Valence
SciTegic.value.DoubleValue
4.288

@<SCITEGIC>MOL_PROPERTY
Coulomb
SciTegic.value.DoubleValue
44.897

@<SCITEGIC>MOL_PROPERTY
VdW
SciTegic.value.DoubleValue
1.135

@<SCITEGIC>MOL_PROPERTY
VdW6
SciTegic.value.DoubleValue
-9.608

@<SCITEGIC>MOL_PROPERTY
VdW12
SciTegic.value.DoubleValue
10.743

@<SCITEGIC>MOL_PROPERTY
Bond
SciTegic.value.DoubleValue
0.299

@<SCITEGIC>MOL_PROPERTY
Angle
SciTegic.value.DoubleValue
1.449

@<SCITEGIC>MOL_PROPERTY
Pdih
SciTegic.value.DoubleValue
2.539

@<SCITEGIC>MOL_PROPERTY
Idih
SciTegic.value.DoubleValue
0.000

@<SCITEGIC>MOL_PROPERTY
Tether
SciTegic.value.DoubleValue
0.000

@<TRIPOS>MOLECULE
guest-3_vm2.mol2 : vm2 ligand conformer 178
          29          28           1
SMALL
USER_CHARGES
 
@<TRIPOS>ATOM
       1    C1      20.901332   17.796645   21.674792 C.3        1 MOL1        -0.2427
       2    H1      20.869012   17.758832   22.770609 H          1 MOL1         0.0958
       3    H2      21.044083   16.770272   21.312866 H          1 MOL1         0.0958
       4    H3      21.779379   18.383790   21.376103 H          1 MOL1         0.0958
       5    C2      19.604577   18.401154   21.090440 C.3        1 MOL1        -0.1412
       6    H4      18.739349   17.810552   21.419933 H          1 MOL1         0.0947
       7    H5      19.632618   18.307427   19.995895 H          1 MOL1         0.0947
       8    C3      19.402548   19.894867   21.452050 C.3        1 MOL1        -0.1437
       9    H6      20.216567   20.481503   21.004508 H          1 MOL1         0.0947
      10    H7      18.478337   20.252419   20.977643 H          1 MOL1         0.0947
      11    C4      19.343309   20.204559   22.969894 C.3        1 MOL1        -0.1437
      12    H8      19.217486   21.288304   23.098482 H          1 MOL1         0.0947
      13    H9      20.306639   19.953869   23.431200 H          1 MOL1         0.0947
      14    C5      18.191176   19.472840   23.703020 C.3        1 MOL1        -0.1437
      15    H10     17.249521   19.665931   23.171052 H          1 MOL1         0.0947
      16    H11     18.346823   18.387354   23.661220 H          1 MOL1         0.0947
      17    C6      18.020598   19.915231   25.179123 C.3        1 MOL1        -0.1437
      18    H12     17.163902   19.379270   25.610620 H          1 MOL1         0.0947
      19    H13     17.755899   20.981190   25.208085 H          1 MOL1         0.0947
      20    C7      19.261968   19.680227   26.075428 C.3        1 MOL1        -0.1477
      21    H14     20.091434   20.317188   25.742762 H          1 MOL1         0.0947
      22    H15     19.023949   19.995878   27.099882 H          1 MOL1         0.0947
      23    C8      19.713354   18.208034   26.093743 C.3        1 MOL1         0.0145
      24    H16     19.988116   17.894081   25.083437 H          1 MOL1         0.0921
      25    H17     18.891693   17.575479   26.440254 H          1 MOL1         0.0921
      26    N1      20.905138   17.964443   26.996510 N.4        1 MOL1        -0.5969
      27    H18     21.721932   18.512494   26.707129 H          1 MOL1         0.3603
      28    H19     21.189607   16.978740   26.994300 H          1 MOL1         0.3603
      29    H20     20.703137   18.214647   27.970173 H          1 MOL1         0.3603
@<TRIPOS>BOND
    1     1     2    1
    2     1     3    1
    3     1     4    1
    4     1     5    1
    5     5     6    1
    6     5     7    1
    7     5     8    1
    8     8     9    1
    9     8    10    1
   10     8    11    1
   11    11    12    1
   12    11    13    1
   13    11    14    1
   14    14    15    1
   15    14    16    1
   16    14    17    1
   17    17    18    1
   18    17    19    1
   19    17    20    1
   20    20    21    1
   21    20    22    1
   22    20    23    1
   23    23    24    1
   24    23    25    1
   25    23    26    1
   26    26    27    1
   27    26    28    1
   28    26    29    1
@<TRIPOS>SUBSTRUCTURE
       1 MOL1            1 RESIDUE      1      MOL     
@<SCITEGIC>MOL_PROPERTY
VM2 Rank
SciTegic.value.IntegerValue
178

@<SCITEGIC>MOL_PROPERTY
Conf_Id
SciTegic.value.IntegerValue
1992

@<SCITEGIC>MOL_PROPERTY
Probability
SciTegic.value.DoubleValue
0.09

@<SCITEGIC>MOL_PROPERTY
Sum Probability
SciTegic.value.DoubleValue
96.93

@<SCITEGIC>MOL_PROPERTY
Delta G
SciTegic.value.DoubleValue
2.404

@<SCITEGIC>MOL_PROPERTY
G
SciTegic.value.DoubleValue
60.550

@<SCITEGIC>MOL_PROPERTY
E
SciTegic.value.DoubleValue
22.499

@<SCITEGIC>MOL_PROPERTY
-TS
SciTegic.value.DoubleValue
38.051

@<SCITEGIC>MOL_PROPERTY
U+W
SciTegic.value.DoubleValue
-1.645

@<SCITEGIC>MOL_PROPERTY
U
SciTegic.value.DoubleValue
50.968

@<SCITEGIC>MOL_PROPERTY
W
SciTegic.value.DoubleValue
-52.614

@<SCITEGIC>MOL_PROPERTY
W(PB)
SciTegic.value.DoubleValue
-55.012

@<SCITEGIC>MOL_PROPERTY
W(SA)
SciTegic.value.DoubleValue
2.399

@<SCITEGIC>MOL_PROPERTY
Valence
SciTegic.value.DoubleValue
4.230

@<SCITEGIC>MOL_PROPERTY
Coulomb
SciTegic.value.DoubleValue
46.141

@<SCITEGIC>MOL_PROPERTY
VdW
SciTegic.value.DoubleValue
0.598

@<SCITEGIC>MOL_PROPERTY
VdW6
SciTegic.value.DoubleValue
-10.517

@<SCITEGIC>MOL_PROPERTY
VdW12
SciTegic.value.DoubleValue
11.114

@<SCITEGIC>MOL_PROPERTY
Bond
SciTegic.value.DoubleValue
0.292

@<SCITEGIC>MOL_PROPERTY
Angle
SciTegic.value.DoubleValue
1.459

@<SCITEGIC>MOL_PROPERTY
Pdih
SciTegic.value.DoubleValue
2.478

@<SCITEGIC>MOL_PROPERTY
Idih
SciTegic.value.DoubleValue
0.000

@<SCITEGIC>MOL_PROPERTY
Tether
SciTegic.value.DoubleValue
0.000

@<TRIPOS>MOLECULE
guest-3_vm2.mol2 : vm2 ligand conformer 179
          29          28           1
SMALL
USER_CHARGES
 
@<TRIPOS>ATOM
       1    C1      20.554802   19.270387   19.921086 C.3        1 MOL1        -0.2427
       2    H1      20.716791   18.266759   19.506736 H          1 MOL1         0.0958
       3    H2      20.289529   19.938535   19.091502 H          1 MOL1         0.0958
       4    H3      21.503558   19.621902   20.347116 H          1 MOL1         0.0958
       5    C2      19.439636   19.257142   20.987827 C.3        1 MOL1        -0.1412
       6    H4      18.497223   18.930620   20.526510 H          1 MOL1         0.0947
       7    H5      19.279520   20.281671   21.349062 H          1 MOL1         0.0947
       8    C3      19.792671   18.324277   22.169862 C.3        1 MOL1        -0.1437
       9    H6      20.015092   17.321989   21.778683 H          1 MOL1         0.0947
      10    H7      20.715371   18.671241   22.653113 H          1 MOL1         0.0947
      11    C4      18.658212   18.197909   23.219123 C.3        1 MOL1        -0.1437
      12    H8      18.962257   17.472775   23.985588 H          1 MOL1         0.0947
      13    H9      17.774418   17.760497   22.734806 H          1 MOL1         0.0947
      14    C5      18.240766   19.526348   23.905307 C.3        1 MOL1        -0.1437
      15    H10     17.779633   20.189949   23.161953 H          1 MOL1         0.0947
      16    H11     17.445372   19.311998   24.631593 H          1 MOL1         0.0947
      17    C6      19.390035   20.291907   24.614374 C.3        1 MOL1        -0.1437
      18    H12     18.975112   21.199441   25.074205 H          1 MOL1         0.0947
      19    H13     20.113790   20.643019   23.866873 H          1 MOL1         0.0947
      20    C7      20.137109   19.478376   25.699975 C.3        1 MOL1        -0.1477
      21    H14     20.654375   18.625975   25.241591 H          1 MOL1         0.0947
      22    H15     20.917524   20.111258   26.142832 H          1 MOL1         0.0947
      23    C8      19.201195   18.977864   26.815480 C.3        1 MOL1         0.0145
      24    H16     18.442122   18.315929   26.390593 H          1 MOL1         0.0921
      25    H17     18.695838   19.828307   27.280939 H          1 MOL1         0.0921
      26    N1      19.929575   18.213789   27.901966 N.4        1 MOL1        -0.5969
      27    H18     20.405493   17.384376   27.532011 H          1 MOL1         0.3603
      28    H19     19.288633   17.889381   28.634450 H          1 MOL1         0.3603
      29    H20     20.641523   18.790677   28.362119 H          1 MOL1         0.3603
@<TRIPOS>BOND
    1     1     2    1
    2     1     3    1
    3     1     4    1
    4     1     5    1
    5     5     6    1
    6     5     7    1
    7     5     8    1
    8     8     9    1
    9     8    10    1
   10     8    11    1
   11    11    12    1
   12    11    13    1
   13    11    14    1
   14    14    15    1
   15    14    16    1
   16    14    17    1
   17    17    18    1
   18    17    19    1
   19    17    20    1
   20    20    21    1
   21    20    22    1
   22    20    23    1
   23    23    24    1
   24    23    25    1
   25    23    26    1
   26    26    27    1
   27    26    28    1
   28    26    29    1
@<TRIPOS>SUBSTRUCTURE
       1 MOL1            1 RESIDUE      1      MOL     
@<SCITEGIC>MOL_PROPERTY
VM2 Rank
SciTegic.value.IntegerValue
179

@<SCITEGIC>MOL_PROPERTY
Conf_Id
SciTegic.value.IntegerValue
104

@<SCITEGIC>MOL_PROPERTY
Probability
SciTegic.value.DoubleValue
0.09

@<SCITEGIC>MOL_PROPERTY
Sum Probability
SciTegic.value.DoubleValue
97.02

@<SCITEGIC>MOL_PROPERTY
Delta G
SciTegic.value.DoubleValue
2.406

@<SCITEGIC>MOL_PROPERTY
G
SciTegic.value.DoubleValue
60.552

@<SCITEGIC>MOL_PROPERTY
E
SciTegic.value.DoubleValue
22.366

@<SCITEGIC>MOL_PROPERTY
-TS
SciTegic.value.DoubleValue
38.186

@<SCITEGIC>MOL_PROPERTY
U+W
SciTegic.value.DoubleValue
-1.778

@<SCITEGIC>MOL_PROPERTY
U
SciTegic.value.DoubleValue
50.384

@<SCITEGIC>MOL_PROPERTY
W
SciTegic.value.DoubleValue
-52.162

@<SCITEGIC>MOL_PROPERTY
W(PB)
SciTegic.value.DoubleValue
-54.621

@<SCITEGIC>MOL_PROPERTY
W(SA)
SciTegic.value.DoubleValue
2.459

@<SCITEGIC>MOL_PROPERTY
Valence
SciTegic.value.DoubleValue
4.248

@<SCITEGIC>MOL_PROPERTY
Coulomb
SciTegic.value.DoubleValue
45.544

@<SCITEGIC>MOL_PROPERTY
VdW
SciTegic.value.DoubleValue
0.592

@<SCITEGIC>MOL_PROPERTY
VdW6
SciTegic.value.DoubleValue
-10.476

@<SCITEGIC>MOL_PROPERTY
VdW12
SciTegic.value.DoubleValue
11.067

@<SCITEGIC>MOL_PROPERTY
Bond
SciTegic.value.DoubleValue
0.300

@<SCITEGIC>MOL_PROPERTY
Angle
SciTegic.value.DoubleValue
1.566

@<SCITEGIC>MOL_PROPERTY
Pdih
SciTegic.value.DoubleValue
2.382

@<SCITEGIC>MOL_PROPERTY
Idih
SciTegic.value.DoubleValue
0.000

@<SCITEGIC>MOL_PROPERTY
Tether
SciTegic.value.DoubleValue
0.000

@<TRIPOS>MOLECULE
guest-3_vm2.mol2 : vm2 ligand conformer 180
          29          28           1
SMALL
USER_CHARGES
 
@<TRIPOS>ATOM
       1    C1      20.266355   18.361783   20.039170 C.3        1 MOL1        -0.2427
       2    H1      20.164650   17.374308   20.505815 H          1 MOL1         0.0958
       3    H2      19.337948   18.584260   19.497342 H          1 MOL1         0.0958
       4    H3      21.077313   18.295667   19.302362 H          1 MOL1         0.0958
       5    C2      20.575075   19.456625   21.085483 C.3        1 MOL1        -0.1412
       6    H4      20.794136   20.395841   20.558580 H          1 MOL1         0.0947
       7    H5      21.488104   19.193954   21.637804 H          1 MOL1         0.0947
       8    C3      19.415190   19.705794   22.079633 C.3        1 MOL1        -0.1437
       9    H6      19.674103   20.580614   22.689738 H          1 MOL1         0.0947
      10    H7      18.505965   19.972855   21.523848 H          1 MOL1         0.0947
      11    C4      19.126152   18.496973   23.005196 C.3        1 MOL1        -0.1437
      12    H8      20.037688   18.220099   23.550761 H          1 MOL1         0.0947
      13    H9      18.863174   17.624474   22.393589 H          1 MOL1         0.0947
      14    C5      17.964790   18.744711   24.002491 C.3        1 MOL1        -0.1437
      15    H10     17.041396   18.923861   23.434714 H          1 MOL1         0.0947
      16    H11     17.786062   17.822320   24.571360 H          1 MOL1         0.0947
      17    C6      18.175311   19.922598   24.992004 C.3        1 MOL1        -0.1437
      18    H12     17.311877   19.967569   25.670066 H          1 MOL1         0.0947
      19    H13     18.166959   20.872655   24.441625 H          1 MOL1         0.0947
      20    C7      19.470086   19.837683   25.837402 C.3        1 MOL1        -0.1477
      21    H14     20.349721   19.915704   25.185729 H          1 MOL1         0.0947
      22    H15     19.509582   20.702070   26.513421 H          1 MOL1         0.0947
      23    C8      19.552195   18.543875   26.668182 C.3        1 MOL1         0.0145
      24    H16     19.549189   17.677178   26.002033 H          1 MOL1         0.0921
      25    H17     18.683296   18.474635   27.328118 H          1 MOL1         0.0921
      26    N1      20.798847   18.467958   27.525439 N.4        1 MOL1        -0.5969
      27    H18     20.848737   19.242659   28.195341 H          1 MOL1         0.3603
      28    H19     21.653620   18.501691   26.960193 H          1 MOL1         0.3603
      29    H20     20.834136   17.599233   28.070098 H          1 MOL1         0.3603
@<TRIPOS>BOND
    1     1     2    1
    2     1     3    1
    3     1     4    1
    4     1     5    1
    5     5     6    1
    6     5     7    1
    7     5     8    1
    8     8     9    1
    9     8    10    1
   10     8    11    1
   11    11    12    1
   12    11    13    1
   13    11    14    1
   14    14    15    1
   15    14    16    1
   16    14    17    1
   17    17    18    1
   18    17    19    1
   19    17    20    1
   20    20    21    1
   21    20    22    1
   22    20    23    1
   23    23    24    1
   24    23    25    1
   25    23    26    1
   26    26    27    1
   27    26    28    1
   28    26    29    1
@<TRIPOS>SUBSTRUCTURE
       1 MOL1            1 RESIDUE      1      MOL     
@<SCITEGIC>MOL_PROPERTY
VM2 Rank
SciTegic.value.IntegerValue
180

@<SCITEGIC>MOL_PROPERTY
Conf_Id
SciTegic.value.IntegerValue
1313

@<SCITEGIC>MOL_PROPERTY
Probability
SciTegic.value.DoubleValue
0.09

@<SCITEGIC>MOL_PROPERTY
Sum Probability
SciTegic.value.DoubleValue
97.11

@<SCITEGIC>MOL_PROPERTY
Delta G
SciTegic.value.DoubleValue
2.419

@<SCITEGIC>MOL_PROPERTY
G
SciTegic.value.DoubleValue
60.566

@<SCITEGIC>MOL_PROPERTY
E
SciTegic.value.DoubleValue
22.604

@<SCITEGIC>MOL_PROPERTY
-TS
SciTegic.value.DoubleValue
37.961

@<SCITEGIC>MOL_PROPERTY
U+W
SciTegic.value.DoubleValue
-1.540

@<SCITEGIC>MOL_PROPERTY
U
SciTegic.value.DoubleValue
50.750

@<SCITEGIC>MOL_PROPERTY
W
SciTegic.value.DoubleValue
-52.290

@<SCITEGIC>MOL_PROPERTY
W(PB)
SciTegic.value.DoubleValue
-54.732

@<SCITEGIC>MOL_PROPERTY
W(SA)
SciTegic.value.DoubleValue
2.442

@<SCITEGIC>MOL_PROPERTY
Valence
SciTegic.value.DoubleValue
4.370

@<SCITEGIC>MOL_PROPERTY
Coulomb
SciTegic.value.DoubleValue
45.571

@<SCITEGIC>MOL_PROPERTY
VdW
SciTegic.value.DoubleValue
0.809

@<SCITEGIC>MOL_PROPERTY
VdW6
SciTegic.value.DoubleValue
-10.135

@<SCITEGIC>MOL_PROPERTY
VdW12
SciTegic.value.DoubleValue
10.944

@<SCITEGIC>MOL_PROPERTY
Bond
SciTegic.value.DoubleValue
0.300

@<SCITEGIC>MOL_PROPERTY
Angle
SciTegic.value.DoubleValue
1.544

@<SCITEGIC>MOL_PROPERTY
Pdih
SciTegic.value.DoubleValue
2.526

@<SCITEGIC>MOL_PROPERTY
Idih
SciTegic.value.DoubleValue
0.000

@<SCITEGIC>MOL_PROPERTY
Tether
SciTegic.value.DoubleValue
0.000

@<TRIPOS>MOLECULE
guest-3_vm2.mol2 : vm2 ligand conformer 181
          29          28           1
SMALL
USER_CHARGES
 
@<TRIPOS>ATOM
       1    C1      19.812230   19.534514   19.824147 C.3        1 MOL1        -0.2427
       2    H1      18.718354   19.456249   19.846333 H          1 MOL1         0.0958
       3    H2      20.074568   20.257376   19.040842 H          1 MOL1         0.0958
       4    H3      20.221723   18.559024   19.531327 H          1 MOL1         0.0958
       5    C2      20.378381   19.987806   21.188998 C.3        1 MOL1        -0.1412
       6    H4      19.927656   20.947966   21.476433 H          1 MOL1         0.0947
       7    H5      21.455700   20.174845   21.078807 H          1 MOL1         0.0947
       8    C3      20.169212   18.951732   22.319757 C.3        1 MOL1        -0.1437
       9    H6      20.623111   17.994341   22.029433 H          1 MOL1         0.0947
      10    H7      20.718294   19.300796   23.203557 H          1 MOL1         0.0947
      11    C4      18.679941   18.734196   22.689260 C.3        1 MOL1        -0.1437
      12    H8      18.130551   18.392134   21.802925 H          1 MOL1         0.0947
      13    H9      18.224548   19.691184   22.975660 H          1 MOL1         0.0947
      14    C5      18.465110   17.686674   23.812643 C.3        1 MOL1        -0.1437
      15    H10     17.385644   17.565918   23.977962 H          1 MOL1         0.0947
      16    H11     18.825458   16.709790   23.461917 H          1 MOL1         0.0947
      17    C6      19.145342   18.011451   25.167740 C.3        1 MOL1        -0.1437
      18    H12     20.235971   17.996043   25.047973 H          1 MOL1         0.0947
      19    H13     18.908206   17.204603   25.874981 H          1 MOL1         0.0947
      20    C7      18.693787   19.361922   25.777065 C.3        1 MOL1        -0.1477
      21    H14     19.008938   20.195521   25.136634 H          1 MOL1         0.0947
      22    H15     17.596997   19.393161   25.819221 H          1 MOL1         0.0947
      23    C8      19.244338   19.582879   27.198797 C.3        1 MOL1         0.0145
      24    H16     18.936173   18.756915   27.845463 H          1 MOL1         0.0921
      25    H17     18.831997   20.509122   27.608134 H          1 MOL1         0.0921
      26    N1      20.755659   19.686828   27.256592 N.4        1 MOL1        -0.5969
      27    H18     21.105613   20.463118   26.685619 H          1 MOL1         0.3603
      28    H19     21.207207   18.831851   26.917066 H          1 MOL1         0.3603
      29    H20     21.089785   19.843737   28.213832 H          1 MOL1         0.3603
@<TRIPOS>BOND
    1     1     2    1
    2     1     3    1
    3     1     4    1
    4     1     5    1
    5     5     6    1
    6     5     7    1
    7     5     8    1
    8     8     9    1
    9     8    10    1
   10     8    11    1
   11    11    12    1
   12    11    13    1
   13    11    14    1
   14    14    15    1
   15    14    16    1
   16    14    17    1
   17    17    18    1
   18    17    19    1
   19    17    20    1
   20    20    21    1
   21    20    22    1
   22    20    23    1
   23    23    24    1
   24    23    25    1
   25    23    26    1
   26    26    27    1
   27    26    28    1
   28    26    29    1
@<TRIPOS>SUBSTRUCTURE
       1 MOL1            1 RESIDUE      1      MOL     
@<SCITEGIC>MOL_PROPERTY
VM2 Rank
SciTegic.value.IntegerValue
181

@<SCITEGIC>MOL_PROPERTY
Conf_Id
SciTegic.value.IntegerValue
258

@<SCITEGIC>MOL_PROPERTY
Probability
SciTegic.value.DoubleValue
0.09

@<SCITEGIC>MOL_PROPERTY
Sum Probability
SciTegic.value.DoubleValue
97.20

@<SCITEGIC>MOL_PROPERTY
Delta G
SciTegic.value.DoubleValue
2.424

@<SCITEGIC>MOL_PROPERTY
G
SciTegic.value.DoubleValue
60.570

@<SCITEGIC>MOL_PROPERTY
E
SciTegic.value.DoubleValue
22.750

@<SCITEGIC>MOL_PROPERTY
-TS
SciTegic.value.DoubleValue
37.821

@<SCITEGIC>MOL_PROPERTY
U+W
SciTegic.value.DoubleValue
-1.395

@<SCITEGIC>MOL_PROPERTY
U
SciTegic.value.DoubleValue
50.985

@<SCITEGIC>MOL_PROPERTY
W
SciTegic.value.DoubleValue
-52.380

@<SCITEGIC>MOL_PROPERTY
W(PB)
SciTegic.value.DoubleValue
-54.815

@<SCITEGIC>MOL_PROPERTY
W(SA)
SciTegic.value.DoubleValue
2.435

@<SCITEGIC>MOL_PROPERTY
Valence
SciTegic.value.DoubleValue
4.232

@<SCITEGIC>MOL_PROPERTY
Coulomb
SciTegic.value.DoubleValue
45.770

@<SCITEGIC>MOL_PROPERTY
VdW
SciTegic.value.DoubleValue
0.982

@<SCITEGIC>MOL_PROPERTY
VdW6
SciTegic.value.DoubleValue
-9.806

@<SCITEGIC>MOL_PROPERTY
VdW12
SciTegic.value.DoubleValue
10.788

@<SCITEGIC>MOL_PROPERTY
Bond
SciTegic.value.DoubleValue
0.294

@<SCITEGIC>MOL_PROPERTY
Angle
SciTegic.value.DoubleValue
1.395

@<SCITEGIC>MOL_PROPERTY
Pdih
SciTegic.value.DoubleValue
2.544

@<SCITEGIC>MOL_PROPERTY
Idih
SciTegic.value.DoubleValue
0.000

@<SCITEGIC>MOL_PROPERTY
Tether
SciTegic.value.DoubleValue
0.000

@<TRIPOS>MOLECULE
guest-3_vm2.mol2 : vm2 ligand conformer 182
          29          28           1
SMALL
USER_CHARGES
 
@<TRIPOS>ATOM
       1    C1      19.495714   18.646109   19.804351 C.3        1 MOL1        -0.2427
       2    H1      20.433401   19.154314   19.544581 H          1 MOL1         0.0958
       3    H2      19.253436   17.951770   18.989422 H          1 MOL1         0.0958
       4    H3      18.696953   19.396777   19.845122 H          1 MOL1         0.0958
       5    C2      19.629095   17.883469   21.142037 C.3        1 MOL1        -0.1412
       6    H4      20.347530   17.062514   21.009268 H          1 MOL1         0.0947
       7    H5      18.669201   17.413414   21.397637 H          1 MOL1         0.0947
       8    C3      20.105602   18.772953   22.315739 C.3        1 MOL1        -0.1437
       9    H6      20.298226   18.120856   23.177192 H          1 MOL1         0.0947
      10    H7      21.066298   19.238888   22.057138 H          1 MOL1         0.0947
      11    C4      19.083572   19.867570   22.714553 C.3        1 MOL1        -0.1437
      12    H8      18.121996   19.403064   22.969189 H          1 MOL1         0.0947
      13    H9      18.886388   20.514593   21.850316 H          1 MOL1         0.0947
      14    C5      19.562998   20.769695   23.881499 C.3        1 MOL1        -0.1437
      15    H10     20.464391   21.312195   23.564726 H          1 MOL1         0.0947
      16    H11     18.800330   21.538592   24.066698 H          1 MOL1         0.0947
      17    C6      19.865879   20.034798   25.212918 C.3        1 MOL1        -0.1437
      18    H12     20.181783   20.781198   25.954888 H          1 MOL1         0.0947
      19    H13     20.722613   19.362496   25.078495 H          1 MOL1         0.0947
      20    C7      18.654142   19.250387   25.774471 C.3        1 MOL1        -0.1477
      21    H14     17.783700   19.917371   25.830700 H          1 MOL1         0.0947
      22    H15     18.380939   18.431282   25.097133 H          1 MOL1         0.0947
      23    C8      18.921066   18.675269   27.178478 C.3        1 MOL1         0.0145
      24    H16     18.010524   18.202490   27.556503 H          1 MOL1         0.0921
      25    H17     19.194817   19.483800   27.861631 H          1 MOL1         0.0921
      26    N1      20.025932   17.637749   27.210953 N.4        1 MOL1        -0.5969
      27    H18     20.172176   17.267336   28.156456 H          1 MOL1         0.3603
      28    H19     20.920846   18.027813   26.899287 H          1 MOL1         0.3603
      29    H20     19.814863   16.838268   26.604832 H          1 MOL1         0.3603
@<TRIPOS>BOND
    1     1     2    1
    2     1     3    1
    3     1     4    1
    4     1     5    1
    5     5     6    1
    6     5     7    1
    7     5     8    1
    8     8     9    1
    9     8    10    1
   10     8    11    1
   11    11    12    1
   12    11    13    1
   13    11    14    1
   14    14    15    1
   15    14    16    1
   16    14    17    1
   17    17    18    1
   18    17    19    1
   19    17    20    1
   20    20    21    1
   21    20    22    1
   22    20    23    1
   23    23    24    1
   24    23    25    1
   25    23    26    1
   26    26    27    1
   27    26    28    1
   28    26    29    1
@<TRIPOS>SUBSTRUCTURE
       1 MOL1            1 RESIDUE      1      MOL     
@<SCITEGIC>MOL_PROPERTY
VM2 Rank
SciTegic.value.IntegerValue
182

@<SCITEGIC>MOL_PROPERTY
Conf_Id
SciTegic.value.IntegerValue
2908

@<SCITEGIC>MOL_PROPERTY
Probability
SciTegic.value.DoubleValue
0.09

@<SCITEGIC>MOL_PROPERTY
Sum Probability
SciTegic.value.DoubleValue
97.29

@<SCITEGIC>MOL_PROPERTY
Delta G
SciTegic.value.DoubleValue
2.428

@<SCITEGIC>MOL_PROPERTY
G
SciTegic.value.DoubleValue
60.574

@<SCITEGIC>MOL_PROPERTY
E
SciTegic.value.DoubleValue
22.753

@<SCITEGIC>MOL_PROPERTY
-TS
SciTegic.value.DoubleValue
37.821

@<SCITEGIC>MOL_PROPERTY
U+W
SciTegic.value.DoubleValue
-1.391

@<SCITEGIC>MOL_PROPERTY
U
SciTegic.value.DoubleValue
50.985

@<SCITEGIC>MOL_PROPERTY
W
SciTegic.value.DoubleValue
-52.376

@<SCITEGIC>MOL_PROPERTY
W(PB)
SciTegic.value.DoubleValue
-54.823

@<SCITEGIC>MOL_PROPERTY
W(SA)
SciTegic.value.DoubleValue
2.447

@<SCITEGIC>MOL_PROPERTY
Valence
SciTegic.value.DoubleValue
4.232

@<SCITEGIC>MOL_PROPERTY
Coulomb
SciTegic.value.DoubleValue
45.770

@<SCITEGIC>MOL_PROPERTY
VdW
SciTegic.value.DoubleValue
0.983

@<SCITEGIC>MOL_PROPERTY
VdW6
SciTegic.value.DoubleValue
-9.806

@<SCITEGIC>MOL_PROPERTY
VdW12
SciTegic.value.DoubleValue
10.788

@<SCITEGIC>MOL_PROPERTY
Bond
SciTegic.value.DoubleValue
0.294

@<SCITEGIC>MOL_PROPERTY
Angle
SciTegic.value.DoubleValue
1.395

@<SCITEGIC>MOL_PROPERTY
Pdih
SciTegic.value.DoubleValue
2.544

@<SCITEGIC>MOL_PROPERTY
Idih
SciTegic.value.DoubleValue
0.000

@<SCITEGIC>MOL_PROPERTY
Tether
SciTegic.value.DoubleValue
0.000

@<TRIPOS>MOLECULE
guest-3_vm2.mol2 : vm2 ligand conformer 183
          29          28           1
SMALL
USER_CHARGES
 
@<TRIPOS>ATOM
       1    C1      21.183327   18.524291   21.115713 C.3        1 MOL1        -0.2427
       2    H1      21.200259   18.017548   22.088610 H          1 MOL1         0.0958
       3    H2      20.882424   17.794929   20.352544 H          1 MOL1         0.0958
       4    H3      22.209466   18.842567   20.890852 H          1 MOL1         0.0958
       5    C2      20.229737   19.740241   21.127796 C.3        1 MOL1        -0.1412
       6    H4      20.335839   20.282288   20.177773 H          1 MOL1         0.0947
       7    H5      20.538120   20.445413   21.911127 H          1 MOL1         0.0947
       8    C3      18.739829   19.353724   21.310729 C.3        1 MOL1        -0.1437
       9    H6      18.131231   20.267985   21.281995 H          1 MOL1         0.0947
      10    H7      18.420918   18.753275   20.447689 H          1 MOL1         0.0947
      11    C4      18.411795   18.570865   22.608350 C.3        1 MOL1        -0.1437
      12    H8      18.925650   17.600548   22.599855 H          1 MOL1         0.0947
      13    H9      17.336979   18.343165   22.611178 H          1 MOL1         0.0947
      14    C5      18.767606   19.340939   23.902336 C.3        1 MOL1        -0.1437
      15    H10     19.849907   19.516729   23.937807 H          1 MOL1         0.0947
      16    H11     18.282696   20.326660   23.887155 H          1 MOL1         0.0947
      17    C6      18.326498   18.567369   25.167773 C.3        1 MOL1        -0.1437
      18    H12     18.822180   17.587795   25.195538 H          1 MOL1         0.0947
      19    H13     17.248773   18.362169   25.107327 H          1 MOL1         0.0947
      20    C7      18.607555   19.338015   26.482097 C.3        1 MOL1        -0.1477
      21    H14     18.037124   20.276338   26.480277 H          1 MOL1         0.0947
      22    H15     18.232437   18.753434   27.332591 H          1 MOL1         0.0947
      23    C8      20.096888   19.665120   26.712771 C.3        1 MOL1         0.0145
      24    H16     20.205253   20.226039   27.645026 H          1 MOL1         0.0921
      25    H17     20.469650   20.288881   25.896328 H          1 MOL1         0.0921
      26    N1      20.980766   18.437436   26.807435 N.4        1 MOL1        -0.5969
      27    H18     21.963120   18.686270   26.967061 H          1 MOL1         0.3603
      28    H19     20.945399   17.881012   25.947569 H          1 MOL1         0.3603
      29    H20     20.697170   17.823939   27.578394 H          1 MOL1         0.3603
@<TRIPOS>BOND
    1     1     2    1
    2     1     3    1
    3     1     4    1
    4     1     5    1
    5     5     6    1
    6     5     7    1
    7     5     8    1
    8     8     9    1
    9     8    10    1
   10     8    11    1
   11    11    12    1
   12    11    13    1
   13    11    14    1
   14    14    15    1
   15    14    16    1
   16    14    17    1
   17    17    18    1
   18    17    19    1
   19    17    20    1
   20    20    21    1
   21    20    22    1
   22    20    23    1
   23    23    24    1
   24    23    25    1
   25    23    26    1
   26    26    27    1
   27    26    28    1
   28    26    29    1
@<TRIPOS>SUBSTRUCTURE
       1 MOL1            1 RESIDUE      1      MOL     
@<SCITEGIC>MOL_PROPERTY
VM2 Rank
SciTegic.value.IntegerValue
183

@<SCITEGIC>MOL_PROPERTY
Conf_Id
SciTegic.value.IntegerValue
319

@<SCITEGIC>MOL_PROPERTY
Probability
SciTegic.value.DoubleValue
0.09

@<SCITEGIC>MOL_PROPERTY
Sum Probability
SciTegic.value.DoubleValue
97.38

@<SCITEGIC>MOL_PROPERTY
Delta G
SciTegic.value.DoubleValue
2.446

@<SCITEGIC>MOL_PROPERTY
G
SciTegic.value.DoubleValue
60.592

@<SCITEGIC>MOL_PROPERTY
E
SciTegic.value.DoubleValue
22.682

@<SCITEGIC>MOL_PROPERTY
-TS
SciTegic.value.DoubleValue
37.910

@<SCITEGIC>MOL_PROPERTY
U+W
SciTegic.value.DoubleValue
-1.462

@<SCITEGIC>MOL_PROPERTY
U
SciTegic.value.DoubleValue
50.684

@<SCITEGIC>MOL_PROPERTY
W
SciTegic.value.DoubleValue
-52.146

@<SCITEGIC>MOL_PROPERTY
W(PB)
SciTegic.value.DoubleValue
-54.567

@<SCITEGIC>MOL_PROPERTY
W(SA)
SciTegic.value.DoubleValue
2.421

@<SCITEGIC>MOL_PROPERTY
Valence
SciTegic.value.DoubleValue
3.913

@<SCITEGIC>MOL_PROPERTY
Coulomb
SciTegic.value.DoubleValue
45.942

@<SCITEGIC>MOL_PROPERTY
VdW
SciTegic.value.DoubleValue
0.829

@<SCITEGIC>MOL_PROPERTY
VdW6
SciTegic.value.DoubleValue
-9.954

@<SCITEGIC>MOL_PROPERTY
VdW12
SciTegic.value.DoubleValue
10.783

@<SCITEGIC>MOL_PROPERTY
Bond
SciTegic.value.DoubleValue
0.272

@<SCITEGIC>MOL_PROPERTY
Angle
SciTegic.value.DoubleValue
1.273

@<SCITEGIC>MOL_PROPERTY
Pdih
SciTegic.value.DoubleValue
2.367

@<SCITEGIC>MOL_PROPERTY
Idih
SciTegic.value.DoubleValue
0.000

@<SCITEGIC>MOL_PROPERTY
Tether
SciTegic.value.DoubleValue
0.000

@<TRIPOS>MOLECULE
guest-3_vm2.mol2 : vm2 ligand conformer 184
          29          28           1
SMALL
USER_CHARGES
 
@<TRIPOS>ATOM
       1    C1      20.586018   19.258200   20.059448 C.3        1 MOL1        -0.2427
       2    H1      19.733816   19.694320   19.522265 H          1 MOL1         0.0958
       3    H2      21.124713   20.068191   20.566335 H          1 MOL1         0.0958
       4    H3      21.266640   18.825980   19.314563 H          1 MOL1         0.0958
       5    C2      20.118263   18.174309   21.057015 C.3        1 MOL1        -0.1412
       6    H4      20.983809   17.778599   21.606488 H          1 MOL1         0.0947
       7    H5      19.701859   17.329871   20.490206 H          1 MOL1         0.0947
       8    C3      19.047935   18.675201   22.056645 C.3        1 MOL1        -0.1437
       9    H6      18.182553   19.065129   21.503495 H          1 MOL1         0.0947
      10    H7      18.686988   17.810363   22.627912 H          1 MOL1         0.0947
      11    C4      19.574798   19.756839   23.033343 C.3        1 MOL1        -0.1437
      12    H8      19.931004   20.622567   22.460534 H          1 MOL1         0.0947
      13    H9      20.448414   19.373504   23.576528 H          1 MOL1         0.0947
      14    C5      18.504253   20.259503   24.036336 C.3        1 MOL1        -0.1437
      15    H10     18.940643   21.063840   24.643762 H          1 MOL1         0.0947
      16    H11     17.683521   20.726871   23.475007 H          1 MOL1         0.0947
      17    C6      17.909066   19.175590   24.975358 C.3        1 MOL1        -0.1437
      18    H12     17.309888   18.467385   24.387969 H          1 MOL1         0.0947
      19    H13     17.202095   19.659585   25.663289 H          1 MOL1         0.0947
      20    C7      18.954106   18.389496   25.804996 C.3        1 MOL1        -0.1477
      21    H14     18.428920   17.668769   26.445667 H          1 MOL1         0.0947
      22    H15     19.595483   17.798983   25.138323 H          1 MOL1         0.0947
      23    C8      19.823815   19.306001   26.685052 C.3        1 MOL1         0.0145
      24    H16     19.185101   19.882583   27.359509 H          1 MOL1         0.0921
      25    H17     20.378573   20.005086   26.053822 H          1 MOL1         0.0921
      26    N1      20.825746   18.542861   27.526807 N.4        1 MOL1        -0.5969
      27    H18     21.474651   17.998966   26.948553 H          1 MOL1         0.3603
      28    H19     20.365411   17.885164   28.164730 H          1 MOL1         0.3603
      29    H20     21.394506   19.171296   28.104877 H          1 MOL1         0.3603
@<TRIPOS>BOND
    1     1     2    1
    2     1     3    1
    3     1     4    1
    4     1     5    1
    5     5     6    1
    6     5     7    1
    7     5     8    1
    8     8     9    1
    9     8    10    1
   10     8    11    1
   11    11    12    1
   12    11    13    1
   13    11    14    1
   14    14    15    1
   15    14    16    1
   16    14    17    1
   17    17    18    1
   18    17    19    1
   19    17    20    1
   20    20    21    1
   21    20    22    1
   22    20    23    1
   23    23    24    1
   24    23    25    1
   25    23    26    1
   26    26    27    1
   27    26    28    1
   28    26    29    1
@<TRIPOS>SUBSTRUCTURE
       1 MOL1            1 RESIDUE      1      MOL     
@<SCITEGIC>MOL_PROPERTY
VM2 Rank
SciTegic.value.IntegerValue
184

@<SCITEGIC>MOL_PROPERTY
Conf_Id
SciTegic.value.IntegerValue
2191

@<SCITEGIC>MOL_PROPERTY
Probability
SciTegic.value.DoubleValue
0.08

@<SCITEGIC>MOL_PROPERTY
Sum Probability
SciTegic.value.DoubleValue
97.46

@<SCITEGIC>MOL_PROPERTY
Delta G
SciTegic.value.DoubleValue
2.462

@<SCITEGIC>MOL_PROPERTY
G
SciTegic.value.DoubleValue
60.609

@<SCITEGIC>MOL_PROPERTY
E
SciTegic.value.DoubleValue
22.647

@<SCITEGIC>MOL_PROPERTY
-TS
SciTegic.value.DoubleValue
37.962

@<SCITEGIC>MOL_PROPERTY
U+W
SciTegic.value.DoubleValue
-1.498

@<SCITEGIC>MOL_PROPERTY
U
SciTegic.value.DoubleValue
50.750

@<SCITEGIC>MOL_PROPERTY
W
SciTegic.value.DoubleValue
-52.248

@<SCITEGIC>MOL_PROPERTY
W(PB)
SciTegic.value.DoubleValue
-54.725

@<SCITEGIC>MOL_PROPERTY
W(SA)
SciTegic.value.DoubleValue
2.476

@<SCITEGIC>MOL_PROPERTY
Valence
SciTegic.value.DoubleValue
4.370

@<SCITEGIC>MOL_PROPERTY
Coulomb
SciTegic.value.DoubleValue
45.572

@<SCITEGIC>MOL_PROPERTY
VdW
SciTegic.value.DoubleValue
0.809

@<SCITEGIC>MOL_PROPERTY
VdW6
SciTegic.value.DoubleValue
-10.136

@<SCITEGIC>MOL_PROPERTY
VdW12
SciTegic.value.DoubleValue
10.944

@<SCITEGIC>MOL_PROPERTY
Bond
SciTegic.value.DoubleValue
0.300

@<SCITEGIC>MOL_PROPERTY
Angle
SciTegic.value.DoubleValue
1.545

@<SCITEGIC>MOL_PROPERTY
Pdih
SciTegic.value.DoubleValue
2.526

@<SCITEGIC>MOL_PROPERTY
Idih
SciTegic.value.DoubleValue
0.000

@<SCITEGIC>MOL_PROPERTY
Tether
SciTegic.value.DoubleValue
0.000

@<TRIPOS>MOLECULE
guest-3_vm2.mol2 : vm2 ligand conformer 185
          29          28           1
SMALL
USER_CHARGES
 
@<TRIPOS>ATOM
       1    C1      20.650307   18.409750   20.381648 C.3        1 MOL1        -0.2427
       2    H1      20.642416   17.552929   21.066784 H          1 MOL1         0.0958
       3    H2      20.013044   18.167896   19.521228 H          1 MOL1         0.0958
       4    H3      21.677872   18.531600   20.015502 H          1 MOL1         0.0958
       5    C2      20.168801   19.699622   21.083280 C.3        1 MOL1        -0.1412
       6    H4      20.295964   20.545922   20.393976 H          1 MOL1         0.0947
       7    H5      20.812861   19.914903   21.946350 H          1 MOL1         0.0947
       8    C3      18.684473   19.640619   21.524679 C.3        1 MOL1        -0.1437
       9    H6      18.402809   20.608408   21.960022 H          1 MOL1         0.0947
      10    H7      18.054411   19.526483   20.631940 H          1 MOL1         0.0947
      11    C4      18.336626   18.503626   22.523137 C.3        1 MOL1        -0.1437
      12    H8      18.445712   17.534395   22.018566 H          1 MOL1         0.0947
      13    H9      17.272491   18.580375   22.785193 H          1 MOL1         0.0947
      14    C5      19.174076   18.484965   23.827973 C.3        1 MOL1        -0.1437
      15    H10     18.852448   17.620361   24.423167 H          1 MOL1         0.0947
      16    H11     20.232033   18.311725   23.590945 H          1 MOL1         0.0947
      17    C6      19.030408   19.776288   24.672505 C.3        1 MOL1        -0.1437
      18    H12     17.970637   19.953285   24.902351 H          1 MOL1         0.0947
      19    H13     19.370914   20.639506   24.086113 H          1 MOL1         0.0947
      20    C7      19.844019   19.734106   25.987304 C.3        1 MOL1        -0.1477
      21    H14     20.905264   19.567525   25.759288 H          1 MOL1         0.0947
      22    H15     19.777889   20.714372   26.477840 H          1 MOL1         0.0947
      23    C8      19.346715   18.650757   26.962563 C.3        1 MOL1         0.0145
      24    H16     19.451064   17.663658   26.505135 H          1 MOL1         0.0921
      25    H17     18.289896   18.816338   27.188554 H          1 MOL1         0.0921
      26    N1      20.108575   18.638266   28.271911 N.4        1 MOL1        -0.5969
      27    H18     20.028171   19.531610   28.768847 H          1 MOL1         0.3603
      28    H19     21.108441   18.460447   28.130105 H          1 MOL1         0.3603
      29    H20     19.762490   17.910698   28.907149 H          1 MOL1         0.3603
@<TRIPOS>BOND
    1     1     2    1
    2     1     3    1
    3     1     4    1
    4     1     5    1
    5     5     6    1
    6     5     7    1
    7     5     8    1
    8     8     9    1
    9     8    10    1
   10     8    11    1
   11    11    12    1
   12    11    13    1
   13    11    14    1
   14    14    15    1
   15    14    16    1
   16    14    17    1
   17    17    18    1
   18    17    19    1
   19    17    20    1
   20    20    21    1
   21    20    22    1
   22    20    23    1
   23    23    24    1
   24    23    25    1
   25    23    26    1
   26    26    27    1
   27    26    28    1
   28    26    29    1
@<TRIPOS>SUBSTRUCTURE
       1 MOL1            1 RESIDUE      1      MOL     
@<SCITEGIC>MOL_PROPERTY
VM2 Rank
SciTegic.value.IntegerValue
185

@<SCITEGIC>MOL_PROPERTY
Conf_Id
SciTegic.value.IntegerValue
1497

@<SCITEGIC>MOL_PROPERTY
Probability
SciTegic.value.DoubleValue
0.08

@<SCITEGIC>MOL_PROPERTY
Sum Probability
SciTegic.value.DoubleValue
97.54

@<SCITEGIC>MOL_PROPERTY
Delta G
SciTegic.value.DoubleValue
2.510

@<SCITEGIC>MOL_PROPERTY
G
SciTegic.value.DoubleValue
60.656

@<SCITEGIC>MOL_PROPERTY
E
SciTegic.value.DoubleValue
22.607

@<SCITEGIC>MOL_PROPERTY
-TS
SciTegic.value.DoubleValue
38.048

@<SCITEGIC>MOL_PROPERTY
U+W
SciTegic.value.DoubleValue
-1.537

@<SCITEGIC>MOL_PROPERTY
U
SciTegic.value.DoubleValue
50.224

@<SCITEGIC>MOL_PROPERTY
W
SciTegic.value.DoubleValue
-51.761

@<SCITEGIC>MOL_PROPERTY
W(PB)
SciTegic.value.DoubleValue
-54.216

@<SCITEGIC>MOL_PROPERTY
W(SA)
SciTegic.value.DoubleValue
2.455

@<SCITEGIC>MOL_PROPERTY
Valence
SciTegic.value.DoubleValue
4.334

@<SCITEGIC>MOL_PROPERTY
Coulomb
SciTegic.value.DoubleValue
45.055

@<SCITEGIC>MOL_PROPERTY
VdW
SciTegic.value.DoubleValue
0.835

@<SCITEGIC>MOL_PROPERTY
VdW6
SciTegic.value.DoubleValue
-10.075

@<SCITEGIC>MOL_PROPERTY
VdW12
SciTegic.value.DoubleValue
10.910

@<SCITEGIC>MOL_PROPERTY
Bond
SciTegic.value.DoubleValue
0.297

@<SCITEGIC>MOL_PROPERTY
Angle
SciTegic.value.DoubleValue
1.541

@<SCITEGIC>MOL_PROPERTY
Pdih
SciTegic.value.DoubleValue
2.496

@<SCITEGIC>MOL_PROPERTY
Idih
SciTegic.value.DoubleValue
0.000

@<SCITEGIC>MOL_PROPERTY
Tether
SciTegic.value.DoubleValue
0.000

@<TRIPOS>MOLECULE
guest-3_vm2.mol2 : vm2 ligand conformer 186
          29          28           1
SMALL
USER_CHARGES
 
@<TRIPOS>ATOM
       1    C1      20.848203   18.965510   20.394052 C.3        1 MOL1        -0.2427
       2    H1      21.373608   19.606747   21.112649 H          1 MOL1         0.0958
       3    H2      21.572912   18.236623   20.008925 H          1 MOL1         0.0958
       4    H3      20.519155   19.589369   19.552953 H          1 MOL1         0.0958
       5    C2      19.650324   18.243173   21.050729 C.3        1 MOL1        -0.1412
       6    H4      20.001379   17.635450   21.895406 H          1 MOL1         0.0947
       7    H5      19.224049   17.534945   20.326690 H          1 MOL1         0.0947
       8    C3      18.530828   19.208942   21.515021 C.3        1 MOL1        -0.1437
       9    H6      18.127149   19.730677   20.636487 H          1 MOL1         0.0947
      10    H7      17.695052   18.620307   21.915592 H          1 MOL1         0.0947
      11    C4      18.965303   20.269389   22.562567 C.3        1 MOL1        -0.1437
      12    H8      18.088307   20.871782   22.836327 H          1 MOL1         0.0947
      13    H9      19.669232   20.970871   22.095333 H          1 MOL1         0.0947
      14    C5      19.607737   19.703127   23.855197 C.3        1 MOL1        -0.1437
      15    H10     20.540478   19.178241   23.610342 H          1 MOL1         0.0947
      16    H11     19.896292   20.552103   24.488612 H          1 MOL1         0.0947
      17    C6      18.668660   18.760797   24.649892 C.3        1 MOL1        -0.1437
      18    H12     18.395450   17.900642   24.025044 H          1 MOL1         0.0947
      19    H13     17.732258   19.284223   24.887478 H          1 MOL1         0.0947
      20    C7      19.307339   18.227364   25.953725 C.3        1 MOL1        -0.1477
      21    H14     18.629761   17.491017   26.406054 H          1 MOL1         0.0947
      22    H15     20.238169   17.694691   25.717516 H          1 MOL1         0.0947
      23    C8      19.592891   19.341614   26.977928 C.3        1 MOL1         0.0145
      24    H16     18.666170   19.872391   27.212061 H          1 MOL1         0.0921
      25    H17     20.303989   20.057752   26.558428 H          1 MOL1         0.0921
      26    N1      20.172714   18.818083   28.275889 N.4        1 MOL1        -0.5969
      27    H18     19.538873   18.157802   28.738218 H          1 MOL1         0.3603
      28    H19     20.355383   19.574825   28.944194 H          1 MOL1         0.3603
      29    H20     21.061863   18.329460   28.127151 H          1 MOL1         0.3603
@<TRIPOS>BOND
    1     1     2    1
    2     1     3    1
    3     1     4    1
    4     1     5    1
    5     5     6    1
    6     5     7    1
    7     5     8    1
    8     8     9    1
    9     8    10    1
   10     8    11    1
   11    11    12    1
   12    11    13    1
   13    11    14    1
   14    14    15    1
   15    14    16    1
   16    14    17    1
   17    17    18    1
   18    17    19    1
   19    17    20    1
   20    20    21    1
   21    20    22    1
   22    20    23    1
   23    23    24    1
   24    23    25    1
   25    23    26    1
   26    26    27    1
   27    26    28    1
   28    26    29    1
@<TRIPOS>SUBSTRUCTURE
       1 MOL1            1 RESIDUE      1      MOL     
@<SCITEGIC>MOL_PROPERTY
VM2 Rank
SciTegic.value.IntegerValue
186

@<SCITEGIC>MOL_PROPERTY
Conf_Id
SciTegic.value.IntegerValue
223

@<SCITEGIC>MOL_PROPERTY
Probability
SciTegic.value.DoubleValue
0.08

@<SCITEGIC>MOL_PROPERTY
Sum Probability
SciTegic.value.DoubleValue
97.62

@<SCITEGIC>MOL_PROPERTY
Delta G
SciTegic.value.DoubleValue
2.528

@<SCITEGIC>MOL_PROPERTY
G
SciTegic.value.DoubleValue
60.674

@<SCITEGIC>MOL_PROPERTY
E
SciTegic.value.DoubleValue
22.626

@<SCITEGIC>MOL_PROPERTY
-TS
SciTegic.value.DoubleValue
38.048

@<SCITEGIC>MOL_PROPERTY
U+W
SciTegic.value.DoubleValue
-1.518

@<SCITEGIC>MOL_PROPERTY
U
SciTegic.value.DoubleValue
50.224

@<SCITEGIC>MOL_PROPERTY
W
SciTegic.value.DoubleValue
-51.742

@<SCITEGIC>MOL_PROPERTY
W(PB)
SciTegic.value.DoubleValue
-54.189

@<SCITEGIC>MOL_PROPERTY
W(SA)
SciTegic.value.DoubleValue
2.447

@<SCITEGIC>MOL_PROPERTY
Valence
SciTegic.value.DoubleValue
4.334

@<SCITEGIC>MOL_PROPERTY
Coulomb
SciTegic.value.DoubleValue
45.055

@<SCITEGIC>MOL_PROPERTY
VdW
SciTegic.value.DoubleValue
0.835

@<SCITEGIC>MOL_PROPERTY
VdW6
SciTegic.value.DoubleValue
-10.075

@<SCITEGIC>MOL_PROPERTY
VdW12
SciTegic.value.DoubleValue
10.910

@<SCITEGIC>MOL_PROPERTY
Bond
SciTegic.value.DoubleValue
0.297

@<SCITEGIC>MOL_PROPERTY
Angle
SciTegic.value.DoubleValue
1.541

@<SCITEGIC>MOL_PROPERTY
Pdih
SciTegic.value.DoubleValue
2.496

@<SCITEGIC>MOL_PROPERTY
Idih
SciTegic.value.DoubleValue
0.000

@<SCITEGIC>MOL_PROPERTY
Tether
SciTegic.value.DoubleValue
0.000

@<TRIPOS>MOLECULE
guest-3_vm2.mol2 : vm2 ligand conformer 187
          29          28           1
SMALL
USER_CHARGES
 
@<TRIPOS>ATOM
       1    C1      19.377851   19.271502   19.947415 C.3        1 MOL1        -0.2427
       2    H1      19.936281   20.174529   20.223605 H          1 MOL1         0.0958
       3    H2      20.069883   18.576069   19.455099 H          1 MOL1         0.0958
       4    H3      18.616606   19.564805   19.213058 H          1 MOL1         0.0958
       5    C2      18.716428   18.616118   21.180635 C.3        1 MOL1        -0.1412
       6    H4      18.080818   17.786224   20.841836 H          1 MOL1         0.0947
       7    H5      18.041541   19.334830   21.664205 H          1 MOL1         0.0947
       8    C3      19.739485   18.067450   22.207279 C.3        1 MOL1        -0.1437
       9    H6      19.196213   17.563375   23.017433 H          1 MOL1         0.0947
      10    H7      20.340718   17.285044   21.724313 H          1 MOL1         0.0947
      11    C4      20.699253   19.127285   22.811628 C.3        1 MOL1        -0.1437
      12    H8      21.351075   19.518512   22.019381 H          1 MOL1         0.0947
      13    H9      21.375315   18.629481   23.519086 H          1 MOL1         0.0947
      14    C5      20.002989   20.320850   23.519030 C.3        1 MOL1        -0.1437
      15    H10     20.776095   20.989456   23.921795 H          1 MOL1         0.0947
      16    H11     19.458480   20.916075   22.774034 H          1 MOL1         0.0947
      17    C6      19.029037   19.934550   24.661836 C.3        1 MOL1        -0.1437
      18    H12     18.194325   19.344373   24.261004 H          1 MOL1         0.0947
      19    H13     18.583070   20.855298   25.062789 H          1 MOL1         0.0947
      20    C7      19.707889   19.162004   25.816678 C.3        1 MOL1        -0.1477
      21    H14     20.097812   18.203605   25.451299 H          1 MOL1         0.0947
      22    H15     20.563492   19.737869   26.193660 H          1 MOL1         0.0947
      23    C8      18.722316   18.896374   26.967892 C.3        1 MOL1         0.0145
      24    H16     17.876436   18.309220   26.600247 H          1 MOL1         0.0921
      25    H17     18.341024   19.846083   27.352719 H          1 MOL1         0.0921
      26    N1      19.348752   18.141867   28.122607 N.4        1 MOL1        -0.5969
      27    H18     20.136625   18.655372   28.531335 H          1 MOL1         0.3603
      28    H19     19.703853   17.224909   27.831893 H          1 MOL1         0.3603
      29    H20     18.675586   17.975844   28.878894 H          1 MOL1         0.3603
@<TRIPOS>BOND
    1     1     2    1
    2     1     3    1
    3     1     4    1
    4     1     5    1
    5     5     6    1
    6     5     7    1
    7     5     8    1
    8     8     9    1
    9     8    10    1
   10     8    11    1
   11    11    12    1
   12    11    13    1
   13    11    14    1
   14    14    15    1
   15    14    16    1
   16    14    17    1
   17    17    18    1
   18    17    19    1
   19    17    20    1
   20    20    21    1
   21    20    22    1
   22    20    23    1
   23    23    24    1
   24    23    25    1
   25    23    26    1
   26    26    27    1
   27    26    28    1
   28    26    29    1
@<TRIPOS>SUBSTRUCTURE
       1 MOL1            1 RESIDUE      1      MOL     
@<SCITEGIC>MOL_PROPERTY
VM2 Rank
SciTegic.value.IntegerValue
187

@<SCITEGIC>MOL_PROPERTY
Conf_Id
SciTegic.value.IntegerValue
2115

@<SCITEGIC>MOL_PROPERTY
Probability
SciTegic.value.DoubleValue
0.07

@<SCITEGIC>MOL_PROPERTY
Sum Probability
SciTegic.value.DoubleValue
97.69

@<SCITEGIC>MOL_PROPERTY
Delta G
SciTegic.value.DoubleValue
2.560

@<SCITEGIC>MOL_PROPERTY
G
SciTegic.value.DoubleValue
60.706

@<SCITEGIC>MOL_PROPERTY
E
SciTegic.value.DoubleValue
22.444

@<SCITEGIC>MOL_PROPERTY
-TS
SciTegic.value.DoubleValue
38.262

@<SCITEGIC>MOL_PROPERTY
U+W
SciTegic.value.DoubleValue
-1.700

@<SCITEGIC>MOL_PROPERTY
U
SciTegic.value.DoubleValue
50.309

@<SCITEGIC>MOL_PROPERTY
W
SciTegic.value.DoubleValue
-52.009

@<SCITEGIC>MOL_PROPERTY
W(PB)
SciTegic.value.DoubleValue
-54.452

@<SCITEGIC>MOL_PROPERTY
W(SA)
SciTegic.value.DoubleValue
2.443

@<SCITEGIC>MOL_PROPERTY
Valence
SciTegic.value.DoubleValue
4.444

@<SCITEGIC>MOL_PROPERTY
Coulomb
SciTegic.value.DoubleValue
45.192

@<SCITEGIC>MOL_PROPERTY
VdW
SciTegic.value.DoubleValue
0.673

@<SCITEGIC>MOL_PROPERTY
VdW6
SciTegic.value.DoubleValue
-10.457

@<SCITEGIC>MOL_PROPERTY
VdW12
SciTegic.value.DoubleValue
11.130

@<SCITEGIC>MOL_PROPERTY
Bond
SciTegic.value.DoubleValue
0.312

@<SCITEGIC>MOL_PROPERTY
Angle
SciTegic.value.DoubleValue
1.703

@<SCITEGIC>MOL_PROPERTY
Pdih
SciTegic.value.DoubleValue
2.429

@<SCITEGIC>MOL_PROPERTY
Idih
SciTegic.value.DoubleValue
0.000

@<SCITEGIC>MOL_PROPERTY
Tether
SciTegic.value.DoubleValue
0.000

@<TRIPOS>MOLECULE
guest-3_vm2.mol2 : vm2 ligand conformer 188
          29          28           1
SMALL
USER_CHARGES
 
@<TRIPOS>ATOM
       1    C1      19.323688   19.119275   19.943968 C.3        1 MOL1        -0.2427
       2    H1      20.306233   19.240758   19.469882 H          1 MOL1         0.0958
       3    H2      19.182913   18.056325   20.176134 H          1 MOL1         0.0958
       4    H3      18.558540   19.401737   19.209417 H          1 MOL1         0.0958
       5    C2      19.207048   19.995409   21.211493 C.3        1 MOL1        -0.1412
       6    H4      18.223214   19.845451   21.675649 H          1 MOL1         0.0947
       7    H5      19.242728   21.052906   20.914959 H          1 MOL1         0.0947
       8    C3      20.332281   19.733867   22.244512 C.3        1 MOL1        -0.1437
       9    H6      21.299201   19.979495   21.784476 H          1 MOL1         0.0947
      10    H7      20.217812   20.435135   23.081593 H          1 MOL1         0.0947
      11    C4      20.398988   18.283147   22.792783 C.3        1 MOL1        -0.1437
      12    H8      21.227527   18.213918   23.509788 H          1 MOL1         0.0947
      13    H9      20.668614   17.600048   21.976532 H          1 MOL1         0.0947
      14    C5      19.095675   17.770145   23.462119 C.3        1 MOL1        -0.1437
      15    H10     18.308193   17.682299   22.701884 H          1 MOL1         0.0947
      16    H11     19.267469   16.748299   23.827179 H          1 MOL1         0.0947
      17    C6      18.568165   18.638923   24.632920 C.3        1 MOL1        -0.1437
      18    H12     17.635461   18.191389   25.003334 H          1 MOL1         0.0947
      19    H13     18.299091   19.638838   24.267560 H          1 MOL1         0.0947
      20    C7      19.565972   18.763061   25.807782 C.3        1 MOL1        -0.1477
      21    H14     19.860588   17.761989   26.149612 H          1 MOL1         0.0947
      22    H15     20.478497   19.273692   25.475179 H          1 MOL1         0.0947
      23    C8      18.953188   19.545427   26.982349 C.3        1 MOL1         0.0145
      24    H16     18.052597   19.035280   27.334641 H          1 MOL1         0.0921
      25    H17     18.673058   20.548718   26.650147 H          1 MOL1         0.0921
      26    N1      19.898995   19.688747   28.157075 N.4        1 MOL1        -0.5969
      27    H18     20.180051   18.777493   28.534057 H          1 MOL1         0.3603
      28    H19     19.471150   20.212377   28.928727 H          1 MOL1         0.3603
      29    H20     20.757279   20.186331   27.897884 H          1 MOL1         0.3603
@<TRIPOS>BOND
    1     1     2    1
    2     1     3    1
    3     1     4    1
    4     1     5    1
    5     5     6    1
    6     5     7    1
    7     5     8    1
    8     8     9    1
    9     8    10    1
   10     8    11    1
   11    11    12    1
   12    11    13    1
   13    11    14    1
   14    14    15    1
   15    14    16    1
   16    14    17    1
   17    17    18    1
   18    17    19    1
   19    17    20    1
   20    20    21    1
   21    20    22    1
   22    20    23    1
   23    23    24    1
   24    23    25    1
   25    23    26    1
   26    26    27    1
   27    26    28    1
   28    26    29    1
@<TRIPOS>SUBSTRUCTURE
       1 MOL1            1 RESIDUE      1      MOL     
@<SCITEGIC>MOL_PROPERTY
VM2 Rank
SciTegic.value.IntegerValue
188

@<SCITEGIC>MOL_PROPERTY
Conf_Id
SciTegic.value.IntegerValue
819

@<SCITEGIC>MOL_PROPERTY
Probability
SciTegic.value.DoubleValue
0.07

@<SCITEGIC>MOL_PROPERTY
Sum Probability
SciTegic.value.DoubleValue
97.76

@<SCITEGIC>MOL_PROPERTY
Delta G
SciTegic.value.DoubleValue
2.578

@<SCITEGIC>MOL_PROPERTY
G
SciTegic.value.DoubleValue
60.724

@<SCITEGIC>MOL_PROPERTY
E
SciTegic.value.DoubleValue
22.463

@<SCITEGIC>MOL_PROPERTY
-TS
SciTegic.value.DoubleValue
38.262

@<SCITEGIC>MOL_PROPERTY
U+W
SciTegic.value.DoubleValue
-1.682

@<SCITEGIC>MOL_PROPERTY
U
SciTegic.value.DoubleValue
50.309

@<SCITEGIC>MOL_PROPERTY
W
SciTegic.value.DoubleValue
-51.991

@<SCITEGIC>MOL_PROPERTY
W(PB)
SciTegic.value.DoubleValue
-54.442

@<SCITEGIC>MOL_PROPERTY
W(SA)
SciTegic.value.DoubleValue
2.451

@<SCITEGIC>MOL_PROPERTY
Valence
SciTegic.value.DoubleValue
4.444

@<SCITEGIC>MOL_PROPERTY
Coulomb
SciTegic.value.DoubleValue
45.192

@<SCITEGIC>MOL_PROPERTY
VdW
SciTegic.value.DoubleValue
0.673

@<SCITEGIC>MOL_PROPERTY
VdW6
SciTegic.value.DoubleValue
-10.457

@<SCITEGIC>MOL_PROPERTY
VdW12
SciTegic.value.DoubleValue
11.130

@<SCITEGIC>MOL_PROPERTY
Bond
SciTegic.value.DoubleValue
0.312

@<SCITEGIC>MOL_PROPERTY
Angle
SciTegic.value.DoubleValue
1.703

@<SCITEGIC>MOL_PROPERTY
Pdih
SciTegic.value.DoubleValue
2.429

@<SCITEGIC>MOL_PROPERTY
Idih
SciTegic.value.DoubleValue
0.000

@<SCITEGIC>MOL_PROPERTY
Tether
SciTegic.value.DoubleValue
0.000

@<TRIPOS>MOLECULE
guest-3_vm2.mol2 : vm2 ligand conformer 189
          29          28           1
SMALL
USER_CHARGES
 
@<TRIPOS>ATOM
       1    C1      20.950085   17.968175   21.547591 C.3        1 MOL1        -0.2427
       2    H1      20.439797   17.160489   21.007061 H          1 MOL1         0.0958
       3    H2      22.011779   17.940041   21.270418 H          1 MOL1         0.0958
       4    H3      20.883730   17.758797   22.622271 H          1 MOL1         0.0958
       5    C2      20.336148   19.343054   21.199643 C.3        1 MOL1        -0.1412
       6    H4      20.532652   19.560236   20.140488 H          1 MOL1         0.0947
       7    H5      20.847833   20.131599   21.767417 H          1 MOL1         0.0947
       8    C3      18.806810   19.414957   21.441850 C.3        1 MOL1        -0.1437
       9    H6      18.447474   20.409576   21.144068 H          1 MOL1         0.0947
      10    H7      18.307417   18.701881   20.771639 H          1 MOL1         0.0947
      11    C4      18.354292   19.129854   22.896943 C.3        1 MOL1        -0.1437
      12    H8      18.608539   18.096228   23.162832 H          1 MOL1         0.0947
      13    H9      17.258341   19.193456   22.938203 H          1 MOL1         0.0947
      14    C5      18.955599   20.112834   23.932397 C.3        1 MOL1        -0.1437
      15    H10     20.046285   19.999170   23.969665 H          1 MOL1         0.0947
      16    H11     18.767445   21.142508   23.598731 H          1 MOL1         0.0947
      17    C6      18.366443   19.942571   25.356243 C.3        1 MOL1        -0.1437
      18    H12     17.289484   20.158039   25.327355 H          1 MOL1         0.0947
      19    H13     18.804192   20.705043   26.014412 H          1 MOL1         0.0947
      20    C7      18.579365   18.540422   25.985000 C.3        1 MOL1        -0.1477
      21    H14     18.175233   18.537674   27.005952 H          1 MOL1         0.0947
      22    H15     17.995752   17.794793   25.430109 H          1 MOL1         0.0947
      23    C8      20.053136   18.089340   26.024367 C.3        1 MOL1         0.0145
      24    H16     20.455068   18.054402   25.008529 H          1 MOL1         0.0921
      25    H17     20.114993   17.084136   26.450024 H          1 MOL1         0.0921
      26    N1      20.942123   18.996792   26.850966 N.4        1 MOL1        -0.5969
      27    H18     21.915268   18.672478   26.860404 H          1 MOL1         0.3603
      28    H19     20.632006   19.045180   27.826961 H          1 MOL1         0.3603
      29    H20     20.945271   19.954385   26.486098 H          1 MOL1         0.3603
@<TRIPOS>BOND
    1     1     2    1
    2     1     3    1
    3     1     4    1
    4     1     5    1
    5     5     6    1
    6     5     7    1
    7     5     8    1
    8     8     9    1
    9     8    10    1
   10     8    11    1
   11    11    12    1
   12    11    13    1
   13    11    14    1
   14    14    15    1
   15    14    16    1
   16    14    17    1
   17    17    18    1
   18    17    19    1
   19    17    20    1
   20    20    21    1
   21    20    22    1
   22    20    23    1
   23    23    24    1
   24    23    25    1
   25    23    26    1
   26    26    27    1
   27    26    28    1
   28    26    29    1
@<TRIPOS>SUBSTRUCTURE
       1 MOL1            1 RESIDUE      1      MOL     
@<SCITEGIC>MOL_PROPERTY
VM2 Rank
SciTegic.value.IntegerValue
189

@<SCITEGIC>MOL_PROPERTY
Conf_Id
SciTegic.value.IntegerValue
1989

@<SCITEGIC>MOL_PROPERTY
Probability
SciTegic.value.DoubleValue
0.06

@<SCITEGIC>MOL_PROPERTY
Sum Probability
SciTegic.value.DoubleValue
97.82

@<SCITEGIC>MOL_PROPERTY
Delta G
SciTegic.value.DoubleValue
2.696

@<SCITEGIC>MOL_PROPERTY
G
SciTegic.value.DoubleValue
60.842

@<SCITEGIC>MOL_PROPERTY
E
SciTegic.value.DoubleValue
22.582

@<SCITEGIC>MOL_PROPERTY
-TS
SciTegic.value.DoubleValue
38.259

@<SCITEGIC>MOL_PROPERTY
U+W
SciTegic.value.DoubleValue
-1.562

@<SCITEGIC>MOL_PROPERTY
U
SciTegic.value.DoubleValue
51.080

@<SCITEGIC>MOL_PROPERTY
W
SciTegic.value.DoubleValue
-52.642

@<SCITEGIC>MOL_PROPERTY
W(PB)
SciTegic.value.DoubleValue
-54.975

@<SCITEGIC>MOL_PROPERTY
W(SA)
SciTegic.value.DoubleValue
2.333

@<SCITEGIC>MOL_PROPERTY
Valence
SciTegic.value.DoubleValue
4.343

@<SCITEGIC>MOL_PROPERTY
Coulomb
SciTegic.value.DoubleValue
46.161

@<SCITEGIC>MOL_PROPERTY
VdW
SciTegic.value.DoubleValue
0.575

@<SCITEGIC>MOL_PROPERTY
VdW6
SciTegic.value.DoubleValue
-11.242

@<SCITEGIC>MOL_PROPERTY
VdW12
SciTegic.value.DoubleValue
11.818

@<SCITEGIC>MOL_PROPERTY
Bond
SciTegic.value.DoubleValue
0.317

@<SCITEGIC>MOL_PROPERTY
Angle
SciTegic.value.DoubleValue
1.533

@<SCITEGIC>MOL_PROPERTY
Pdih
SciTegic.value.DoubleValue
2.494

@<SCITEGIC>MOL_PROPERTY
Idih
SciTegic.value.DoubleValue
0.000

@<SCITEGIC>MOL_PROPERTY
Tether
SciTegic.value.DoubleValue
0.000

@<TRIPOS>MOLECULE
guest-3_vm2.mol2 : vm2 ligand conformer 190
          29          28           1
SMALL
USER_CHARGES
 
@<TRIPOS>ATOM
       1    C1      21.393413   19.025985   20.801840 C.3        1 MOL1        -0.2427
       2    H1      21.733903   18.041507   21.148351 H          1 MOL1         0.0958
       3    H2      21.032378   18.919479   19.770566 H          1 MOL1         0.0958
       4    H3      22.261847   19.697263   20.786951 H          1 MOL1         0.0958
       5    C2      20.287912   19.585565   21.721733 C.3        1 MOL1        -0.1412
       6    H4      19.988671   20.582123   21.368237 H          1 MOL1         0.0947
       7    H5      20.697617   19.715570   22.731663 H          1 MOL1         0.0947
       8    C3      19.053710   18.654114   21.761583 C.3        1 MOL1        -0.1437
       9    H6      18.701439   18.486238   20.734501 H          1 MOL1         0.0947
      10    H7      19.344653   17.666946   22.143955 H          1 MOL1         0.0947
      11    C4      17.874506   19.220621   22.594172 C.3        1 MOL1        -0.1437
      12    H8      17.031319   18.518777   22.534506 H          1 MOL1         0.0947
      13    H9      17.523843   20.150987   22.126644 H          1 MOL1         0.0947
      14    C5      18.189949   19.501286   24.086024 C.3        1 MOL1        -0.1437
      15    H10     18.948741   20.290375   24.160571 H          1 MOL1         0.0947
      16    H11     17.285444   19.907366   24.559378 H          1 MOL1         0.0947
      17    C6      18.644026   18.242687   24.867276 C.3        1 MOL1        -0.1437
      18    H12     19.590009   17.864409   24.459767 H          1 MOL1         0.0947
      19    H13     17.905066   17.442922   24.721137 H          1 MOL1         0.0947
      20    C7      18.802280   18.498039   26.386871 C.3        1 MOL1        -0.1477
      21    H14     17.832731   18.796971   26.806919 H          1 MOL1         0.0947
      22    H15     19.076053   17.559406   26.886669 H          1 MOL1         0.0947
      23    C8      19.846736   19.578220   26.733674 C.3        1 MOL1         0.0145
      24    H16     19.872357   19.724127   27.816965 H          1 MOL1         0.0921
      25    H17     19.565673   20.527200   26.269940 H          1 MOL1         0.0921
      26    N1      21.251467   19.231483   26.281827 N.4        1 MOL1        -0.5969
      27    H18     21.299653   19.103560   25.266443 H          1 MOL1         0.3603
      28    H19     21.585186   18.363648   26.714051 H          1 MOL1         0.3603
      29    H20     21.923103   19.966937   26.527936 H          1 MOL1         0.3603
@<TRIPOS>BOND
    1     1     2    1
    2     1     3    1
    3     1     4    1
    4     1     5    1
    5     5     6    1
    6     5     7    1
    7     5     8    1
    8     8     9    1
    9     8    10    1
   10     8    11    1
   11    11    12    1
   12    11    13    1
   13    11    14    1
   14    14    15    1
   15    14    16    1
   16    14    17    1
   17    17    18    1
   18    17    19    1
   19    17    20    1
   20    20    21    1
   21    20    22    1
   22    20    23    1
   23    23    24    1
   24    23    25    1
   25    23    26    1
   26    26    27    1
   27    26    28    1
   28    26    29    1
@<TRIPOS>SUBSTRUCTURE
       1 MOL1            1 RESIDUE      1      MOL     
@<SCITEGIC>MOL_PROPERTY
VM2 Rank
SciTegic.value.IntegerValue
190

@<SCITEGIC>MOL_PROPERTY
Conf_Id
SciTegic.value.IntegerValue
1683

@<SCITEGIC>MOL_PROPERTY
Probability
SciTegic.value.DoubleValue
0.06

@<SCITEGIC>MOL_PROPERTY
Sum Probability
SciTegic.value.DoubleValue
97.87

@<SCITEGIC>MOL_PROPERTY
Delta G
SciTegic.value.DoubleValue
2.701

@<SCITEGIC>MOL_PROPERTY
G
SciTegic.value.DoubleValue
60.847

@<SCITEGIC>MOL_PROPERTY
E
SciTegic.value.DoubleValue
22.946

@<SCITEGIC>MOL_PROPERTY
-TS
SciTegic.value.DoubleValue
37.902

@<SCITEGIC>MOL_PROPERTY
U+W
SciTegic.value.DoubleValue
-1.199

@<SCITEGIC>MOL_PROPERTY
U
SciTegic.value.DoubleValue
51.250

@<SCITEGIC>MOL_PROPERTY
W
SciTegic.value.DoubleValue
-52.449

@<SCITEGIC>MOL_PROPERTY
W(PB)
SciTegic.value.DoubleValue
-54.846

@<SCITEGIC>MOL_PROPERTY
W(SA)
SciTegic.value.DoubleValue
2.398

@<SCITEGIC>MOL_PROPERTY
Valence
SciTegic.value.DoubleValue
3.914

@<SCITEGIC>MOL_PROPERTY
Coulomb
SciTegic.value.DoubleValue
46.712

@<SCITEGIC>MOL_PROPERTY
VdW
SciTegic.value.DoubleValue
0.624

@<SCITEGIC>MOL_PROPERTY
VdW6
SciTegic.value.DoubleValue
-10.191

@<SCITEGIC>MOL_PROPERTY
VdW12
SciTegic.value.DoubleValue
10.814

@<SCITEGIC>MOL_PROPERTY
Bond
SciTegic.value.DoubleValue
0.276

@<SCITEGIC>MOL_PROPERTY
Angle
SciTegic.value.DoubleValue
1.253

@<SCITEGIC>MOL_PROPERTY
Pdih
SciTegic.value.DoubleValue
2.385

@<SCITEGIC>MOL_PROPERTY
Idih
SciTegic.value.DoubleValue
0.000

@<SCITEGIC>MOL_PROPERTY
Tether
SciTegic.value.DoubleValue
0.000

@<TRIPOS>MOLECULE
guest-3_vm2.mol2 : vm2 ligand conformer 191
          29          28           1
SMALL
USER_CHARGES
 
@<TRIPOS>ATOM
       1    C1      20.410541   18.450206   19.349381 C.3        1 MOL1        -0.2427
       2    H1      21.381806   18.958228   19.411102 H          1 MOL1         0.0958
       3    H2      20.573035   17.378943   19.526128 H          1 MOL1         0.0958
       4    H3      20.032219   18.569400   18.325800 H          1 MOL1         0.0958
       5    C2      19.412600   19.035671   20.370743 C.3        1 MOL1        -0.1412
       6    H4      18.442012   18.531591   20.262303 H          1 MOL1         0.0947
       7    H5      19.244510   20.098711   20.148060 H          1 MOL1         0.0947
       8    C3      19.921524   18.880762   21.820875 C.3        1 MOL1        -0.1437
       9    H6      20.090363   17.816882   22.037692 H          1 MOL1         0.0947
      10    H7      20.892687   19.384408   21.923801 H          1 MOL1         0.0947
      11    C4      18.924594   19.465910   22.846498 C.3        1 MOL1        -0.1437
      12    H8      17.953807   18.961431   22.743608 H          1 MOL1         0.0947
      13    H9      18.755483   20.529191   22.626777 H          1 MOL1         0.0947
      14    C5      19.434745   19.312242   24.297058 C.3        1 MOL1        -0.1437
      15    H10     19.603617   18.247394   24.499334 H          1 MOL1         0.0947
      16    H11     20.401178   19.824755   24.400643 H          1 MOL1         0.0947
      17    C6      18.428331   19.886836   25.321825 C.3        1 MOL1        -0.1437
      18    H12     17.500808   19.298306   25.293972 H          1 MOL1         0.0947
      19    H13     18.153280   20.906151   25.017272 H          1 MOL1         0.0947
      20    C7      18.958096   19.945847   26.777382 C.3        1 MOL1        -0.1477
      21    H14     19.850925   20.582681   26.833813 H          1 MOL1         0.0947
      22    H15     18.195421   20.441003   27.393011 H          1 MOL1         0.0947
      23    C8      19.250237   18.569021   27.409022 C.3        1 MOL1         0.0145
      24    H16     18.475788   17.854644   27.117173 H          1 MOL1         0.0921
      25    H17     19.230019   18.665394   28.497959 H          1 MOL1         0.0921
      26    N1      20.603332   17.991506   27.042216 N.4        1 MOL1        -0.5969
      27    H18     21.370155   18.600312   27.346676 H          1 MOL1         0.3603
      28    H19     20.700446   17.865149   26.030778 H          1 MOL1         0.3603
      29    H20     20.756940   17.075896   27.478962 H          1 MOL1         0.3603
@<TRIPOS>BOND
    1     1     2    1
    2     1     3    1
    3     1     4    1
    4     1     5    1
    5     5     6    1
    6     5     7    1
    7     5     8    1
    8     8     9    1
    9     8    10    1
   10     8    11    1
   11    11    12    1
   12    11    13    1
   13    11    14    1
   14    14    15    1
   15    14    16    1
   16    14    17    1
   17    17    18    1
   18    17    19    1
   19    17    20    1
   20    20    21    1
   21    20    22    1
   22    20    23    1
   23    23    24    1
   24    23    25    1
   25    23    26    1
   26    26    27    1
   27    26    28    1
   28    26    29    1
@<TRIPOS>SUBSTRUCTURE
       1 MOL1            1 RESIDUE      1      MOL     
@<SCITEGIC>MOL_PROPERTY
VM2 Rank
SciTegic.value.IntegerValue
191

@<SCITEGIC>MOL_PROPERTY
Conf_Id
SciTegic.value.IntegerValue
1837

@<SCITEGIC>MOL_PROPERTY
Probability
SciTegic.value.DoubleValue
0.05

@<SCITEGIC>MOL_PROPERTY
Sum Probability
SciTegic.value.DoubleValue
97.93

@<SCITEGIC>MOL_PROPERTY
Delta G
SciTegic.value.DoubleValue
2.740

@<SCITEGIC>MOL_PROPERTY
G
SciTegic.value.DoubleValue
60.886

@<SCITEGIC>MOL_PROPERTY
E
SciTegic.value.DoubleValue
23.547

@<SCITEGIC>MOL_PROPERTY
-TS
SciTegic.value.DoubleValue
37.340

@<SCITEGIC>MOL_PROPERTY
U+W
SciTegic.value.DoubleValue
-0.598

@<SCITEGIC>MOL_PROPERTY
U
SciTegic.value.DoubleValue
51.316

@<SCITEGIC>MOL_PROPERTY
W
SciTegic.value.DoubleValue
-51.913

@<SCITEGIC>MOL_PROPERTY
W(PB)
SciTegic.value.DoubleValue
-54.442

@<SCITEGIC>MOL_PROPERTY
W(SA)
SciTegic.value.DoubleValue
2.529

@<SCITEGIC>MOL_PROPERTY
Valence
SciTegic.value.DoubleValue
4.173

@<SCITEGIC>MOL_PROPERTY
Coulomb
SciTegic.value.DoubleValue
46.442

@<SCITEGIC>MOL_PROPERTY
VdW
SciTegic.value.DoubleValue
0.700

@<SCITEGIC>MOL_PROPERTY
VdW6
SciTegic.value.DoubleValue
-8.432

@<SCITEGIC>MOL_PROPERTY
VdW12
SciTegic.value.DoubleValue
9.131

@<SCITEGIC>MOL_PROPERTY
Bond
SciTegic.value.DoubleValue
0.203

@<SCITEGIC>MOL_PROPERTY
Angle
SciTegic.value.DoubleValue
0.957

@<SCITEGIC>MOL_PROPERTY
Pdih
SciTegic.value.DoubleValue
3.013

@<SCITEGIC>MOL_PROPERTY
Idih
SciTegic.value.DoubleValue
0.000

@<SCITEGIC>MOL_PROPERTY
Tether
SciTegic.value.DoubleValue
0.000

@<TRIPOS>MOLECULE
guest-3_vm2.mol2 : vm2 ligand conformer 192
          29          28           1
SMALL
USER_CHARGES
 
@<TRIPOS>ATOM
       1    C1      20.651324   19.126600   19.364482 C.3        1 MOL1        -0.2427
       2    H1      21.082607   18.117407   19.392372 H          1 MOL1         0.0958
       3    H2      20.297197   19.313717   18.342408 H          1 MOL1         0.0958
       4    H3      21.451312   19.846535   19.581190 H          1 MOL1         0.0958
       5    C2      19.493548   19.263026   20.375807 C.3        1 MOL1        -0.1412
       6    H4      18.695072   18.554797   20.113614 H          1 MOL1         0.0947
       7    H5      19.060949   20.270580   20.301053 H          1 MOL1         0.0947
       8    C3      19.965462   19.004241   21.823638 C.3        1 MOL1        -0.1437
       9    H6      20.398856   17.996875   21.892890 H          1 MOL1         0.0947
      10    H7      20.765133   19.712879   22.079988 H          1 MOL1         0.0947
      11    C4      18.808613   19.140112   22.839223 C.3        1 MOL1        -0.1437
      12    H8      18.009119   18.432272   22.579967 H          1 MOL1         0.0947
      13    H9      18.376078   20.147905   22.770081 H          1 MOL1         0.0947
      14    C5      19.280682   18.879479   24.287400 C.3        1 MOL1        -0.1437
      15    H10     19.704740   17.868180   24.356978 H          1 MOL1         0.0947
      16    H11     20.081239   19.589362   24.529292 H          1 MOL1         0.0947
      17    C6      18.123166   19.029570   25.302688 C.3        1 MOL1        -0.1437
      18    H12     17.270480   18.426086   24.961891 H          1 MOL1         0.0947
      19    H13     17.776246   20.072171   25.311261 H          1 MOL1         0.0947
      20    C7      18.476031   18.591623   26.747150 C.3        1 MOL1        -0.1477
      21    H14     17.563410   18.665556   27.353375 H          1 MOL1         0.0947
      22    H15     18.765100   17.532387   26.765722 H          1 MOL1         0.0947
      23    C8      19.563185   19.448143   27.428643 C.3        1 MOL1         0.0145
      24    H16     19.471285   19.343173   28.513086 H          1 MOL1         0.0921
      25    H17     19.418176   20.501971   27.176253 H          1 MOL1         0.0921
      26    N1      20.981988   19.055207   27.065969 N.4        1 MOL1        -0.5969
      27    H18     21.187612   18.087466   27.335327 H          1 MOL1         0.3603
      28    H19     21.673198   19.649887   27.536362 H          1 MOL1         0.3603
      29    H20     21.151314   19.131673   26.059048 H          1 MOL1         0.3603
@<TRIPOS>BOND
    1     1     2    1
    2     1     3    1
    3     1     4    1
    4     1     5    1
    5     5     6    1
    6     5     7    1
    7     5     8    1
    8     8     9    1
    9     8    10    1
   10     8    11    1
   11    11    12    1
   12    11    13    1
   13    11    14    1
   14    14    15    1
   15    14    16    1
   16    14    17    1
   17    17    18    1
   18    17    19    1
   19    17    20    1
   20    20    21    1
   21    20    22    1
   22    20    23    1
   23    23    24    1
   24    23    25    1
   25    23    26    1
   26    26    27    1
   27    26    28    1
   28    26    29    1
@<TRIPOS>SUBSTRUCTURE
       1 MOL1            1 RESIDUE      1      MOL     
@<SCITEGIC>MOL_PROPERTY
VM2 Rank
SciTegic.value.IntegerValue
192

@<SCITEGIC>MOL_PROPERTY
Conf_Id
SciTegic.value.IntegerValue
210

@<SCITEGIC>MOL_PROPERTY
Probability
SciTegic.value.DoubleValue
0.05

@<SCITEGIC>MOL_PROPERTY
Sum Probability
SciTegic.value.DoubleValue
97.98

@<SCITEGIC>MOL_PROPERTY
Delta G
SciTegic.value.DoubleValue
2.772

@<SCITEGIC>MOL_PROPERTY
G
SciTegic.value.DoubleValue
60.919

@<SCITEGIC>MOL_PROPERTY
E
SciTegic.value.DoubleValue
23.579

@<SCITEGIC>MOL_PROPERTY
-TS
SciTegic.value.DoubleValue
37.340

@<SCITEGIC>MOL_PROPERTY
U+W
SciTegic.value.DoubleValue
-0.566

@<SCITEGIC>MOL_PROPERTY
U
SciTegic.value.DoubleValue
51.315

@<SCITEGIC>MOL_PROPERTY
W
SciTegic.value.DoubleValue
-51.881

@<SCITEGIC>MOL_PROPERTY
W(PB)
SciTegic.value.DoubleValue
-54.424

@<SCITEGIC>MOL_PROPERTY
W(SA)
SciTegic.value.DoubleValue
2.542

@<SCITEGIC>MOL_PROPERTY
Valence
SciTegic.value.DoubleValue
4.174

@<SCITEGIC>MOL_PROPERTY
Coulomb
SciTegic.value.DoubleValue
46.442

@<SCITEGIC>MOL_PROPERTY
VdW
SciTegic.value.DoubleValue
0.700

@<SCITEGIC>MOL_PROPERTY
VdW6
SciTegic.value.DoubleValue
-8.431

@<SCITEGIC>MOL_PROPERTY
VdW12
SciTegic.value.DoubleValue
9.131

@<SCITEGIC>MOL_PROPERTY
Bond
SciTegic.value.DoubleValue
0.203

@<SCITEGIC>MOL_PROPERTY
Angle
SciTegic.value.DoubleValue
0.957

@<SCITEGIC>MOL_PROPERTY
Pdih
SciTegic.value.DoubleValue
3.013

@<SCITEGIC>MOL_PROPERTY
Idih
SciTegic.value.DoubleValue
0.000

@<SCITEGIC>MOL_PROPERTY
Tether
SciTegic.value.DoubleValue
0.000

@<TRIPOS>MOLECULE
guest-3_vm2.mol2 : vm2 ligand conformer 193
          29          28           1
SMALL
USER_CHARGES
 
@<TRIPOS>ATOM
       1    C1      20.625779   19.297039   20.337496 C.3        1 MOL1        -0.2427
       2    H1      21.134575   20.124332   19.826114 H          1 MOL1         0.0958
       3    H2      21.340547   18.853572   21.041813 H          1 MOL1         0.0958
       4    H3      20.371755   18.540818   19.583496 H          1 MOL1         0.0958
       5    C2      19.358995   19.805310   21.061938 C.3        1 MOL1        -0.1412
       6    H4      18.725199   20.334703   20.336977 H          1 MOL1         0.0947
       7    H5      19.638311   20.550768   21.818456 H          1 MOL1         0.0947
       8    C3      18.526121   18.670770   21.710531 C.3        1 MOL1        -0.1437
       9    H6      17.618414   19.102254   22.152514 H          1 MOL1         0.0947
      10    H7      18.173884   17.994348   20.919736 H          1 MOL1         0.0947
      11    C4      19.273959   17.831346   22.781383 C.3        1 MOL1        -0.1437
      12    H8      20.072946   17.255776   22.295347 H          1 MOL1         0.0947
      13    H9      18.579555   17.083892   23.188796 H          1 MOL1         0.0947
      14    C5      19.884080   18.641142   23.954472 C.3        1 MOL1        -0.1437
      15    H10     20.407055   17.936707   24.614281 H          1 MOL1         0.0947
      16    H11     20.652766   19.327424   23.575573 H          1 MOL1         0.0947
      17    C6      18.831896   19.432530   24.771690 C.3        1 MOL1        -0.1437
      18    H12     18.054301   18.748728   25.136978 H          1 MOL1         0.0947
      19    H13     18.323694   20.151787   24.116505 H          1 MOL1         0.0947
      20    C7      19.446383   20.216542   25.958446 C.3        1 MOL1        -0.1477
      21    H14     20.165923   20.950952   25.572780 H          1 MOL1         0.0947
      22    H15     18.657317   20.794427   26.457644 H          1 MOL1         0.0947
      23    C8      20.155674   19.329114   27.001356 C.3        1 MOL1         0.0145
      24    H16     20.573692   19.959948   27.790515 H          1 MOL1         0.0921
      25    H17     20.978930   18.787565   26.528654 H          1 MOL1         0.0921
      26    N1      19.241111   18.314207   27.657687 N.4        1 MOL1        -0.5969
      27    H18     18.460072   18.765643   28.144826 H          1 MOL1         0.3603
      28    H19     19.738657   17.744215   28.350472 H          1 MOL1         0.3603
      29    H20     18.838452   17.670365   26.969444 H          1 MOL1         0.3603
@<TRIPOS>BOND
    1     1     2    1
    2     1     3    1
    3     1     4    1
    4     1     5    1
    5     5     6    1
    6     5     7    1
    7     5     8    1
    8     8     9    1
    9     8    10    1
   10     8    11    1
   11    11    12    1
   12    11    13    1
   13    11    14    1
   14    14    15    1
   15    14    16    1
   16    14    17    1
   17    17    18    1
   18    17    19    1
   19    17    20    1
   20    20    21    1
   21    20    22    1
   22    20    23    1
   23    23    24    1
   24    23    25    1
   25    23    26    1
   26    26    27    1
   27    26    28    1
   28    26    29    1
@<TRIPOS>SUBSTRUCTURE
       1 MOL1            1 RESIDUE      1      MOL     
@<SCITEGIC>MOL_PROPERTY
VM2 Rank
SciTegic.value.IntegerValue
193

@<SCITEGIC>MOL_PROPERTY
Conf_Id
SciTegic.value.IntegerValue
446

@<SCITEGIC>MOL_PROPERTY
Probability
SciTegic.value.DoubleValue
0.05

@<SCITEGIC>MOL_PROPERTY
Sum Probability
SciTegic.value.DoubleValue
98.03

@<SCITEGIC>MOL_PROPERTY
Delta G
SciTegic.value.DoubleValue
2.802

@<SCITEGIC>MOL_PROPERTY
G
SciTegic.value.DoubleValue
60.948

@<SCITEGIC>MOL_PROPERTY
E
SciTegic.value.DoubleValue
22.710

@<SCITEGIC>MOL_PROPERTY
-TS
SciTegic.value.DoubleValue
38.238

@<SCITEGIC>MOL_PROPERTY
U+W
SciTegic.value.DoubleValue
-1.434

@<SCITEGIC>MOL_PROPERTY
U
SciTegic.value.DoubleValue
50.732

@<SCITEGIC>MOL_PROPERTY
W
SciTegic.value.DoubleValue
-52.166

@<SCITEGIC>MOL_PROPERTY
W(PB)
SciTegic.value.DoubleValue
-54.557

@<SCITEGIC>MOL_PROPERTY
W(SA)
SciTegic.value.DoubleValue
2.391

@<SCITEGIC>MOL_PROPERTY
Valence
SciTegic.value.DoubleValue
4.413

@<SCITEGIC>MOL_PROPERTY
Coulomb
SciTegic.value.DoubleValue
45.469

@<SCITEGIC>MOL_PROPERTY
VdW
SciTegic.value.DoubleValue
0.849

@<SCITEGIC>MOL_PROPERTY
VdW6
SciTegic.value.DoubleValue
-10.820

@<SCITEGIC>MOL_PROPERTY
VdW12
SciTegic.value.DoubleValue
11.669

@<SCITEGIC>MOL_PROPERTY
Bond
SciTegic.value.DoubleValue
0.322

@<SCITEGIC>MOL_PROPERTY
Angle
SciTegic.value.DoubleValue
1.661

@<SCITEGIC>MOL_PROPERTY
Pdih
SciTegic.value.DoubleValue
2.430

@<SCITEGIC>MOL_PROPERTY
Idih
SciTegic.value.DoubleValue
0.000

@<SCITEGIC>MOL_PROPERTY
Tether
SciTegic.value.DoubleValue
0.000

@<TRIPOS>MOLECULE
guest-3_vm2.mol2 : vm2 ligand conformer 194
          29          28           1
SMALL
USER_CHARGES
 
@<TRIPOS>ATOM
       1    C1      19.782234   18.060412   19.528955 C.3        1 MOL1        -0.2427
       2    H1      19.172401   17.423155   18.875464 H          1 MOL1         0.0958
       3    H2      19.977980   19.000151   18.996198 H          1 MOL1         0.0958
       4    H3      20.742346   17.553991   19.693180 H          1 MOL1         0.0958
       5    C2      19.057237   18.321669   20.866084 C.3        1 MOL1        -0.1412
       6    H4      18.845185   17.362610   21.359159 H          1 MOL1         0.0947
       7    H5      18.086739   18.797747   20.667652 H          1 MOL1         0.0947
       8    C3      19.895059   19.217198   21.805300 C.3        1 MOL1        -0.1437
       9    H6      20.864747   18.738105   21.999158 H          1 MOL1         0.0947
      10    H7      20.106842   20.173238   21.306770 H          1 MOL1         0.0947
      11    C4      19.172567   19.481188   23.145574 C.3        1 MOL1        -0.1437
      12    H8      18.953209   18.522246   23.628510 H          1 MOL1         0.0947
      13    H9      18.204798   19.962599   22.948302 H          1 MOL1         0.0947
      14    C5      20.013995   20.383587   24.081398 C.3        1 MOL1        -0.1437
      15    H10     20.998007   19.931174   24.266600 H          1 MOL1         0.0947
      16    H11     20.209022   21.329337   23.556934 H          1 MOL1         0.0947
      17    C6      19.317332   20.710928   25.427929 C.3        1 MOL1        -0.1437
      18    H12     18.231237   20.795213   25.284291 H          1 MOL1         0.0947
      19    H13     19.652241   21.706072   25.751968 H          1 MOL1         0.0947
      20    C7      19.629272   19.718087   26.575881 C.3        1 MOL1        -0.1477
      21    H14     20.711422   19.699921   26.761668 H          1 MOL1         0.0947
      22    H15     19.162413   20.091492   27.497059 H          1 MOL1         0.0947
      23    C8      19.132229   18.286006   26.312313 C.3        1 MOL1         0.0145
      24    H16     19.665713   17.863603   25.457379 H          1 MOL1         0.0921
      25    H17     18.063383   18.302563   26.082919 H          1 MOL1         0.0921
      26    N1      19.344075   17.358925   27.491565 N.4        1 MOL1        -0.5969
      27    H18     20.335276   17.280554   27.742244 H          1 MOL1         0.3603
      28    H19     19.009248   16.409291   27.294859 H          1 MOL1         0.3603
      29    H20     18.846216   17.684070   28.326955 H          1 MOL1         0.3603
@<TRIPOS>BOND
    1     1     2    1
    2     1     3    1
    3     1     4    1
    4     1     5    1
    5     5     6    1
    6     5     7    1
    7     5     8    1
    8     8     9    1
    9     8    10    1
   10     8    11    1
   11    11    12    1
   12    11    13    1
   13    11    14    1
   14    14    15    1
   15    14    16    1
   16    14    17    1
   17    17    18    1
   18    17    19    1
   19    17    20    1
   20    20    21    1
   21    20    22    1
   22    20    23    1
   23    23    24    1
   24    23    25    1
   25    23    26    1
   26    26    27    1
   27    26    28    1
   28    26    29    1
@<TRIPOS>SUBSTRUCTURE
       1 MOL1            1 RESIDUE      1      MOL     
@<SCITEGIC>MOL_PROPERTY
VM2 Rank
SciTegic.value.IntegerValue
194

@<SCITEGIC>MOL_PROPERTY
Conf_Id
SciTegic.value.IntegerValue
1607

@<SCITEGIC>MOL_PROPERTY
Probability
SciTegic.value.DoubleValue
0.05

@<SCITEGIC>MOL_PROPERTY
Sum Probability
SciTegic.value.DoubleValue
98.07

@<SCITEGIC>MOL_PROPERTY
Delta G
SciTegic.value.DoubleValue
2.809

@<SCITEGIC>MOL_PROPERTY
G
SciTegic.value.DoubleValue
60.955

@<SCITEGIC>MOL_PROPERTY
E
SciTegic.value.DoubleValue
23.632

@<SCITEGIC>MOL_PROPERTY
-TS
SciTegic.value.DoubleValue
37.323

@<SCITEGIC>MOL_PROPERTY
U+W
SciTegic.value.DoubleValue
-0.512

@<SCITEGIC>MOL_PROPERTY
U
SciTegic.value.DoubleValue
51.461

@<SCITEGIC>MOL_PROPERTY
W
SciTegic.value.DoubleValue
-51.973

@<SCITEGIC>MOL_PROPERTY
W(PB)
SciTegic.value.DoubleValue
-54.499

@<SCITEGIC>MOL_PROPERTY
W(SA)
SciTegic.value.DoubleValue
2.526

@<SCITEGIC>MOL_PROPERTY
Valence
SciTegic.value.DoubleValue
5.121

@<SCITEGIC>MOL_PROPERTY
Coulomb
SciTegic.value.DoubleValue
45.566

@<SCITEGIC>MOL_PROPERTY
VdW
SciTegic.value.DoubleValue
0.773

@<SCITEGIC>MOL_PROPERTY
VdW6
SciTegic.value.DoubleValue
-8.444

@<SCITEGIC>MOL_PROPERTY
VdW12
SciTegic.value.DoubleValue
9.217

@<SCITEGIC>MOL_PROPERTY
Bond
SciTegic.value.DoubleValue
0.226

@<SCITEGIC>MOL_PROPERTY
Angle
SciTegic.value.DoubleValue
1.115

@<SCITEGIC>MOL_PROPERTY
Pdih
SciTegic.value.DoubleValue
3.780

@<SCITEGIC>MOL_PROPERTY
Idih
SciTegic.value.DoubleValue
0.000

@<SCITEGIC>MOL_PROPERTY
Tether
SciTegic.value.DoubleValue
0.000

@<TRIPOS>MOLECULE
guest-3_vm2.mol2 : vm2 ligand conformer 195
          29          28           1
SMALL
USER_CHARGES
 
@<TRIPOS>ATOM
       1    C1      19.485602   18.139462   19.523748 C.3        1 MOL1        -0.2427
       2    H1      19.152838   19.061847   19.030057 H          1 MOL1         0.0958
       3    H2      20.570186   18.047221   19.380858 H          1 MOL1         0.0958
       4    H3      19.005439   17.293079   19.015692 H          1 MOL1         0.0958
       5    C2      19.122963   18.151504   21.023790 C.3        1 MOL1        -0.1412
       6    H4      19.437470   17.203546   21.482423 H          1 MOL1         0.0947
       7    H5      18.031108   18.210562   21.134493 H          1 MOL1         0.0947
       8    C3      19.786710   19.334269   21.763051 C.3        1 MOL1        -0.1437
       9    H6      20.877805   19.272223   21.648609 H          1 MOL1         0.0947
      10    H7      19.471384   20.278907   21.298720 H          1 MOL1         0.0947
      11    C4      19.425051   19.349557   23.265375 C.3        1 MOL1        -0.1437
      12    H8      19.740886   18.399174   23.714161 H          1 MOL1         0.0947
      13    H9      18.334503   19.419513   23.379229 H          1 MOL1         0.0947
      14    C5      20.102411   20.525549   24.006943 C.3        1 MOL1        -0.1437
      15    H10     21.192340   20.387449   23.990356 H          1 MOL1         0.0947
      16    H11     19.904607   21.455754   23.456512 H          1 MOL1         0.0947
      17    C6      19.629718   20.722343   25.470695 C.3        1 MOL1        -0.1437
      18    H12     18.558935   20.968425   25.491861 H          1 MOL1         0.0947
      19    H13     20.145843   21.606833   25.869109 H          1 MOL1         0.0947
      20    C7      19.918463   19.529287   26.416240 C.3        1 MOL1        -0.1477
      21    H14     20.881459   19.068306   26.159299 H          1 MOL1         0.0947
      22    H15     20.021201   19.912145   27.440386 H          1 MOL1         0.0947
      23    C8      18.798695   18.470435   26.412169 C.3        1 MOL1         0.0145
      24    H16     18.668534   18.059592   25.409371 H          1 MOL1         0.0921
      25    H17     17.856141   18.933677   26.716049 H          1 MOL1         0.0921
      26    N1      19.074387   17.315596   27.352989 N.4        1 MOL1        -0.5969
      27    H18     19.174913   17.630110   28.323784 H          1 MOL1         0.3603
      28    H19     19.936784   16.819084   27.105752 H          1 MOL1         0.3603
      29    H20     18.316560   16.624114   27.340010 H          1 MOL1         0.3603
@<TRIPOS>BOND
    1     1     2    1
    2     1     3    1
    3     1     4    1
    4     1     5    1
    5     5     6    1
    6     5     7    1
    7     5     8    1
    8     8     9    1
    9     8    10    1
   10     8    11    1
   11    11    12    1
   12    11    13    1
   13    11    14    1
   14    14    15    1
   15    14    16    1
   16    14    17    1
   17    17    18    1
   18    17    19    1
   19    17    20    1
   20    20    21    1
   21    20    22    1
   22    20    23    1
   23    23    24    1
   24    23    25    1
   25    23    26    1
   26    26    27    1
   27    26    28    1
   28    26    29    1
@<TRIPOS>SUBSTRUCTURE
       1 MOL1            1 RESIDUE      1      MOL     
@<SCITEGIC>MOL_PROPERTY
VM2 Rank
SciTegic.value.IntegerValue
195

@<SCITEGIC>MOL_PROPERTY
Conf_Id
SciTegic.value.IntegerValue
2808

@<SCITEGIC>MOL_PROPERTY
Probability
SciTegic.value.DoubleValue
0.05

@<SCITEGIC>MOL_PROPERTY
Sum Probability
SciTegic.value.DoubleValue
98.12

@<SCITEGIC>MOL_PROPERTY
Delta G
SciTegic.value.DoubleValue
2.818

@<SCITEGIC>MOL_PROPERTY
G
SciTegic.value.DoubleValue
60.965

@<SCITEGIC>MOL_PROPERTY
E
SciTegic.value.DoubleValue
23.441

@<SCITEGIC>MOL_PROPERTY
-TS
SciTegic.value.DoubleValue
37.524

@<SCITEGIC>MOL_PROPERTY
U+W
SciTegic.value.DoubleValue
-0.704

@<SCITEGIC>MOL_PROPERTY
U
SciTegic.value.DoubleValue
51.492

@<SCITEGIC>MOL_PROPERTY
W
SciTegic.value.DoubleValue
-52.196

@<SCITEGIC>MOL_PROPERTY
W(PB)
SciTegic.value.DoubleValue
-54.720

@<SCITEGIC>MOL_PROPERTY
W(SA)
SciTegic.value.DoubleValue
2.524

@<SCITEGIC>MOL_PROPERTY
Valence
SciTegic.value.DoubleValue
4.974

@<SCITEGIC>MOL_PROPERTY
Coulomb
SciTegic.value.DoubleValue
45.825

@<SCITEGIC>MOL_PROPERTY
VdW
SciTegic.value.DoubleValue
0.694

@<SCITEGIC>MOL_PROPERTY
VdW6
SciTegic.value.DoubleValue
-8.648

@<SCITEGIC>MOL_PROPERTY
VdW12
SciTegic.value.DoubleValue
9.342

@<SCITEGIC>MOL_PROPERTY
Bond
SciTegic.value.DoubleValue
0.214

@<SCITEGIC>MOL_PROPERTY
Angle
SciTegic.value.DoubleValue
1.149

@<SCITEGIC>MOL_PROPERTY
Pdih
SciTegic.value.DoubleValue
3.611

@<SCITEGIC>MOL_PROPERTY
Idih
SciTegic.value.DoubleValue
0.000

@<SCITEGIC>MOL_PROPERTY
Tether
SciTegic.value.DoubleValue
0.000

@<TRIPOS>MOLECULE
guest-3_vm2.mol2 : vm2 ligand conformer 196
          29          28           1
SMALL
USER_CHARGES
 
@<TRIPOS>ATOM
       1    C1      20.407019   19.818348   19.567803 C.3        1 MOL1        -0.2427
       2    H1      20.345749   20.722880   18.948843 H          1 MOL1         0.0958
       3    H2      21.468877   19.597464   19.737854 H          1 MOL1         0.0958
       4    H3      19.972386   18.988275   18.995676 H          1 MOL1         0.0958
       5    C2      19.661843   20.020931   20.904014 C.3        1 MOL1        -0.1412
       6    H4      18.611577   20.273261   20.701128 H          1 MOL1         0.0947
       7    H5      20.096598   20.877815   21.437514 H          1 MOL1         0.0947
       8    C3      19.732753   18.761064   21.794943 C.3        1 MOL1        -0.1437
       9    H6      19.299920   17.906871   21.256050 H          1 MOL1         0.0947
      10    H7      20.784354   18.511853   21.993524 H          1 MOL1         0.0947
      11    C4      18.987532   18.959743   23.134047 C.3        1 MOL1        -0.1437
      12    H8      17.936015   19.206109   22.931904 H          1 MOL1         0.0947
      13    H9      19.416563   19.821571   23.657588 H          1 MOL1         0.0947
      14    C5      19.056889   17.692402   24.021257 C.3        1 MOL1        -0.1437
      15    H10     18.618312   16.857710   23.456914 H          1 MOL1         0.0947
      16    H11     20.102853   17.414060   24.210317 H          1 MOL1         0.0947
      17    C6      18.291047   17.825214   25.363456 C.3        1 MOL1        -0.1437
      18    H12     17.918042   16.830133   25.643018 H          1 MOL1         0.0947
      19    H13     17.397623   18.451178   25.231928 H          1 MOL1         0.0947
      20    C7      19.143431   18.351825   26.545386 C.3        1 MOL1        -0.1477
      21    H14     18.532715   18.320591   27.457531 H          1 MOL1         0.0947
      22    H15     19.991542   17.675543   26.716395 H          1 MOL1         0.0947
      23    C8      19.665468   19.785382   26.345986 C.3        1 MOL1         0.0145
      24    H16     18.829318   20.456205   26.131098 H          1 MOL1         0.0921
      25    H17     20.358001   19.809865   25.501157 H          1 MOL1         0.0921
      26    N1      20.398017   20.323090   27.558108 N.4        1 MOL1        -0.5969
      27    H18     19.794762   20.352271   28.386776 H          1 MOL1         0.3603
      28    H19     20.740462   21.277866   27.404030 H          1 MOL1         0.3603
      29    H20     21.212640   19.748300   27.797832 H          1 MOL1         0.3603
@<TRIPOS>BOND
    1     1     2    1
    2     1     3    1
    3     1     4    1
    4     1     5    1
    5     5     6    1
    6     5     7    1
    7     5     8    1
    8     8     9    1
    9     8    10    1
   10     8    11    1
   11    11    12    1
   12    11    13    1
   13    11    14    1
   14    14    15    1
   15    14    16    1
   16    14    17    1
   17    17    18    1
   18    17    19    1
   19    17    20    1
   20    20    21    1
   21    20    22    1
   22    20    23    1
   23    23    24    1
   24    23    25    1
   25    23    26    1
   26    26    27    1
   27    26    28    1
   28    26    29    1
@<TRIPOS>SUBSTRUCTURE
       1 MOL1            1 RESIDUE      1      MOL     
@<SCITEGIC>MOL_PROPERTY
VM2 Rank
SciTegic.value.IntegerValue
196

@<SCITEGIC>MOL_PROPERTY
Conf_Id
SciTegic.value.IntegerValue
2578

@<SCITEGIC>MOL_PROPERTY
Probability
SciTegic.value.DoubleValue
0.05

@<SCITEGIC>MOL_PROPERTY
Sum Probability
SciTegic.value.DoubleValue
98.17

@<SCITEGIC>MOL_PROPERTY
Delta G
SciTegic.value.DoubleValue
2.819

@<SCITEGIC>MOL_PROPERTY
G
SciTegic.value.DoubleValue
60.965

@<SCITEGIC>MOL_PROPERTY
E
SciTegic.value.DoubleValue
23.643

@<SCITEGIC>MOL_PROPERTY
-TS
SciTegic.value.DoubleValue
37.322

@<SCITEGIC>MOL_PROPERTY
U+W
SciTegic.value.DoubleValue
-0.502

@<SCITEGIC>MOL_PROPERTY
U
SciTegic.value.DoubleValue
51.461

@<SCITEGIC>MOL_PROPERTY
W
SciTegic.value.DoubleValue
-51.962

@<SCITEGIC>MOL_PROPERTY
W(PB)
SciTegic.value.DoubleValue
-54.504

@<SCITEGIC>MOL_PROPERTY
W(SA)
SciTegic.value.DoubleValue
2.542

@<SCITEGIC>MOL_PROPERTY
Valence
SciTegic.value.DoubleValue
5.121

@<SCITEGIC>MOL_PROPERTY
Coulomb
SciTegic.value.DoubleValue
45.566

@<SCITEGIC>MOL_PROPERTY
VdW
SciTegic.value.DoubleValue
0.773

@<SCITEGIC>MOL_PROPERTY
VdW6
SciTegic.value.DoubleValue
-8.444

@<SCITEGIC>MOL_PROPERTY
VdW12
SciTegic.value.DoubleValue
9.217

@<SCITEGIC>MOL_PROPERTY
Bond
SciTegic.value.DoubleValue
0.226

@<SCITEGIC>MOL_PROPERTY
Angle
SciTegic.value.DoubleValue
1.116

@<SCITEGIC>MOL_PROPERTY
Pdih
SciTegic.value.DoubleValue
3.779

@<SCITEGIC>MOL_PROPERTY
Idih
SciTegic.value.DoubleValue
0.000

@<SCITEGIC>MOL_PROPERTY
Tether
SciTegic.value.DoubleValue
0.000

@<TRIPOS>MOLECULE
guest-3_vm2.mol2 : vm2 ligand conformer 197
          29          28           1
SMALL
USER_CHARGES
 
@<TRIPOS>ATOM
       1    C1      20.013391   19.570879   20.067064 C.3        1 MOL1        -0.2427
       2    H1      20.938885   19.089121   20.406101 H          1 MOL1         0.0958
       3    H2      19.489394   18.876625   19.397475 H          1 MOL1         0.0958
       4    H3      20.295945   20.454825   19.480890 H          1 MOL1         0.0958
       5    C2      19.116838   19.975401   21.258864 C.3        1 MOL1        -0.1412
       6    H4      18.261004   20.550180   20.878500 H          1 MOL1         0.0947
       7    H5      19.667189   20.656703   21.921280 H          1 MOL1         0.0947
       8    C3      18.580177   18.763889   22.062560 C.3        1 MOL1        -0.1437
       9    H6      17.903563   19.127805   22.847000 H          1 MOL1         0.0947
      10    H7      17.958065   18.146982   21.399763 H          1 MOL1         0.0947
      11    C4      19.670422   17.861429   22.700147 C.3        1 MOL1        -0.1437
      12    H8      20.248684   17.375249   21.903391 H          1 MOL1         0.0947
      13    H9      19.179493   17.040453   23.238865 H          1 MOL1         0.0947
      14    C5      20.653598   18.589184   23.656058 C.3        1 MOL1        -0.1437
      15    H10     21.359032   17.851354   24.062145 H          1 MOL1         0.0947
      16    H11     21.265706   19.293401   23.077069 H          1 MOL1         0.0947
      17    C6      19.992087   19.351175   24.833349 C.3        1 MOL1        -0.1437
      18    H12     19.350470   20.154288   24.447485 H          1 MOL1         0.0947
      19    H13     20.787039   19.847353   25.405345 H          1 MOL1         0.0947
      20    C7      19.173100   18.436621   25.778052 C.3        1 MOL1        -0.1477
      21    H14     18.355077   17.964544   25.219845 H          1 MOL1         0.0947
      22    H15     19.806248   17.623522   26.157083 H          1 MOL1         0.0947
      23    C8      18.558222   19.205706   26.963102 C.3        1 MOL1         0.0145
      24    H16     17.916503   18.532478   27.537975 H          1 MOL1         0.0921
      25    H17     17.941957   20.027545   26.588720 H          1 MOL1         0.0921
      26    N1      19.586166   19.783716   27.915803 N.4        1 MOL1        -0.5969
      27    H18     20.202218   20.455278   27.447196 H          1 MOL1         0.3603
      28    H19     20.183365   19.054267   28.318927 H          1 MOL1         0.3603
      29    H20     19.144227   20.276859   28.699404 H          1 MOL1         0.3603
@<TRIPOS>BOND
    1     1     2    1
    2     1     3    1
    3     1     4    1
    4     1     5    1
    5     5     6    1
    6     5     7    1
    7     5     8    1
    8     8     9    1
    9     8    10    1
   10     8    11    1
   11    11    12    1
   12    11    13    1
   13    11    14    1
   14    14    15    1
   15    14    16    1
   16    14    17    1
   17    17    18    1
   18    17    19    1
   19    17    20    1
   20    20    21    1
   21    20    22    1
   22    20    23    1
   23    23    24    1
   24    23    25    1
   25    23    26    1
   26    26    27    1
   27    26    28    1
   28    26    29    1
@<TRIPOS>SUBSTRUCTURE
       1 MOL1            1 RESIDUE      1      MOL     
@<SCITEGIC>MOL_PROPERTY
VM2 Rank
SciTegic.value.IntegerValue
197

@<SCITEGIC>MOL_PROPERTY
Conf_Id
SciTegic.value.IntegerValue
2310

@<SCITEGIC>MOL_PROPERTY
Probability
SciTegic.value.DoubleValue
0.05

@<SCITEGIC>MOL_PROPERTY
Sum Probability
SciTegic.value.DoubleValue
98.21

@<SCITEGIC>MOL_PROPERTY
Delta G
SciTegic.value.DoubleValue
2.835

@<SCITEGIC>MOL_PROPERTY
G
SciTegic.value.DoubleValue
60.981

@<SCITEGIC>MOL_PROPERTY
E
SciTegic.value.DoubleValue
22.621

@<SCITEGIC>MOL_PROPERTY
-TS
SciTegic.value.DoubleValue
38.360

@<SCITEGIC>MOL_PROPERTY
U+W
SciTegic.value.DoubleValue
-1.524

@<SCITEGIC>MOL_PROPERTY
U
SciTegic.value.DoubleValue
50.644

@<SCITEGIC>MOL_PROPERTY
W
SciTegic.value.DoubleValue
-52.167

@<SCITEGIC>MOL_PROPERTY
W(PB)
SciTegic.value.DoubleValue
-54.571

@<SCITEGIC>MOL_PROPERTY
W(SA)
SciTegic.value.DoubleValue
2.404

@<SCITEGIC>MOL_PROPERTY
Valence
SciTegic.value.DoubleValue
4.566

@<SCITEGIC>MOL_PROPERTY
Coulomb
SciTegic.value.DoubleValue
45.260

@<SCITEGIC>MOL_PROPERTY
VdW
SciTegic.value.DoubleValue
0.818

@<SCITEGIC>MOL_PROPERTY
VdW6
SciTegic.value.DoubleValue
-10.959

@<SCITEGIC>MOL_PROPERTY
VdW12
SciTegic.value.DoubleValue
11.777

@<SCITEGIC>MOL_PROPERTY
Bond
SciTegic.value.DoubleValue
0.338

@<SCITEGIC>MOL_PROPERTY
Angle
SciTegic.value.DoubleValue
1.774

@<SCITEGIC>MOL_PROPERTY
Pdih
SciTegic.value.DoubleValue
2.455

@<SCITEGIC>MOL_PROPERTY
Idih
SciTegic.value.DoubleValue
0.000

@<SCITEGIC>MOL_PROPERTY
Tether
SciTegic.value.DoubleValue
0.000

@<TRIPOS>MOLECULE
guest-3_vm2.mol2 : vm2 ligand conformer 198
          29          28           1
SMALL
USER_CHARGES
 
@<TRIPOS>ATOM
       1    C1      19.863696   19.883292   19.935217 C.3        1 MOL1        -0.2427
       2    H1      20.532259   19.086432   19.584435 H          1 MOL1         0.0958
       3    H2      19.431744   20.371880   19.052260 H          1 MOL1         0.0958
       4    H3      20.467264   20.631845   20.463022 H          1 MOL1         0.0958
       5    C2      18.746186   19.313645   20.838235 C.3        1 MOL1        -0.1412
       6    H4      18.095329   18.670152   20.229924 H          1 MOL1         0.0947
       7    H5      18.112349   20.133254   21.204522 H          1 MOL1         0.0947
       8    C3      19.278893   18.488858   22.034788 C.3        1 MOL1        -0.1437
       9    H6      18.419933   18.021141   22.532742 H          1 MOL1         0.0947
      10    H7      19.907895   17.667975   21.664108 H          1 MOL1         0.0947
      11    C4      20.074213   19.334630   23.061244 C.3        1 MOL1        -0.1437
      12    H8      19.450784   20.162712   23.422830 H          1 MOL1         0.0947
      13    H9      20.934235   19.799054   22.562124 H          1 MOL1         0.0947
      14    C5      20.610132   18.510126   24.260270 C.3        1 MOL1        -0.1437
      15    H10     21.303331   17.745453   23.883651 H          1 MOL1         0.0947
      16    H11     21.215669   19.168671   24.897194 H          1 MOL1         0.0947
      17    C6      19.526249   17.814262   25.127264 C.3        1 MOL1        -0.1437
      18    H12     20.021939   17.290044   25.955220 H          1 MOL1         0.0947
      19    H13     19.035343   17.027222   24.539897 H          1 MOL1         0.0947
      20    C7      18.443233   18.764827   25.700968 C.3        1 MOL1        -0.1477
      21    H14     17.837572   19.171223   24.880863 H          1 MOL1         0.0947
      22    H15     17.750996   18.187543   26.327993 H          1 MOL1         0.0947
      23    C8      19.014445   19.935692   26.525296 C.3        1 MOL1         0.0145
      24    H16     18.195827   20.577984   26.861063 H          1 MOL1         0.0921
      25    H17     19.683161   20.534169   25.901188 H          1 MOL1         0.0921
      26    N1      19.786954   19.492667   27.751718 N.4        1 MOL1        -0.5969
      27    H18     20.153145   20.291348   28.281178 H          1 MOL1         0.3603
      28    H19     20.587063   18.903976   27.499911 H          1 MOL1         0.3603
      29    H20     19.200827   18.949492   28.393962 H          1 MOL1         0.3603
@<TRIPOS>BOND
    1     1     2    1
    2     1     3    1
    3     1     4    1
    4     1     5    1
    5     5     6    1
    6     5     7    1
    7     5     8    1
    8     8     9    1
    9     8    10    1
   10     8    11    1
   11    11    12    1
   12    11    13    1
   13    11    14    1
   14    14    15    1
   15    14    16    1
   16    14    17    1
   17    17    18    1
   18    17    19    1
   19    17    20    1
   20    20    21    1
   21    20    22    1
   22    20    23    1
   23    23    24    1
   24    23    25    1
   25    23    26    1
   26    26    27    1
   27    26    28    1
   28    26    29    1
@<TRIPOS>SUBSTRUCTURE
       1 MOL1            1 RESIDUE      1      MOL     
@<SCITEGIC>MOL_PROPERTY
VM2 Rank
SciTegic.value.IntegerValue
198

@<SCITEGIC>MOL_PROPERTY
Conf_Id
SciTegic.value.IntegerValue
1312

@<SCITEGIC>MOL_PROPERTY
Probability
SciTegic.value.DoubleValue
0.05

@<SCITEGIC>MOL_PROPERTY
Sum Probability
SciTegic.value.DoubleValue
98.26

@<SCITEGIC>MOL_PROPERTY
Delta G
SciTegic.value.DoubleValue
2.838

@<SCITEGIC>MOL_PROPERTY
G
SciTegic.value.DoubleValue
60.984

@<SCITEGIC>MOL_PROPERTY
E
SciTegic.value.DoubleValue
22.833

@<SCITEGIC>MOL_PROPERTY
-TS
SciTegic.value.DoubleValue
38.151

@<SCITEGIC>MOL_PROPERTY
U+W
SciTegic.value.DoubleValue
-1.312

@<SCITEGIC>MOL_PROPERTY
U
SciTegic.value.DoubleValue
50.783

@<SCITEGIC>MOL_PROPERTY
W
SciTegic.value.DoubleValue
-52.095

@<SCITEGIC>MOL_PROPERTY
W(PB)
SciTegic.value.DoubleValue
-54.518

@<SCITEGIC>MOL_PROPERTY
W(SA)
SciTegic.value.DoubleValue
2.424

@<SCITEGIC>MOL_PROPERTY
Valence
SciTegic.value.DoubleValue
4.465

@<SCITEGIC>MOL_PROPERTY
Coulomb
SciTegic.value.DoubleValue
45.490

@<SCITEGIC>MOL_PROPERTY
VdW
SciTegic.value.DoubleValue
0.827

@<SCITEGIC>MOL_PROPERTY
VdW6
SciTegic.value.DoubleValue
-10.817

@<SCITEGIC>MOL_PROPERTY
VdW12
SciTegic.value.DoubleValue
11.644

@<SCITEGIC>MOL_PROPERTY
Bond
SciTegic.value.DoubleValue
0.325

@<SCITEGIC>MOL_PROPERTY
Angle
SciTegic.value.DoubleValue
1.610

@<SCITEGIC>MOL_PROPERTY
Pdih
SciTegic.value.DoubleValue
2.531

@<SCITEGIC>MOL_PROPERTY
Idih
SciTegic.value.DoubleValue
0.000

@<SCITEGIC>MOL_PROPERTY
Tether
SciTegic.value.DoubleValue
0.000

@<TRIPOS>MOLECULE
guest-3_vm2.mol2 : vm2 ligand conformer 199
          29          28           1
SMALL
USER_CHARGES
 
@<TRIPOS>ATOM
       1    C1      19.314442   18.339360   19.900490 C.3        1 MOL1        -0.2427
       2    H1      18.683546   18.268763   19.005000 H          1 MOL1         0.0958
       3    H2      20.340873   18.548421   19.572247 H          1 MOL1         0.0958
       4    H3      19.302421   17.357563   20.389504 H          1 MOL1         0.0958
       5    C2      18.794773   19.450132   20.841181 C.3        1 MOL1        -0.1412
       6    H4      17.780671   19.200941   21.183488 H          1 MOL1         0.0947
       7    H5      18.704994   20.383622   20.268226 H          1 MOL1         0.0947
       8    C3      19.711588   19.704996   22.061955 C.3        1 MOL1        -0.1437
       9    H6      20.722863   19.958179   21.715378 H          1 MOL1         0.0947
      10    H7      19.333934   20.589848   22.590107 H          1 MOL1         0.0947
      11    C4      19.779504   18.507119   23.042748 C.3        1 MOL1        -0.1437
      12    H8      20.159894   17.624133   22.513515 H          1 MOL1         0.0947
      13    H9      18.768146   18.245342   23.380022 H          1 MOL1         0.0947
      14    C5      20.698800   18.759538   24.265802 C.3        1 MOL1        -0.1437
      15    H10     20.743279   17.841955   24.867543 H          1 MOL1         0.0947
      16    H11     21.724416   18.928694   23.910007 H          1 MOL1         0.0947
      17    C6      20.285932   19.948583   25.174876 C.3        1 MOL1        -0.1437
      18    H12     20.410702   20.891284   24.626088 H          1 MOL1         0.0947
      19    H13     20.989667   20.008648   26.015811 H          1 MOL1         0.0947
      20    C7      18.838000   19.873865   25.725826 C.3        1 MOL1        -0.1477
      21    H14     18.657209   20.733256   26.384894 H          1 MOL1         0.0947
      22    H15     18.123318   19.974151   24.898946 H          1 MOL1         0.0947
      23    C8      18.529749   18.573893   26.495099 C.3        1 MOL1         0.0145
      24    H16     18.678872   17.712831   25.838441 H          1 MOL1         0.0921
      25    H17     17.484810   18.580314   26.816773 H          1 MOL1         0.0921
      26    N1      19.391213   18.380512   27.727025 N.4        1 MOL1        -0.5969
      27    H18     20.386776   18.340979   27.487387 H          1 MOL1         0.3603
      28    H19     19.163242   17.509861   28.219273 H          1 MOL1         0.3603
      29    H20     19.270911   19.145862   28.398463 H          1 MOL1         0.3603
@<TRIPOS>BOND
    1     1     2    1
    2     1     3    1
    3     1     4    1
    4     1     5    1
    5     5     6    1
    6     5     7    1
    7     5     8    1
    8     8     9    1
    9     8    10    1
   10     8    11    1
   11    11    12    1
   12    11    13    1
   13    11    14    1
   14    14    15    1
   15    14    16    1
   16    14    17    1
   17    17    18    1
   18    17    19    1
   19    17    20    1
   20    20    21    1
   21    20    22    1
   22    20    23    1
   23    23    24    1
   24    23    25    1
   25    23    26    1
   26    26    27    1
   27    26    28    1
   28    26    29    1
@<TRIPOS>SUBSTRUCTURE
       1 MOL1            1 RESIDUE      1      MOL     
@<SCITEGIC>MOL_PROPERTY
VM2 Rank
SciTegic.value.IntegerValue
199

@<SCITEGIC>MOL_PROPERTY
Conf_Id
SciTegic.value.IntegerValue
285

@<SCITEGIC>MOL_PROPERTY
Probability
SciTegic.value.DoubleValue
0.04

@<SCITEGIC>MOL_PROPERTY
Sum Probability
SciTegic.value.DoubleValue
98.30

@<SCITEGIC>MOL_PROPERTY
Delta G
SciTegic.value.DoubleValue
2.844

@<SCITEGIC>MOL_PROPERTY
G
SciTegic.value.DoubleValue
60.990

@<SCITEGIC>MOL_PROPERTY
E
SciTegic.value.DoubleValue
22.839

@<SCITEGIC>MOL_PROPERTY
-TS
SciTegic.value.DoubleValue
38.151

@<SCITEGIC>MOL_PROPERTY
U+W
SciTegic.value.DoubleValue
-1.306

@<SCITEGIC>MOL_PROPERTY
U
SciTegic.value.DoubleValue
50.782

@<SCITEGIC>MOL_PROPERTY
W
SciTegic.value.DoubleValue
-52.088

@<SCITEGIC>MOL_PROPERTY
W(PB)
SciTegic.value.DoubleValue
-54.505

@<SCITEGIC>MOL_PROPERTY
W(SA)
SciTegic.value.DoubleValue
2.417

@<SCITEGIC>MOL_PROPERTY
Valence
SciTegic.value.DoubleValue
4.466

@<SCITEGIC>MOL_PROPERTY
Coulomb
SciTegic.value.DoubleValue
45.490

@<SCITEGIC>MOL_PROPERTY
VdW
SciTegic.value.DoubleValue
0.827

@<SCITEGIC>MOL_PROPERTY
VdW6
SciTegic.value.DoubleValue
-10.816

@<SCITEGIC>MOL_PROPERTY
VdW12
SciTegic.value.DoubleValue
11.643

@<SCITEGIC>MOL_PROPERTY
Bond
SciTegic.value.DoubleValue
0.325

@<SCITEGIC>MOL_PROPERTY
Angle
SciTegic.value.DoubleValue
1.610

@<SCITEGIC>MOL_PROPERTY
Pdih
SciTegic.value.DoubleValue
2.531

@<SCITEGIC>MOL_PROPERTY
Idih
SciTegic.value.DoubleValue
0.000

@<SCITEGIC>MOL_PROPERTY
Tether
SciTegic.value.DoubleValue
0.000

@<TRIPOS>MOLECULE
guest-3_vm2.mol2 : vm2 ligand conformer 200
          29          28           1
SMALL
USER_CHARGES
 
@<TRIPOS>ATOM
       1    C1      20.166165   19.550323   20.173624 C.3        1 MOL1        -0.2427
       2    H1      20.644036   20.222006   20.897668 H          1 MOL1         0.0958
       3    H2      20.904471   19.326942   19.392710 H          1 MOL1         0.0958
       4    H3      19.331680   20.087112   19.704128 H          1 MOL1         0.0958
       5    C2      19.679380   18.247476   20.847090 C.3        1 MOL1        -0.1412
       6    H4      20.526160   17.739492   21.327384 H          1 MOL1         0.0947
       7    H5      19.320515   17.559950   20.068544 H          1 MOL1         0.0947
       8    C3      18.536866   18.471573   21.870437 C.3        1 MOL1        -0.1437
       9    H6      17.656306   18.856033   21.337629 H          1 MOL1         0.0947
      10    H7      18.236454   17.499066   22.284023 H          1 MOL1         0.0947
      11    C4      18.867676   19.435516   23.039307 C.3        1 MOL1        -0.1437
      12    H8      17.968181   19.527690   23.661250 H          1 MOL1         0.0947
      13    H9      19.071164   20.441538   22.649611 H          1 MOL1         0.0947
      14    C5      20.054783   18.962225   23.915604 C.3        1 MOL1        -0.1437
      15    H10     19.852160   17.953740   24.299498 H          1 MOL1         0.0947
      16    H11     20.954761   18.875941   23.293287 H          1 MOL1         0.0947
      17    C6      20.380136   19.923565   25.088128 C.3        1 MOL1        -0.1437
      18    H12     20.663654   20.903395   24.679871 H          1 MOL1         0.0947
      19    H13     21.270828   19.551908   25.612295 H          1 MOL1         0.0947
      20    C7      19.232447   20.121940   26.112986 C.3        1 MOL1        -0.1477
      21    H14     19.584891   20.768207   26.927730 H          1 MOL1         0.0947
      22    H15     18.403441   20.663594   25.640173 H          1 MOL1         0.0947
      23    C8      18.692291   18.807327   26.710328 C.3        1 MOL1         0.0145
      24    H16     18.305145   18.170676   25.910499 H          1 MOL1         0.0921
      25    H17     17.870580   19.029741   27.396437 H          1 MOL1         0.0921
      26    N1      19.734257   18.018054   27.477496 N.4        1 MOL1        -0.5969
      27    H18     20.524312   17.757437   26.879110 H          1 MOL1         0.3603
      28    H19     19.347385   17.150134   27.863974 H          1 MOL1         0.3603
      29    H20     20.113663   18.554673   28.264366 H          1 MOL1         0.3603
@<TRIPOS>BOND
    1     1     2    1
    2     1     3    1
    3     1     4    1
    4     1     5    1
    5     5     6    1
    6     5     7    1
    7     5     8    1
    8     8     9    1
    9     8    10    1
   10     8    11    1
   11    11    12    1
   12    11    13    1
   13    11    14    1
   14    14    15    1
   15    14    16    1
   16    14    17    1
   17    17    18    1
   18    17    19    1
   19    17    20    1
   20    20    21    1
   21    20    22    1
   22    20    23    1
   23    23    24    1
   24    23    25    1
   25    23    26    1
   26    26    27    1
   27    26    28    1
   28    26    29    1
@<TRIPOS>SUBSTRUCTURE
       1 MOL1            1 RESIDUE      1      MOL     
@<SCITEGIC>MOL_PROPERTY
VM2 Rank
SciTegic.value.IntegerValue
200

@<SCITEGIC>MOL_PROPERTY
Conf_Id
SciTegic.value.IntegerValue
2307

@<SCITEGIC>MOL_PROPERTY
Probability
SciTegic.value.DoubleValue
0.04

@<SCITEGIC>MOL_PROPERTY
Sum Probability
SciTegic.value.DoubleValue
98.35

@<SCITEGIC>MOL_PROPERTY
Delta G
SciTegic.value.DoubleValue
2.852

@<SCITEGIC>MOL_PROPERTY
G
SciTegic.value.DoubleValue
60.998

@<SCITEGIC>MOL_PROPERTY
E
SciTegic.value.DoubleValue
22.855

@<SCITEGIC>MOL_PROPERTY
-TS
SciTegic.value.DoubleValue
38.143

@<SCITEGIC>MOL_PROPERTY
U+W
SciTegic.value.DoubleValue
-1.289

@<SCITEGIC>MOL_PROPERTY
U
SciTegic.value.DoubleValue
50.889

@<SCITEGIC>MOL_PROPERTY
W
SciTegic.value.DoubleValue
-52.178

@<SCITEGIC>MOL_PROPERTY
W(PB)
SciTegic.value.DoubleValue
-54.577

@<SCITEGIC>MOL_PROPERTY
W(SA)
SciTegic.value.DoubleValue
2.399

@<SCITEGIC>MOL_PROPERTY
Valence
SciTegic.value.DoubleValue
4.469

@<SCITEGIC>MOL_PROPERTY
Coulomb
SciTegic.value.DoubleValue
45.537

@<SCITEGIC>MOL_PROPERTY
VdW
SciTegic.value.DoubleValue
0.883

@<SCITEGIC>MOL_PROPERTY
VdW6
SciTegic.value.DoubleValue
-10.784

@<SCITEGIC>MOL_PROPERTY
VdW12
SciTegic.value.DoubleValue
11.667

@<SCITEGIC>MOL_PROPERTY
Bond
SciTegic.value.DoubleValue
0.326

@<SCITEGIC>MOL_PROPERTY
Angle
SciTegic.value.DoubleValue
1.698

@<SCITEGIC>MOL_PROPERTY
Pdih
SciTegic.value.DoubleValue
2.445

@<SCITEGIC>MOL_PROPERTY
Idih
SciTegic.value.DoubleValue
0.000

@<SCITEGIC>MOL_PROPERTY
Tether
SciTegic.value.DoubleValue
0.000

@<TRIPOS>MOLECULE
guest-3_vm2.mol2 : vm2 ligand conformer 201
          29          28           1
SMALL
USER_CHARGES
 
@<TRIPOS>ATOM
       1    C1      20.127821   19.944527   19.563960 C.3        1 MOL1        -0.2427
       2    H1      21.028943   19.336762   19.409525 H          1 MOL1         0.0958
       3    H2      19.294324   19.459871   19.038940 H          1 MOL1         0.0958
       4    H3      20.297118   20.923274   19.096591 H          1 MOL1         0.0958
       5    C2      19.818016   20.104830   21.067327 C.3        1 MOL1        -0.1412
       6    H4      18.932612   20.744090   21.191003 H          1 MOL1         0.0947
       7    H5      20.653959   20.622267   21.558592 H          1 MOL1         0.0947
       8    C3      19.575494   18.740495   21.749801 C.3        1 MOL1        -0.1437
       9    H6      18.741168   18.226329   21.252902 H          1 MOL1         0.0947
      10    H7      20.462292   18.104220   21.622598 H          1 MOL1         0.0947
      11    C4      19.264195   18.897530   23.255271 C.3        1 MOL1        -0.1437
      12    H8      18.372845   19.527365   23.381582 H          1 MOL1         0.0947
      13    H9      20.102773   19.416408   23.736871 H          1 MOL1         0.0947
      14    C5      19.036456   17.529720   23.940057 C.3        1 MOL1        -0.1437
      15    H10     18.303565   16.955985   23.356034 H          1 MOL1         0.0947
      16    H11     19.968972   16.949199   23.913610 H          1 MOL1         0.0947
      17    C6      18.525034   17.617740   25.401370 C.3        1 MOL1        -0.1437
      18    H12     18.361145   16.591069   25.757082 H          1 MOL1         0.0947
      19    H13     17.539133   18.102383   25.427853 H          1 MOL1         0.0947
      20    C7      19.488821   18.321919   26.389327 C.3        1 MOL1        -0.1477
      21    H14     19.312218   17.919992   27.395943 H          1 MOL1         0.0947
      22    H15     20.530156   18.081035   26.137379 H          1 MOL1         0.0947
      23    C8      19.289292   19.849129   26.442969 C.3        1 MOL1         0.0145
      24    H16     18.261704   20.073497   26.741410 H          1 MOL1         0.0921
      25    H17     19.462033   20.289212   25.459189 H          1 MOL1         0.0921
      26    N1      20.218871   20.532110   27.424917 N.4        1 MOL1        -0.5969
      27    H18     21.204513   20.381944   27.185459 H          1 MOL1         0.3603
      28    H19     20.084496   20.186543   28.380949 H          1 MOL1         0.3603
      29    H20     20.068067   21.546626   27.450077 H          1 MOL1         0.3603
@<TRIPOS>BOND
    1     1     2    1
    2     1     3    1
    3     1     4    1
    4     1     5    1
    5     5     6    1
    6     5     7    1
    7     5     8    1
    8     8     9    1
    9     8    10    1
   10     8    11    1
   11    11    12    1
   12    11    13    1
   13    11    14    1
   14    14    15    1
   15    14    16    1
   16    14    17    1
   17    17    18    1
   18    17    19    1
   19    17    20    1
   20    20    21    1
   21    20    22    1
   22    20    23    1
   23    23    24    1
   24    23    25    1
   25    23    26    1
   26    26    27    1
   27    26    28    1
   28    26    29    1
@<TRIPOS>SUBSTRUCTURE
       1 MOL1            1 RESIDUE      1      MOL     
@<SCITEGIC>MOL_PROPERTY
VM2 Rank
SciTegic.value.IntegerValue
201

@<SCITEGIC>MOL_PROPERTY
Conf_Id
SciTegic.value.IntegerValue
2488

@<SCITEGIC>MOL_PROPERTY
Probability
SciTegic.value.DoubleValue
0.04

@<SCITEGIC>MOL_PROPERTY
Sum Probability
SciTegic.value.DoubleValue
98.39

@<SCITEGIC>MOL_PROPERTY
Delta G
SciTegic.value.DoubleValue
2.890

@<SCITEGIC>MOL_PROPERTY
G
SciTegic.value.DoubleValue
61.036

@<SCITEGIC>MOL_PROPERTY
E
SciTegic.value.DoubleValue
23.512

@<SCITEGIC>MOL_PROPERTY
-TS
SciTegic.value.DoubleValue
37.523

@<SCITEGIC>MOL_PROPERTY
U+W
SciTegic.value.DoubleValue
-0.632

@<SCITEGIC>MOL_PROPERTY
U
SciTegic.value.DoubleValue
51.492

@<SCITEGIC>MOL_PROPERTY
W
SciTegic.value.DoubleValue
-52.124

@<SCITEGIC>MOL_PROPERTY
W(PB)
SciTegic.value.DoubleValue
-54.656

@<SCITEGIC>MOL_PROPERTY
W(SA)
SciTegic.value.DoubleValue
2.532

@<SCITEGIC>MOL_PROPERTY
Valence
SciTegic.value.DoubleValue
4.974

@<SCITEGIC>MOL_PROPERTY
Coulomb
SciTegic.value.DoubleValue
45.825

@<SCITEGIC>MOL_PROPERTY
VdW
SciTegic.value.DoubleValue
0.694

@<SCITEGIC>MOL_PROPERTY
VdW6
SciTegic.value.DoubleValue
-8.648

@<SCITEGIC>MOL_PROPERTY
VdW12
SciTegic.value.DoubleValue
9.341

@<SCITEGIC>MOL_PROPERTY
Bond
SciTegic.value.DoubleValue
0.214

@<SCITEGIC>MOL_PROPERTY
Angle
SciTegic.value.DoubleValue
1.150

@<SCITEGIC>MOL_PROPERTY
Pdih
SciTegic.value.DoubleValue
3.610

@<SCITEGIC>MOL_PROPERTY
Idih
SciTegic.value.DoubleValue
0.000

@<SCITEGIC>MOL_PROPERTY
Tether
SciTegic.value.DoubleValue
0.000

@<TRIPOS>MOLECULE
guest-3_vm2.mol2 : vm2 ligand conformer 202
          29          28           1
SMALL
USER_CHARGES
 
@<TRIPOS>ATOM
       1    C1      19.754767   18.396381   20.147747 C.3        1 MOL1        -0.2427
       2    H1      18.775575   18.527179   19.669199 H          1 MOL1         0.0958
       3    H2      20.478958   18.133443   19.365934 H          1 MOL1         0.0958
       4    H3      19.690119   17.545822   20.837767 H          1 MOL1         0.0958
       5    C2      20.191811   19.685563   20.879138 C.3        1 MOL1        -0.1412
       6    H4      20.359397   20.475319   20.133610 H          1 MOL1         0.0947
       7    H5      21.162186   19.524287   21.367121 H          1 MOL1         0.0947
       8    C3      19.150637   20.193834   21.908903 C.3        1 MOL1        -0.1437
       9    H6      19.526848   21.119921   22.364863 H          1 MOL1         0.0947
      10    H7      18.232894   20.474060   21.373833 H          1 MOL1         0.0947
      11    C4      18.781168   19.192468   23.033910 C.3        1 MOL1        -0.1437
      12    H8      18.308458   18.300712   22.601862 H          1 MOL1         0.0947
      13    H9      18.017215   19.665055   23.664336 H          1 MOL1         0.0947
      14    C5      19.987701   18.773741   23.911449 C.3        1 MOL1        -0.1437
      15    H10     20.748369   18.296397   23.280410 H          1 MOL1         0.0947
      16    H11     20.462644   19.667087   24.337873 H          1 MOL1         0.0947
      17    C6      19.615609   17.777594   25.040203 C.3        1 MOL1        -0.1437
      18    H12     20.533207   17.481538   25.566111 H          1 MOL1         0.0947
      19    H13     19.221828   16.856258   24.589428 H          1 MOL1         0.0947
      20    C7      18.586428   18.308760   26.072443 C.3        1 MOL1        -0.1477
      21    H14     17.608469   18.432254   25.590222 H          1 MOL1         0.0947
      22    H15     18.439497   17.553516   26.855836 H          1 MOL1         0.0947
      23    C8      18.990276   19.643882   26.729062 C.3        1 MOL1         0.0145
      24    H16     18.203314   19.963833   27.417352 H          1 MOL1         0.0921
      25    H17     19.103973   20.413037   25.960682 H          1 MOL1         0.0921
      26    N1      20.285602   19.565777   27.512144 N.4        1 MOL1        -0.5969
      27    H18     20.528878   20.466664   27.938220 H          1 MOL1         0.3603
      28    H19     21.070947   19.291956   26.913455 H          1 MOL1         0.3603
      29    H20     20.229321   18.879421   28.271633 H          1 MOL1         0.3603
@<TRIPOS>BOND
    1     1     2    1
    2     1     3    1
    3     1     4    1
    4     1     5    1
    5     5     6    1
    6     5     7    1
    7     5     8    1
    8     8     9    1
    9     8    10    1
   10     8    11    1
   11    11    12    1
   12    11    13    1
   13    11    14    1
   14    14    15    1
   15    14    16    1
   16    14    17    1
   17    17    18    1
   18    17    19    1
   19    17    20    1
   20    20    21    1
   21    20    22    1
   22    20    23    1
   23    23    24    1
   24    23    25    1
   25    23    26    1
   26    26    27    1
   27    26    28    1
   28    26    29    1
@<TRIPOS>SUBSTRUCTURE
       1 MOL1            1 RESIDUE      1      MOL     
@<SCITEGIC>MOL_PROPERTY
VM2 Rank
SciTegic.value.IntegerValue
202

@<SCITEGIC>MOL_PROPERTY
Conf_Id
SciTegic.value.IntegerValue
2269

@<SCITEGIC>MOL_PROPERTY
Probability
SciTegic.value.DoubleValue
0.04

@<SCITEGIC>MOL_PROPERTY
Sum Probability
SciTegic.value.DoubleValue
98.43

@<SCITEGIC>MOL_PROPERTY
Delta G
SciTegic.value.DoubleValue
2.913

@<SCITEGIC>MOL_PROPERTY
G
SciTegic.value.DoubleValue
61.059

@<SCITEGIC>MOL_PROPERTY
E
SciTegic.value.DoubleValue
22.917

@<SCITEGIC>MOL_PROPERTY
-TS
SciTegic.value.DoubleValue
38.143

@<SCITEGIC>MOL_PROPERTY
U+W
SciTegic.value.DoubleValue
-1.228

@<SCITEGIC>MOL_PROPERTY
U
SciTegic.value.DoubleValue
50.889

@<SCITEGIC>MOL_PROPERTY
W
SciTegic.value.DoubleValue
-52.117

@<SCITEGIC>MOL_PROPERTY
W(PB)
SciTegic.value.DoubleValue
-54.544

@<SCITEGIC>MOL_PROPERTY
W(SA)
SciTegic.value.DoubleValue
2.427

@<SCITEGIC>MOL_PROPERTY
Valence
SciTegic.value.DoubleValue
4.469

@<SCITEGIC>MOL_PROPERTY
Coulomb
SciTegic.value.DoubleValue
45.537

@<SCITEGIC>MOL_PROPERTY
VdW
SciTegic.value.DoubleValue
0.883

@<SCITEGIC>MOL_PROPERTY
VdW6
SciTegic.value.DoubleValue
-10.784

@<SCITEGIC>MOL_PROPERTY
VdW12
SciTegic.value.DoubleValue
11.667

@<SCITEGIC>MOL_PROPERTY
Bond
SciTegic.value.DoubleValue
0.326

@<SCITEGIC>MOL_PROPERTY
Angle
SciTegic.value.DoubleValue
1.698

@<SCITEGIC>MOL_PROPERTY
Pdih
SciTegic.value.DoubleValue
2.445

@<SCITEGIC>MOL_PROPERTY
Idih
SciTegic.value.DoubleValue
0.000

@<SCITEGIC>MOL_PROPERTY
Tether
SciTegic.value.DoubleValue
0.000

@<TRIPOS>MOLECULE
guest-3_vm2.mol2 : vm2 ligand conformer 203
          29          28           1
SMALL
USER_CHARGES
 
@<TRIPOS>ATOM
       1    C1      20.269361   18.295718   20.315218 C.3        1 MOL1        -0.2427
       2    H1      20.560839   19.071525   19.595442 H          1 MOL1         0.0958
       3    H2      21.093522   18.159662   21.026460 H          1 MOL1         0.0958
       4    H3      20.148406   17.354071   19.764338 H          1 MOL1         0.0958
       5    C2      18.956138   18.673701   21.036656 C.3        1 MOL1        -0.1412
       6    H4      18.691043   17.890152   21.759027 H          1 MOL1         0.0947
       7    H5      18.140747   18.692891   20.300251 H          1 MOL1         0.0947
       8    C3      19.018032   20.052507   21.741353 C.3        1 MOL1        -0.1437
       9    H6      19.183448   20.830029   20.983018 H          1 MOL1         0.0947
      10    H7      18.035654   20.274292   22.178624 H          1 MOL1         0.0947
      11    C4      20.112796   20.187637   22.833987 C.3        1 MOL1        -0.1437
      12    H8      20.040917   21.188829   23.280439 H          1 MOL1         0.0947
      13    H9      21.102532   20.147843   22.359931 H          1 MOL1         0.0947
      14    C5      20.057651   19.128811   23.965355 C.3        1 MOL1        -0.1437
      15    H10     20.225291   18.126925   23.548764 H          1 MOL1         0.0947
      16    H11     20.898690   19.317715   24.645098 H          1 MOL1         0.0947
      17    C6      18.730687   19.148380   24.765360 C.3        1 MOL1        -0.1437
      18    H12     17.891662   18.938533   24.089438 H          1 MOL1         0.0947
      19    H13     18.554795   20.154504   25.168413 H          1 MOL1         0.0947
      20    C7      18.695002   18.106177   25.911307 C.3        1 MOL1        -0.1477
      21    H14     17.711332   18.137438   26.398329 H          1 MOL1         0.0947
      22    H15     18.794214   17.098358   25.486701 H          1 MOL1         0.0947
      23    C8      19.790671   18.303817   26.978421 C.3        1 MOL1         0.0145
      24    H16     20.777517   18.221800   26.515947 H          1 MOL1         0.0921
      25    H17     19.705077   17.520064   27.735960 H          1 MOL1         0.0921
      26    N1      19.713660   19.641251   27.687343 N.4        1 MOL1        -0.5969
      27    H18     20.449616   19.740780   28.395055 H          1 MOL1         0.3603
      28    H19     18.816261   19.765786   28.167223 H          1 MOL1         0.3603
      29    H20     19.817937   20.421374   27.030929 H          1 MOL1         0.3603
@<TRIPOS>BOND
    1     1     2    1
    2     1     3    1
    3     1     4    1
    4     1     5    1
    5     5     6    1
    6     5     7    1
    7     5     8    1
    8     8     9    1
    9     8    10    1
   10     8    11    1
   11    11    12    1
   12    11    13    1
   13    11    14    1
   14    14    15    1
   15    14    16    1
   16    14    17    1
   17    17    18    1
   18    17    19    1
   19    17    20    1
   20    20    21    1
   21    20    22    1
   22    20    23    1
   23    23    24    1
   24    23    25    1
   25    23    26    1
   26    26    27    1
   27    26    28    1
   28    26    29    1
@<TRIPOS>SUBSTRUCTURE
       1 MOL1            1 RESIDUE      1      MOL     
@<SCITEGIC>MOL_PROPERTY
VM2 Rank
SciTegic.value.IntegerValue
203

@<SCITEGIC>MOL_PROPERTY
Conf_Id
SciTegic.value.IntegerValue
781

@<SCITEGIC>MOL_PROPERTY
Probability
SciTegic.value.DoubleValue
0.04

@<SCITEGIC>MOL_PROPERTY
Sum Probability
SciTegic.value.DoubleValue
98.47

@<SCITEGIC>MOL_PROPERTY
Delta G
SciTegic.value.DoubleValue
2.926

@<SCITEGIC>MOL_PROPERTY
G
SciTegic.value.DoubleValue
61.072

@<SCITEGIC>MOL_PROPERTY
E
SciTegic.value.DoubleValue
22.834

@<SCITEGIC>MOL_PROPERTY
-TS
SciTegic.value.DoubleValue
38.238

@<SCITEGIC>MOL_PROPERTY
U+W
SciTegic.value.DoubleValue
-1.310

@<SCITEGIC>MOL_PROPERTY
U
SciTegic.value.DoubleValue
50.732

@<SCITEGIC>MOL_PROPERTY
W
SciTegic.value.DoubleValue
-52.042

@<SCITEGIC>MOL_PROPERTY
W(PB)
SciTegic.value.DoubleValue
-54.444

@<SCITEGIC>MOL_PROPERTY
W(SA)
SciTegic.value.DoubleValue
2.402

@<SCITEGIC>MOL_PROPERTY
Valence
SciTegic.value.DoubleValue
4.413

@<SCITEGIC>MOL_PROPERTY
Coulomb
SciTegic.value.DoubleValue
45.469

@<SCITEGIC>MOL_PROPERTY
VdW
SciTegic.value.DoubleValue
0.849

@<SCITEGIC>MOL_PROPERTY
VdW6
SciTegic.value.DoubleValue
-10.820

@<SCITEGIC>MOL_PROPERTY
VdW12
SciTegic.value.DoubleValue
11.669

@<SCITEGIC>MOL_PROPERTY
Bond
SciTegic.value.DoubleValue
0.321

@<SCITEGIC>MOL_PROPERTY
Angle
SciTegic.value.DoubleValue
1.661

@<SCITEGIC>MOL_PROPERTY
Pdih
SciTegic.value.DoubleValue
2.430

@<SCITEGIC>MOL_PROPERTY
Idih
SciTegic.value.DoubleValue
0.000

@<SCITEGIC>MOL_PROPERTY
Tether
SciTegic.value.DoubleValue
0.000

@<TRIPOS>MOLECULE
guest-3_vm2.mol2 : vm2 ligand conformer 204
          29          28           1
SMALL
USER_CHARGES
 
@<TRIPOS>ATOM
       1    C1      19.764920   19.626159   20.148308 C.3        1 MOL1        -0.2427
       2    H1      18.676203   19.573342   20.272760 H          1 MOL1         0.0958
       3    H2      19.987278   20.523714   19.556912 H          1 MOL1         0.0958
       4    H3      20.087684   18.752270   19.567747 H          1 MOL1         0.0958
       5    C2      20.488054   19.683786   21.512702 C.3        1 MOL1        -0.1412
       6    H4      20.138090   20.556283   22.080226 H          1 MOL1         0.0947
       7    H5      21.560459   19.847808   21.337933 H          1 MOL1         0.0947
       8    C3      20.316319   18.393407   22.353578 C.3        1 MOL1        -0.1437
       9    H6      20.756827   17.550952   21.803023 H          1 MOL1         0.0947
      10    H7      20.908537   18.485754   23.273443 H          1 MOL1         0.0947
      11    C4      18.850619   18.034613   22.717846 C.3        1 MOL1        -0.1437
      12    H8      18.849840   17.109476   23.309049 H          1 MOL1         0.0947
      13    H9      18.299564   17.789143   21.800427 H          1 MOL1         0.0947
      14    C5      18.073031   19.136314   23.486843 C.3        1 MOL1        -0.1437
      15    H10     17.930770   20.005142   22.830575 H          1 MOL1         0.0947
      16    H11     17.062719   18.764708   23.706171 H          1 MOL1         0.0947
      17    C6      18.732340   19.607713   24.808342 C.3        1 MOL1        -0.1437
      18    H12     18.105915   20.397550   25.245437 H          1 MOL1         0.0947
      19    H13     19.701662   20.074101   24.591712 H          1 MOL1         0.0947
      20    C7      18.906903   18.472474   25.847333 C.3        1 MOL1        -0.1477
      21    H14     17.943124   17.969370   26.001218 H          1 MOL1         0.0947
      22    H15     19.602764   17.711997   25.471022 H          1 MOL1         0.0947
      23    C8      19.411643   18.988828   27.208134 C.3        1 MOL1         0.0145
      24    H16     19.439007   18.161932   27.922972 H          1 MOL1         0.0921
      25    H17     18.725192   19.748696   27.591197 H          1 MOL1         0.0921
      26    N1      20.800171   19.594706   27.151914 N.4        1 MOL1        -0.5969
      27    H18     21.496815   18.918940   26.821604 H          1 MOL1         0.3603
      28    H19     21.110870   19.919756   28.074070 H          1 MOL1         0.3603
      29    H20     20.835894   20.401446   26.521037 H          1 MOL1         0.3603
@<TRIPOS>BOND
    1     1     2    1
    2     1     3    1
    3     1     4    1
    4     1     5    1
    5     5     6    1
    6     5     7    1
    7     5     8    1
    8     8     9    1
    9     8    10    1
   10     8    11    1
   11    11    12    1
   12    11    13    1
   13    11    14    1
   14    14    15    1
   15    14    16    1
   16    14    17    1
   17    17    18    1
   18    17    19    1
   19    17    20    1
   20    20    21    1
   21    20    22    1
   22    20    23    1
   23    23    24    1
   24    23    25    1
   25    23    26    1
   26    26    27    1
   27    26    28    1
   28    26    29    1
@<TRIPOS>SUBSTRUCTURE
       1 MOL1            1 RESIDUE      1      MOL     
@<SCITEGIC>MOL_PROPERTY
VM2 Rank
SciTegic.value.IntegerValue
204

@<SCITEGIC>MOL_PROPERTY
Conf_Id
SciTegic.value.IntegerValue
1916

@<SCITEGIC>MOL_PROPERTY
Probability
SciTegic.value.DoubleValue
0.04

@<SCITEGIC>MOL_PROPERTY
Sum Probability
SciTegic.value.DoubleValue
98.50

@<SCITEGIC>MOL_PROPERTY
Delta G
SciTegic.value.DoubleValue
2.959

@<SCITEGIC>MOL_PROPERTY
G
SciTegic.value.DoubleValue
61.106

@<SCITEGIC>MOL_PROPERTY
E
SciTegic.value.DoubleValue
22.730

@<SCITEGIC>MOL_PROPERTY
-TS
SciTegic.value.DoubleValue
38.375

@<SCITEGIC>MOL_PROPERTY
U+W
SciTegic.value.DoubleValue
-1.414

@<SCITEGIC>MOL_PROPERTY
U
SciTegic.value.DoubleValue
51.214

@<SCITEGIC>MOL_PROPERTY
W
SciTegic.value.DoubleValue
-52.628

@<SCITEGIC>MOL_PROPERTY
W(PB)
SciTegic.value.DoubleValue
-55.029

@<SCITEGIC>MOL_PROPERTY
W(SA)
SciTegic.value.DoubleValue
2.401

@<SCITEGIC>MOL_PROPERTY
Valence
SciTegic.value.DoubleValue
4.528

@<SCITEGIC>MOL_PROPERTY
Coulomb
SciTegic.value.DoubleValue
45.979

@<SCITEGIC>MOL_PROPERTY
VdW
SciTegic.value.DoubleValue
0.708

@<SCITEGIC>MOL_PROPERTY
VdW6
SciTegic.value.DoubleValue
-11.070

@<SCITEGIC>MOL_PROPERTY
VdW12
SciTegic.value.DoubleValue
11.777

@<SCITEGIC>MOL_PROPERTY
Bond
SciTegic.value.DoubleValue
0.333

@<SCITEGIC>MOL_PROPERTY
Angle
SciTegic.value.DoubleValue
1.708

@<SCITEGIC>MOL_PROPERTY
Pdih
SciTegic.value.DoubleValue
2.487

@<SCITEGIC>MOL_PROPERTY
Idih
SciTegic.value.DoubleValue
0.000

@<SCITEGIC>MOL_PROPERTY
Tether
SciTegic.value.DoubleValue
0.000

@<TRIPOS>MOLECULE
guest-3_vm2.mol2 : vm2 ligand conformer 205
          29          28           1
SMALL
USER_CHARGES
 
@<TRIPOS>ATOM
       1    C1      19.372878   18.645653   20.040094 C.3        1 MOL1        -0.2427
       2    H1      18.766943   17.853280   20.496788 H          1 MOL1         0.0958
       3    H2      18.823159   19.021180   19.167404 H          1 MOL1         0.0958
       4    H3      20.309307   18.199275   19.681271 H          1 MOL1         0.0958
       5    C2      19.651319   19.791488   21.038779 C.3        1 MOL1        -0.1412
       6    H4      18.701089   20.210728   21.395343 H          1 MOL1         0.0947
       7    H5      20.160495   20.607612   20.507567 H          1 MOL1         0.0947
       8    C3      20.530591   19.359816   22.239710 C.3        1 MOL1        -0.1437
       9    H6      21.509762   19.034531   21.862491 H          1 MOL1         0.0947
      10    H7      20.733060   20.238365   22.866274 H          1 MOL1         0.0947
      11    C4      19.936686   18.225763   23.117748 C.3        1 MOL1        -0.1437
      12    H8      20.641668   18.000586   23.928745 H          1 MOL1         0.0947
      13    H9      19.876226   17.303341   22.525299 H          1 MOL1         0.0947
      14    C5      18.538122   18.524222   23.721045 C.3        1 MOL1        -0.1437
      15    H10     17.802533   18.601313   22.909500 H          1 MOL1         0.0947
      16    H11     18.219805   17.658719   24.317308 H          1 MOL1         0.0947
      17    C6      18.457097   19.806155   24.592765 C.3        1 MOL1        -0.1437
      18    H12     17.431041   19.907229   24.972485 H          1 MOL1         0.0947
      19    H13     18.628913   20.689789   23.964028 H          1 MOL1         0.0947
      20    C7      19.438560   19.838991   25.790312 C.3        1 MOL1        -0.1477
      21    H14     20.474034   19.855540   25.427335 H          1 MOL1         0.0947
      22    H15     19.290708   20.775578   26.344071 H          1 MOL1         0.0947
      23    C8      19.244423   18.650490   26.749766 C.3        1 MOL1         0.0145
      24    H16     19.426693   17.713316   26.217449 H          1 MOL1         0.0921
      25    H17     18.216300   18.641817   27.121477 H          1 MOL1         0.0921
      26    N1      20.174324   18.695423   27.944781 N.4        1 MOL1        -0.5969
      27    H18     21.159873   18.679293   27.662439 H          1 MOL1         0.3603
      28    H19     20.029055   17.895561   28.570633 H          1 MOL1         0.3603
      29    H20     20.034337   19.542556   28.505292 H          1 MOL1         0.3603
@<TRIPOS>BOND
    1     1     2    1
    2     1     3    1
    3     1     4    1
    4     1     5    1
    5     5     6    1
    6     5     7    1
    7     5     8    1
    8     8     9    1
    9     8    10    1
   10     8    11    1
   11    11    12    1
   12    11    13    1
   13    11    14    1
   14    14    15    1
   15    14    16    1
   16    14    17    1
   17    17    18    1
   18    17    19    1
   19    17    20    1
   20    20    21    1
   21    20    22    1
   22    20    23    1
   23    23    24    1
   24    23    25    1
   25    23    26    1
   26    26    27    1
   27    26    28    1
   28    26    29    1
@<TRIPOS>SUBSTRUCTURE
       1 MOL1            1 RESIDUE      1      MOL     
@<SCITEGIC>MOL_PROPERTY
VM2 Rank
SciTegic.value.IntegerValue
205

@<SCITEGIC>MOL_PROPERTY
Conf_Id
SciTegic.value.IntegerValue
330

@<SCITEGIC>MOL_PROPERTY
Probability
SciTegic.value.DoubleValue
0.04

@<SCITEGIC>MOL_PROPERTY
Sum Probability
SciTegic.value.DoubleValue
98.54

@<SCITEGIC>MOL_PROPERTY
Delta G
SciTegic.value.DoubleValue
2.966

@<SCITEGIC>MOL_PROPERTY
G
SciTegic.value.DoubleValue
61.113

@<SCITEGIC>MOL_PROPERTY
E
SciTegic.value.DoubleValue
22.631

@<SCITEGIC>MOL_PROPERTY
-TS
SciTegic.value.DoubleValue
38.481

@<SCITEGIC>MOL_PROPERTY
U+W
SciTegic.value.DoubleValue
-1.513

@<SCITEGIC>MOL_PROPERTY
U
SciTegic.value.DoubleValue
50.794

@<SCITEGIC>MOL_PROPERTY
W
SciTegic.value.DoubleValue
-52.307

@<SCITEGIC>MOL_PROPERTY
W(PB)
SciTegic.value.DoubleValue
-54.719

@<SCITEGIC>MOL_PROPERTY
W(SA)
SciTegic.value.DoubleValue
2.412

@<SCITEGIC>MOL_PROPERTY
Valence
SciTegic.value.DoubleValue
4.673

@<SCITEGIC>MOL_PROPERTY
Coulomb
SciTegic.value.DoubleValue
45.528

@<SCITEGIC>MOL_PROPERTY
VdW
SciTegic.value.DoubleValue
0.593

@<SCITEGIC>MOL_PROPERTY
VdW6
SciTegic.value.DoubleValue
-11.313

@<SCITEGIC>MOL_PROPERTY
VdW12
SciTegic.value.DoubleValue
11.906

@<SCITEGIC>MOL_PROPERTY
Bond
SciTegic.value.DoubleValue
0.340

@<SCITEGIC>MOL_PROPERTY
Angle
SciTegic.value.DoubleValue
1.876

@<SCITEGIC>MOL_PROPERTY
Pdih
SciTegic.value.DoubleValue
2.457

@<SCITEGIC>MOL_PROPERTY
Idih
SciTegic.value.DoubleValue
0.000

@<SCITEGIC>MOL_PROPERTY
Tether
SciTegic.value.DoubleValue
0.000

@<TRIPOS>MOLECULE
guest-3_vm2.mol2 : vm2 ligand conformer 206
          29          28           1
SMALL
USER_CHARGES
 
@<TRIPOS>ATOM
       1    C1      19.713503   19.603348   20.061401 C.3        1 MOL1        -0.2427
       2    H1      20.726378   19.371986   19.707195 H          1 MOL1         0.0958
       3    H2      19.062328   19.694210   19.182472 H          1 MOL1         0.0958
       4    H3      19.737675   20.581485   20.557630 H          1 MOL1         0.0958
       5    C2      19.191975   18.500581   21.009955 C.3        1 MOL1        -0.1412
       6    H4      19.078929   17.568073   20.439731 H          1 MOL1         0.0947
       7    H5      18.185520   18.761710   21.363075 H          1 MOL1         0.0947
       8    C3      20.129446   18.232205   22.214454 C.3        1 MOL1        -0.1437
       9    H6      19.723018   17.399082   22.802798 H          1 MOL1         0.0947
      10    H7      21.099351   17.880951   21.836582 H          1 MOL1         0.0947
      11    C4      20.372524   19.450669   23.145050 C.3        1 MOL1        -0.1437
      12    H8      20.916305   20.226764   22.590531 H          1 MOL1         0.0947
      13    H9      21.049918   19.147856   23.954285 H          1 MOL1         0.0947
      14    C5      19.091161   20.078502   23.755761 C.3        1 MOL1        -0.1437
      15    H10     19.382343   20.926159   24.390300 H          1 MOL1         0.0947
      16    H11     18.483530   20.515360   22.952282 H          1 MOL1         0.0947
      17    C6      18.206782   19.102192   24.577043 C.3        1 MOL1        -0.1437
      18    H12     17.791084   18.334207   23.911434 H          1 MOL1         0.0947
      19    H13     17.341971   19.656575   24.966860 H          1 MOL1         0.0947
      20    C7      18.930225   18.409778   25.758422 C.3        1 MOL1        -0.1477
      21    H14     18.216547   17.755701   26.276638 H          1 MOL1         0.0947
      22    H15     19.727887   17.757717   25.380551 H          1 MOL1         0.0947
      23    C8      19.516325   19.414915   26.766866 C.3        1 MOL1         0.0145
      24    H16     18.719275   20.055947   27.152965 H          1 MOL1         0.0921
      25    H17     20.256830   20.046810   26.269629 H          1 MOL1         0.0921
      26    N1      20.192060   18.745810   27.946048 N.4        1 MOL1        -0.5969
      27    H18     20.970455   18.147287   27.650825 H          1 MOL1         0.3603
      28    H19     19.540765   18.155891   28.474457 H          1 MOL1         0.3603
      29    H20     20.575486   19.432285   28.605069 H          1 MOL1         0.3603
@<TRIPOS>BOND
    1     1     2    1
    2     1     3    1
    3     1     4    1
    4     1     5    1
    5     5     6    1
    6     5     7    1
    7     5     8    1
    8     8     9    1
    9     8    10    1
   10     8    11    1
   11    11    12    1
   12    11    13    1
   13    11    14    1
   14    14    15    1
   15    14    16    1
   16    14    17    1
   17    17    18    1
   18    17    19    1
   19    17    20    1
   20    20    21    1
   21    20    22    1
   22    20    23    1
   23    23    24    1
   24    23    25    1
   25    23    26    1
   26    26    27    1
   27    26    28    1
   28    26    29    1
@<TRIPOS>SUBSTRUCTURE
       1 MOL1            1 RESIDUE      1      MOL     
@<SCITEGIC>MOL_PROPERTY
VM2 Rank
SciTegic.value.IntegerValue
206

@<SCITEGIC>MOL_PROPERTY
Conf_Id
SciTegic.value.IntegerValue
673

@<SCITEGIC>MOL_PROPERTY
Probability
SciTegic.value.DoubleValue
0.03

@<SCITEGIC>MOL_PROPERTY
Sum Probability
SciTegic.value.DoubleValue
98.57

@<SCITEGIC>MOL_PROPERTY
Delta G
SciTegic.value.DoubleValue
3.006

@<SCITEGIC>MOL_PROPERTY
G
SciTegic.value.DoubleValue
61.152

@<SCITEGIC>MOL_PROPERTY
E
SciTegic.value.DoubleValue
22.671

@<SCITEGIC>MOL_PROPERTY
-TS
SciTegic.value.DoubleValue
38.481

@<SCITEGIC>MOL_PROPERTY
U+W
SciTegic.value.DoubleValue
-1.473

@<SCITEGIC>MOL_PROPERTY
U
SciTegic.value.DoubleValue
50.794

@<SCITEGIC>MOL_PROPERTY
W
SciTegic.value.DoubleValue
-52.267

@<SCITEGIC>MOL_PROPERTY
W(PB)
SciTegic.value.DoubleValue
-54.672

@<SCITEGIC>MOL_PROPERTY
W(SA)
SciTegic.value.DoubleValue
2.405

@<SCITEGIC>MOL_PROPERTY
Valence
SciTegic.value.DoubleValue
4.673

@<SCITEGIC>MOL_PROPERTY
Coulomb
SciTegic.value.DoubleValue
45.528

@<SCITEGIC>MOL_PROPERTY
VdW
SciTegic.value.DoubleValue
0.593

@<SCITEGIC>MOL_PROPERTY
VdW6
SciTegic.value.DoubleValue
-11.313

@<SCITEGIC>MOL_PROPERTY
VdW12
SciTegic.value.DoubleValue
11.906

@<SCITEGIC>MOL_PROPERTY
Bond
SciTegic.value.DoubleValue
0.340

@<SCITEGIC>MOL_PROPERTY
Angle
SciTegic.value.DoubleValue
1.875

@<SCITEGIC>MOL_PROPERTY
Pdih
SciTegic.value.DoubleValue
2.457

@<SCITEGIC>MOL_PROPERTY
Idih
SciTegic.value.DoubleValue
0.000

@<SCITEGIC>MOL_PROPERTY
Tether
SciTegic.value.DoubleValue
0.000

@<TRIPOS>MOLECULE
guest-3_vm2.mol2 : vm2 ligand conformer 207
          29          28           1
SMALL
USER_CHARGES
 
@<TRIPOS>ATOM
       1    C1      18.924700   19.453453   19.485074 C.3        1 MOL1        -0.2427
       2    H1      19.032611   18.406968   19.171265 H          1 MOL1         0.0958
       3    H2      18.071930   19.881858   18.942587 H          1 MOL1         0.0958
       4    H3      19.827432   19.997445   19.177832 H          1 MOL1         0.0958
       5    C2      18.707634   19.555616   21.009617 C.3        1 MOL1        -0.1412
       6    H4      17.780687   19.031584   21.281708 H          1 MOL1         0.0947
       7    H5      18.569648   20.609699   21.288471 H          1 MOL1         0.0947
       8    C3      19.894788   18.959010   21.797484 C.3        1 MOL1        -0.1437
       9    H6      20.030156   17.905822   21.514808 H          1 MOL1         0.0947
      10    H7      20.818941   19.484329   21.519371 H          1 MOL1         0.0947
      11    C4      19.680829   19.060433   23.324566 C.3        1 MOL1        -0.1437
      12    H8      18.752887   18.536289   23.585558 H          1 MOL1         0.0947
      13    H9      19.553544   20.114290   23.607749 H          1 MOL1         0.0947
      14    C5      20.862600   18.447898   24.111686 C.3        1 MOL1        -0.1437
      15    H10     20.903085   17.365845   23.925240 H          1 MOL1         0.0947
      16    H11     21.802966   18.859695   23.719881 H          1 MOL1         0.0947
      17    C6      20.824908   18.708080   25.639918 C.3        1 MOL1        -0.1437
      18    H12     20.896249   19.785250   25.838401 H          1 MOL1         0.0947
      19    H13     21.736572   18.270330   26.069551 H          1 MOL1         0.0947
      20    C7      19.606945   18.094088   26.380896 C.3        1 MOL1        -0.1477
      21    H14     19.371998   17.110630   25.952743 H          1 MOL1         0.0947
      22    H15     19.884458   17.907854   27.426938 H          1 MOL1         0.0947
      23    C8      18.338853   18.973776   26.371934 C.3        1 MOL1         0.0145
      24    H16     17.519678   18.427906   26.847806 H          1 MOL1         0.0921
      25    H17     18.041061   19.202642   25.347415 H          1 MOL1         0.0921
      26    N1      18.502742   20.285646   27.113824 N.4        1 MOL1        -0.5969
      27    H18     18.753769   20.137397   28.096793 H          1 MOL1         0.3603
      28    H19     17.638730   20.838684   27.105171 H          1 MOL1         0.3603
      29    H20     19.236728   20.867265   26.698063 H          1 MOL1         0.3603
@<TRIPOS>BOND
    1     1     2    1
    2     1     3    1
    3     1     4    1
    4     1     5    1
    5     5     6    1
    6     5     7    1
    7     5     8    1
    8     8     9    1
    9     8    10    1
   10     8    11    1
   11    11    12    1
   12    11    13    1
   13    11    14    1
   14    14    15    1
   15    14    16    1
   16    14    17    1
   17    17    18    1
   18    17    19    1
   19    17    20    1
   20    20    21    1
   21    20    22    1
   22    20    23    1
   23    23    24    1
   24    23    25    1
   25    23    26    1
   26    26    27    1
   27    26    28    1
   28    26    29    1
@<TRIPOS>SUBSTRUCTURE
       1 MOL1            1 RESIDUE      1      MOL     
@<SCITEGIC>MOL_PROPERTY
VM2 Rank
SciTegic.value.IntegerValue
207

@<SCITEGIC>MOL_PROPERTY
Conf_Id
SciTegic.value.IntegerValue
288

@<SCITEGIC>MOL_PROPERTY
Probability
SciTegic.value.DoubleValue
0.02

@<SCITEGIC>MOL_PROPERTY
Sum Probability
SciTegic.value.DoubleValue
98.60

@<SCITEGIC>MOL_PROPERTY
Delta G
SciTegic.value.DoubleValue
3.240

@<SCITEGIC>MOL_PROPERTY
G
SciTegic.value.DoubleValue
61.386

@<SCITEGIC>MOL_PROPERTY
E
SciTegic.value.DoubleValue
23.802

@<SCITEGIC>MOL_PROPERTY
-TS
SciTegic.value.DoubleValue
37.584

@<SCITEGIC>MOL_PROPERTY
U+W
SciTegic.value.DoubleValue
-0.343

@<SCITEGIC>MOL_PROPERTY
U
SciTegic.value.DoubleValue
51.962

@<SCITEGIC>MOL_PROPERTY
W
SciTegic.value.DoubleValue
-52.305

@<SCITEGIC>MOL_PROPERTY
W(PB)
SciTegic.value.DoubleValue
-54.788

@<SCITEGIC>MOL_PROPERTY
W(SA)
SciTegic.value.DoubleValue
2.484

@<SCITEGIC>MOL_PROPERTY
Valence
SciTegic.value.DoubleValue
5.131

@<SCITEGIC>MOL_PROPERTY
Coulomb
SciTegic.value.DoubleValue
46.084

@<SCITEGIC>MOL_PROPERTY
VdW
SciTegic.value.DoubleValue
0.747

@<SCITEGIC>MOL_PROPERTY
VdW6
SciTegic.value.DoubleValue
-9.218

@<SCITEGIC>MOL_PROPERTY
VdW12
SciTegic.value.DoubleValue
9.965

@<SCITEGIC>MOL_PROPERTY
Bond
SciTegic.value.DoubleValue
0.247

@<SCITEGIC>MOL_PROPERTY
Angle
SciTegic.value.DoubleValue
1.341

@<SCITEGIC>MOL_PROPERTY
Pdih
SciTegic.value.DoubleValue
3.543

@<SCITEGIC>MOL_PROPERTY
Idih
SciTegic.value.DoubleValue
0.000

@<SCITEGIC>MOL_PROPERTY
Tether
SciTegic.value.DoubleValue
0.000

@<TRIPOS>MOLECULE
guest-3_vm2.mol2 : vm2 ligand conformer 208
          29          28           1
SMALL
USER_CHARGES
 
@<TRIPOS>ATOM
       1    C1      19.934924   20.007804   19.840851 C.3        1 MOL1        -0.2427
       2    H1      20.892934   20.475139   20.103224 H          1 MOL1         0.0958
       3    H2      19.828310   20.050435   18.749180 H          1 MOL1         0.0958
       4    H3      19.127515   20.610616   20.274645 H          1 MOL1         0.0958
       5    C2      19.877645   18.543876   20.332914 C.3        1 MOL1        -0.1412
       6    H4      20.624383   17.955618   19.781474 H          1 MOL1         0.0947
       7    H5      18.899362   18.108713   20.085278 H          1 MOL1         0.0947
       8    C3      20.148526   18.393712   21.849296 C.3        1 MOL1        -0.1437
       9    H6      20.199436   17.322797   22.089789 H          1 MOL1         0.0947
      10    H7      21.136087   18.811788   22.088298 H          1 MOL1         0.0947
      11    C4      19.070240   19.060143   22.736956 C.3        1 MOL1        -0.1437
      12    H8      18.078780   18.678011   22.457414 H          1 MOL1         0.0947
      13    H9      19.056956   20.143530   22.559350 H          1 MOL1         0.0947
      14    C5      19.321423   18.796947   24.238884 C.3        1 MOL1        -0.1437
      15    H10     19.320809   17.714139   24.425615 H          1 MOL1         0.0947
      16    H11     20.317381   19.175488   24.499864 H          1 MOL1         0.0947
      17    C6      18.252871   19.478335   25.126093 C.3        1 MOL1        -0.1437
      18    H12     17.255433   19.207316   24.753173 H          1 MOL1         0.0947
      19    H13     18.332275   20.569400   25.022610 H          1 MOL1         0.0947
      20    C7      18.326106   19.095997   26.626497 C.3        1 MOL1        -0.1477
      21    H14     17.478093   19.571925   27.136606 H          1 MOL1         0.0947
      22    H15     18.185150   18.014295   26.752734 H          1 MOL1         0.0947
      23    C8      19.617074   19.547534   27.340261 C.3        1 MOL1         0.0145
      24    H16     19.429267   19.600291   28.416097 H          1 MOL1         0.0921
      25    H17     19.902111   20.545367   26.996221 H          1 MOL1         0.0921
      26    N1      20.795190   18.613651   27.143248 N.4        1 MOL1        -0.5969
      27    H18     20.598012   17.674020   27.503199 H          1 MOL1         0.3603
      28    H19     21.633097   18.950714   27.630046 H          1 MOL1         0.3603
      29    H20     21.038854   18.513799   26.153766 H          1 MOL1         0.3603
@<TRIPOS>BOND
    1     1     2    1
    2     1     3    1
    3     1     4    1
    4     1     5    1
    5     5     6    1
    6     5     7    1
    7     5     8    1
    8     8     9    1
    9     8    10    1
   10     8    11    1
   11    11    12    1
   12    11    13    1
   13    11    14    1
   14    14    15    1
   15    14    16    1
   16    14    17    1
   17    17    18    1
   18    17    19    1
   19    17    20    1
   20    20    21    1
   21    20    22    1
   22    20    23    1
   23    23    24    1
   24    23    25    1
   25    23    26    1
   26    26    27    1
   27    26    28    1
   28    26    29    1
@<TRIPOS>SUBSTRUCTURE
       1 MOL1            1 RESIDUE      1      MOL     
@<SCITEGIC>MOL_PROPERTY
VM2 Rank
SciTegic.value.IntegerValue
208

@<SCITEGIC>MOL_PROPERTY
Conf_Id
SciTegic.value.IntegerValue
652

@<SCITEGIC>MOL_PROPERTY
Probability
SciTegic.value.DoubleValue
0.02

@<SCITEGIC>MOL_PROPERTY
Sum Probability
SciTegic.value.DoubleValue
98.62

@<SCITEGIC>MOL_PROPERTY
Delta G
SciTegic.value.DoubleValue
3.302

@<SCITEGIC>MOL_PROPERTY
G
SciTegic.value.DoubleValue
61.449

@<SCITEGIC>MOL_PROPERTY
E
SciTegic.value.DoubleValue
23.997

@<SCITEGIC>MOL_PROPERTY
-TS
SciTegic.value.DoubleValue
37.452

@<SCITEGIC>MOL_PROPERTY
U+W
SciTegic.value.DoubleValue
-0.148

@<SCITEGIC>MOL_PROPERTY
U
SciTegic.value.DoubleValue
51.917

@<SCITEGIC>MOL_PROPERTY
W
SciTegic.value.DoubleValue
-52.065

@<SCITEGIC>MOL_PROPERTY
W(PB)
SciTegic.value.DoubleValue
-54.538

@<SCITEGIC>MOL_PROPERTY
W(SA)
SciTegic.value.DoubleValue
2.473

@<SCITEGIC>MOL_PROPERTY
Valence
SciTegic.value.DoubleValue
4.676

@<SCITEGIC>MOL_PROPERTY
Coulomb
SciTegic.value.DoubleValue
46.406

@<SCITEGIC>MOL_PROPERTY
VdW
SciTegic.value.DoubleValue
0.835

@<SCITEGIC>MOL_PROPERTY
VdW6
SciTegic.value.DoubleValue
-9.055

@<SCITEGIC>MOL_PROPERTY
VdW12
SciTegic.value.DoubleValue
9.889

@<SCITEGIC>MOL_PROPERTY
Bond
SciTegic.value.DoubleValue
0.237

@<SCITEGIC>MOL_PROPERTY
Angle
SciTegic.value.DoubleValue
1.196

@<SCITEGIC>MOL_PROPERTY
Pdih
SciTegic.value.DoubleValue
3.243

@<SCITEGIC>MOL_PROPERTY
Idih
SciTegic.value.DoubleValue
0.000

@<SCITEGIC>MOL_PROPERTY
Tether
SciTegic.value.DoubleValue
0.000

@<TRIPOS>MOLECULE
guest-3_vm2.mol2 : vm2 ligand conformer 209
          29          28           1
SMALL
USER_CHARGES
 
@<TRIPOS>ATOM
       1    C1      19.292098   18.201139   19.800700 C.3        1 MOL1        -0.2427
       2    H1      19.736177   17.223999   20.030951 H          1 MOL1         0.0958
       3    H2      18.279385   18.226908   20.221670 H          1 MOL1         0.0958
       4    H3      19.197826   18.278506   18.709802 H          1 MOL1         0.0958
       5    C2      20.165037   19.351694   20.350880 C.3        1 MOL1        -0.1412
       6    H4      19.684722   20.316130   20.134348 H          1 MOL1         0.0947
       7    H5      21.123171   19.357588   19.812646 H          1 MOL1         0.0947
       8    C3      20.448604   19.237175   21.868057 C.3        1 MOL1        -0.1437
       9    H6      20.947104   18.280493   22.076487 H          1 MOL1         0.0947
      10    H7      21.160758   20.025022   22.149876 H          1 MOL1         0.0947
      11    C4      19.179313   19.366677   22.743787 C.3        1 MOL1        -0.1437
      12    H8      18.487525   18.543003   22.523701 H          1 MOL1         0.0947
      13    H9      18.655733   20.299639   22.493574 H          1 MOL1         0.0947
      14    C5      19.519131   19.352525   24.251258 C.3        1 MOL1        -0.1437
      15    H10     20.048686   18.420217   24.483007 H          1 MOL1         0.0947
      16    H11     20.199679   20.184134   24.480654 H          1 MOL1         0.0947
      17    C6      18.247930   19.464362   25.125769 C.3        1 MOL1        -0.1437
      18    H12     17.622018   18.573390   24.977988 H          1 MOL1         0.0947
      19    H13     17.650993   20.318851   24.778031 H          1 MOL1         0.0947
      20    C7      18.524994   19.654671   26.638968 C.3        1 MOL1        -0.1477
      21    H14     19.097083   20.576272   26.809985 H          1 MOL1         0.0947
      22    H15     17.559835   19.801474   27.141724 H          1 MOL1         0.0947
      23    C8      19.230511   18.461409   27.315954 C.3        1 MOL1         0.0145
      24    H16     18.826196   17.522406   26.928548 H          1 MOL1         0.0921
      25    H17     19.036340   18.496441   28.391382 H          1 MOL1         0.0921
      26    N1      20.736382   18.448349   27.139629 N.4        1 MOL1        -0.5969
      27    H18     21.002378   18.411096   26.151561 H          1 MOL1         0.3603
      28    H19     21.166169   17.638843   27.600775 H          1 MOL1         0.3603
      29    H20     21.171827   19.286154   27.539406 H          1 MOL1         0.3603
@<TRIPOS>BOND
    1     1     2    1
    2     1     3    1
    3     1     4    1
    4     1     5    1
    5     5     6    1
    6     5     7    1
    7     5     8    1
    8     8     9    1
    9     8    10    1
   10     8    11    1
   11    11    12    1
   12    11    13    1
   13    11    14    1
   14    14    15    1
   15    14    16    1
   16    14    17    1
   17    17    18    1
   18    17    19    1
   19    17    20    1
   20    20    21    1
   21    20    22    1
   22    20    23    1
   23    23    24    1
   24    23    25    1
   25    23    26    1
   26    26    27    1
   27    26    28    1
   28    26    29    1
@<TRIPOS>SUBSTRUCTURE
       1 MOL1            1 RESIDUE      1      MOL     
@<SCITEGIC>MOL_PROPERTY
VM2 Rank
SciTegic.value.IntegerValue
209

@<SCITEGIC>MOL_PROPERTY
Conf_Id
SciTegic.value.IntegerValue
2956

@<SCITEGIC>MOL_PROPERTY
Probability
SciTegic.value.DoubleValue
0.02

@<SCITEGIC>MOL_PROPERTY
Sum Probability
SciTegic.value.DoubleValue
98.64

@<SCITEGIC>MOL_PROPERTY
Delta G
SciTegic.value.DoubleValue
3.309

@<SCITEGIC>MOL_PROPERTY
G
SciTegic.value.DoubleValue
61.455

@<SCITEGIC>MOL_PROPERTY
E
SciTegic.value.DoubleValue
24.004

@<SCITEGIC>MOL_PROPERTY
-TS
SciTegic.value.DoubleValue
37.452

@<SCITEGIC>MOL_PROPERTY
U+W
SciTegic.value.DoubleValue
-0.141

@<SCITEGIC>MOL_PROPERTY
U
SciTegic.value.DoubleValue
51.917

@<SCITEGIC>MOL_PROPERTY
W
SciTegic.value.DoubleValue
-52.058

@<SCITEGIC>MOL_PROPERTY
W(PB)
SciTegic.value.DoubleValue
-54.529

@<SCITEGIC>MOL_PROPERTY
W(SA)
SciTegic.value.DoubleValue
2.471

@<SCITEGIC>MOL_PROPERTY
Valence
SciTegic.value.DoubleValue
4.676

@<SCITEGIC>MOL_PROPERTY
Coulomb
SciTegic.value.DoubleValue
46.406

@<SCITEGIC>MOL_PROPERTY
VdW
SciTegic.value.DoubleValue
0.835

@<SCITEGIC>MOL_PROPERTY
VdW6
SciTegic.value.DoubleValue
-9.054

@<SCITEGIC>MOL_PROPERTY
VdW12
SciTegic.value.DoubleValue
9.889

@<SCITEGIC>MOL_PROPERTY
Bond
SciTegic.value.DoubleValue
0.237

@<SCITEGIC>MOL_PROPERTY
Angle
SciTegic.value.DoubleValue
1.196

@<SCITEGIC>MOL_PROPERTY
Pdih
SciTegic.value.DoubleValue
3.243

@<SCITEGIC>MOL_PROPERTY
Idih
SciTegic.value.DoubleValue
0.000

@<SCITEGIC>MOL_PROPERTY
Tether
SciTegic.value.DoubleValue
0.000

@<TRIPOS>MOLECULE
guest-3_vm2.mol2 : vm2 ligand conformer 210
          29          28           1
SMALL
USER_CHARGES
 
@<TRIPOS>ATOM
       1    C1      20.872983   18.266762   20.997783 C.3        1 MOL1        -0.2427
       2    H1      20.498510   18.364610   19.970594 H          1 MOL1         0.0958
       3    H2      21.950716   18.065464   20.945156 H          1 MOL1         0.0958
       4    H3      20.394941   17.392068   21.456048 H          1 MOL1         0.0958
       5    C2      20.601073   19.551597   21.811946 C.3        1 MOL1        -0.1412
       6    H4      21.186381   20.374985   21.379492 H          1 MOL1         0.0947
       7    H5      20.971517   19.424701   22.837330 H          1 MOL1         0.0947
       8    C3      19.107134   19.963310   21.829078 C.3        1 MOL1        -0.1437
       9    H6      19.003697   20.909037   22.377247 H          1 MOL1         0.0947
      10    H7      18.789586   20.183829   20.800721 H          1 MOL1         0.0947
      11    C4      18.138018   18.909588   22.429711 C.3        1 MOL1        -0.1437
      12    H8      18.114427   18.025929   21.778247 H          1 MOL1         0.0947
      13    H9      17.118355   19.317936   22.408023 H          1 MOL1         0.0947
      14    C5      18.466927   18.457990   23.875641 C.3        1 MOL1        -0.1437
      15    H10     17.730702   17.700218   24.176864 H          1 MOL1         0.0947
      16    H11     19.442114   17.955132   23.891211 H          1 MOL1         0.0947
      17    C6      18.443519   19.618181   24.902152 C.3        1 MOL1        -0.1437
      18    H12     17.488018   20.153772   24.817428 H          1 MOL1         0.0947
      19    H13     19.226602   20.349399   24.665204 H          1 MOL1         0.0947
      20    C7      18.611194   19.135739   26.364573 C.3        1 MOL1        -0.1477
      21    H14     18.540026   19.996988   27.042038 H          1 MOL1         0.0947
      22    H15     17.775982   18.471976   26.624692 H          1 MOL1         0.0947
      23    C8      19.935635   18.391951   26.630096 C.3        1 MOL1         0.0145
      24    H16     20.001983   17.512384   25.984662 H          1 MOL1         0.0921
      25    H17     19.959772   18.053106   27.669358 H          1 MOL1         0.0921
      26    N1      21.167517   19.242881   26.394019 N.4        1 MOL1        -0.5969
      27    H18     21.178465   20.070114   26.999739 H          1 MOL1         0.3603
      28    H19     21.216144   19.574037   25.425814 H          1 MOL1         0.3603
      29    H20     22.031508   18.722266   26.581205 H          1 MOL1         0.3603
@<TRIPOS>BOND
    1     1     2    1
    2     1     3    1
    3     1     4    1
    4     1     5    1
    5     5     6    1
    6     5     7    1
    7     5     8    1
    8     8     9    1
    9     8    10    1
   10     8    11    1
   11    11    12    1
   12    11    13    1
   13    11    14    1
   14    14    15    1
   15    14    16    1
   16    14    17    1
   17    17    18    1
   18    17    19    1
   19    17    20    1
   20    20    21    1
   21    20    22    1
   22    20    23    1
   23    23    24    1
   24    23    25    1
   25    23    26    1
   26    26    27    1
   27    26    28    1
   28    26    29    1
@<TRIPOS>SUBSTRUCTURE
       1 MOL1            1 RESIDUE      1      MOL     
@<SCITEGIC>MOL_PROPERTY
VM2 Rank
SciTegic.value.IntegerValue
210

@<SCITEGIC>MOL_PROPERTY
Conf_Id
SciTegic.value.IntegerValue
1012

@<SCITEGIC>MOL_PROPERTY
Probability
SciTegic.value.DoubleValue
0.02

@<SCITEGIC>MOL_PROPERTY
Sum Probability
SciTegic.value.DoubleValue
98.66

@<SCITEGIC>MOL_PROPERTY
Delta G
SciTegic.value.DoubleValue
3.311

@<SCITEGIC>MOL_PROPERTY
G
SciTegic.value.DoubleValue
61.457

@<SCITEGIC>MOL_PROPERTY
E
SciTegic.value.DoubleValue
23.245

@<SCITEGIC>MOL_PROPERTY
-TS
SciTegic.value.DoubleValue
38.213

@<SCITEGIC>MOL_PROPERTY
U+W
SciTegic.value.DoubleValue
-0.900

@<SCITEGIC>MOL_PROPERTY
U
SciTegic.value.DoubleValue
51.678

@<SCITEGIC>MOL_PROPERTY
W
SciTegic.value.DoubleValue
-52.578

@<SCITEGIC>MOL_PROPERTY
W(PB)
SciTegic.value.DoubleValue
-54.979

@<SCITEGIC>MOL_PROPERTY
W(SA)
SciTegic.value.DoubleValue
2.401

@<SCITEGIC>MOL_PROPERTY
Valence
SciTegic.value.DoubleValue
4.349

@<SCITEGIC>MOL_PROPERTY
Coulomb
SciTegic.value.DoubleValue
46.772

@<SCITEGIC>MOL_PROPERTY
VdW
SciTegic.value.DoubleValue
0.557

@<SCITEGIC>MOL_PROPERTY
VdW6
SciTegic.value.DoubleValue
-11.095

@<SCITEGIC>MOL_PROPERTY
VdW12
SciTegic.value.DoubleValue
11.652

@<SCITEGIC>MOL_PROPERTY
Bond
SciTegic.value.DoubleValue
0.314

@<SCITEGIC>MOL_PROPERTY
Angle
SciTegic.value.DoubleValue
1.558

@<SCITEGIC>MOL_PROPERTY
Pdih
SciTegic.value.DoubleValue
2.477

@<SCITEGIC>MOL_PROPERTY
Idih
SciTegic.value.DoubleValue
0.000

@<SCITEGIC>MOL_PROPERTY
Tether
SciTegic.value.DoubleValue
0.000

@<TRIPOS>MOLECULE
guest-3_vm2.mol2 : vm2 ligand conformer 211
          29          28           1
SMALL
USER_CHARGES
 
@<TRIPOS>ATOM
       1    C1      20.609220   19.496126   19.638111 C.3        1 MOL1        -0.2427
       2    H1      21.593500   19.069319   19.871072 H          1 MOL1         0.0958
       3    H2      20.420616   19.343916   18.567456 H          1 MOL1         0.0958
       4    H3      20.653057   20.577515   19.822270 H          1 MOL1         0.0958
       5    C2      19.502795   18.833496   20.485845 C.3        1 MOL1        -0.1412
       6    H4      19.460401   17.759937   20.254474 H          1 MOL1         0.0947
       7    H5      18.527406   19.256719   20.207650 H          1 MOL1         0.0947
       8    C3      19.744825   19.032496   21.998395 C.3        1 MOL1        -0.1437
       9    H6      20.719967   18.606580   22.271993 H          1 MOL1         0.0947
      10    H7      19.793700   20.107728   22.214996 H          1 MOL1         0.0947
      11    C4      18.633906   18.371860   22.849483 C.3        1 MOL1        -0.1437
      12    H8      18.550295   17.312580   22.569732 H          1 MOL1         0.0947
      13    H9      17.663832   18.830424   22.612926 H          1 MOL1         0.0947
      14    C5      18.890842   18.458623   24.373801 C.3        1 MOL1        -0.1437
      15    H10     18.109842   17.884385   24.891014 H          1 MOL1         0.0947
      16    H11     19.847861   17.971513   24.598423 H          1 MOL1         0.0947
      17    C6      18.896755   19.910891   24.912806 C.3        1 MOL1        -0.1437
      18    H12     18.023778   20.442893   24.510175 H          1 MOL1         0.0947
      19    H13     19.781574   20.443745   24.539788 H          1 MOL1         0.0947
      20    C7      18.856514   20.018243   26.458586 C.3        1 MOL1        -0.1477
      21    H14     18.769261   21.081213   26.719974 H          1 MOL1         0.0947
      22    H15     17.952151   19.535833   26.852622 H          1 MOL1         0.0947
      23    C8      20.106459   19.461002   27.170716 C.3        1 MOL1         0.0145
      24    H16     20.171399   19.898776   28.170519 H          1 MOL1         0.0921
      25    H17     21.005890   19.744010   26.617362 H          1 MOL1         0.0921
      26    N1      20.102685   17.955263   27.347257 N.4        1 MOL1        -0.5969
      27    H18     19.303917   17.641593   27.908405 H          1 MOL1         0.3603
      28    H19     20.950153   17.626037   27.822699 H          1 MOL1         0.3603
      29    H20     20.051027   17.468413   26.447993 H          1 MOL1         0.3603
@<TRIPOS>BOND
    1     1     2    1
    2     1     3    1
    3     1     4    1
    4     1     5    1
    5     5     6    1
    6     5     7    1
    7     5     8    1
    8     8     9    1
    9     8    10    1
   10     8    11    1
   11    11    12    1
   12    11    13    1
   13    11    14    1
   14    14    15    1
   15    14    16    1
   16    14    17    1
   17    17    18    1
   18    17    19    1
   19    17    20    1
   20    20    21    1
   21    20    22    1
   22    20    23    1
   23    23    24    1
   24    23    25    1
   25    23    26    1
   26    26    27    1
   27    26    28    1
   28    26    29    1
@<TRIPOS>SUBSTRUCTURE
       1 MOL1            1 RESIDUE      1      MOL     
@<SCITEGIC>MOL_PROPERTY
VM2 Rank
SciTegic.value.IntegerValue
211

@<SCITEGIC>MOL_PROPERTY
Conf_Id
SciTegic.value.IntegerValue
1276

@<SCITEGIC>MOL_PROPERTY
Probability
SciTegic.value.DoubleValue
0.02

@<SCITEGIC>MOL_PROPERTY
Sum Probability
SciTegic.value.DoubleValue
98.68

@<SCITEGIC>MOL_PROPERTY
Delta G
SciTegic.value.DoubleValue
3.321

@<SCITEGIC>MOL_PROPERTY
G
SciTegic.value.DoubleValue
61.467

@<SCITEGIC>MOL_PROPERTY
E
SciTegic.value.DoubleValue
23.983

@<SCITEGIC>MOL_PROPERTY
-TS
SciTegic.value.DoubleValue
37.484

@<SCITEGIC>MOL_PROPERTY
U+W
SciTegic.value.DoubleValue
-0.161

@<SCITEGIC>MOL_PROPERTY
U
SciTegic.value.DoubleValue
51.807

@<SCITEGIC>MOL_PROPERTY
W
SciTegic.value.DoubleValue
-51.968

@<SCITEGIC>MOL_PROPERTY
W(PB)
SciTegic.value.DoubleValue
-54.448

@<SCITEGIC>MOL_PROPERTY
W(SA)
SciTegic.value.DoubleValue
2.480

@<SCITEGIC>MOL_PROPERTY
Valence
SciTegic.value.DoubleValue
4.647

@<SCITEGIC>MOL_PROPERTY
Coulomb
SciTegic.value.DoubleValue
46.372

@<SCITEGIC>MOL_PROPERTY
VdW
SciTegic.value.DoubleValue
0.788

@<SCITEGIC>MOL_PROPERTY
VdW6
SciTegic.value.DoubleValue
-9.151

@<SCITEGIC>MOL_PROPERTY
VdW12
SciTegic.value.DoubleValue
9.939

@<SCITEGIC>MOL_PROPERTY
Bond
SciTegic.value.DoubleValue
0.242

@<SCITEGIC>MOL_PROPERTY
Angle
SciTegic.value.DoubleValue
1.145

@<SCITEGIC>MOL_PROPERTY
Pdih
SciTegic.value.DoubleValue
3.261

@<SCITEGIC>MOL_PROPERTY
Idih
SciTegic.value.DoubleValue
0.000

@<SCITEGIC>MOL_PROPERTY
Tether
SciTegic.value.DoubleValue
0.000

@<TRIPOS>MOLECULE
guest-3_vm2.mol2 : vm2 ligand conformer 212
          29          28           1
SMALL
USER_CHARGES
 
@<TRIPOS>ATOM
       1    C1      19.441535   17.388447   20.336251 C.3        1 MOL1        -0.2427
       2    H1      20.287981   16.857918   20.791527 H          1 MOL1         0.0958
       3    H2      18.641128   16.658078   20.160377 H          1 MOL1         0.0958
       4    H3      19.764947   17.775407   19.361109 H          1 MOL1         0.0958
       5    C2      18.946872   18.529632   21.249804 C.3        1 MOL1        -0.1412
       6    H4      18.591769   18.103990   22.195964 H          1 MOL1         0.0947
       7    H5      18.079915   19.017170   20.782466 H          1 MOL1         0.0947
       8    C3      20.056336   19.578764   21.502751 C.3        1 MOL1        -0.1437
       9    H6      20.955067   19.096178   21.910776 H          1 MOL1         0.0947
      10    H7      20.353467   20.001162   20.532856 H          1 MOL1         0.0947
      11    C4      19.608241   20.740599   22.427367 C.3        1 MOL1        -0.1437
      12    H8      18.526511   20.908043   22.332661 H          1 MOL1         0.0947
      13    H9      20.082529   21.664804   22.069210 H          1 MOL1         0.0947
      14    C5      19.992523   20.568046   23.919594 C.3        1 MOL1        -0.1437
      15    H10     21.086100   20.510984   24.009808 H          1 MOL1         0.0947
      16    H11     19.688333   21.475234   24.459792 H          1 MOL1         0.0947
      17    C6      19.355517   19.336752   24.604523 C.3        1 MOL1        -0.1437
      18    H12     19.748233   18.417125   24.151230 H          1 MOL1         0.0947
      19    H13     18.269210   19.343497   24.439411 H          1 MOL1         0.0947
      20    C7      19.645473   19.309330   26.121236 C.3        1 MOL1        -0.1477
      21    H14     20.730639   19.304310   26.290086 H          1 MOL1         0.0947
      22    H15     19.249979   20.219965   26.590701 H          1 MOL1         0.0947
      23    C8      19.017399   18.074842   26.791416 C.3        1 MOL1         0.0145
      24    H16     19.420630   17.164897   26.338799 H          1 MOL1         0.0921
      25    H17     17.934651   18.084344   26.639686 H          1 MOL1         0.0921
      26    N1      19.280105   18.011590   28.282058 N.4        1 MOL1        -0.5969
      27    H18     18.900348   18.828638   28.771698 H          1 MOL1         0.3603
      28    H19     20.283137   17.973089   28.491738 H          1 MOL1         0.3603
      29    H20     18.853333   17.182069   28.709237 H          1 MOL1         0.3603
@<TRIPOS>BOND
    1     1     2    1
    2     1     3    1
    3     1     4    1
    4     1     5    1
    5     5     6    1
    6     5     7    1
    7     5     8    1
    8     8     9    1
    9     8    10    1
   10     8    11    1
   11    11    12    1
   12    11    13    1
   13    11    14    1
   14    14    15    1
   15    14    16    1
   16    14    17    1
   17    17    18    1
   18    17    19    1
   19    17    20    1
   20    20    21    1
   21    20    22    1
   22    20    23    1
   23    23    24    1
   24    23    25    1
   25    23    26    1
   26    26    27    1
   27    26    28    1
   28    26    29    1
@<TRIPOS>SUBSTRUCTURE
       1 MOL1            1 RESIDUE      1      MOL     
@<SCITEGIC>MOL_PROPERTY
VM2 Rank
SciTegic.value.IntegerValue
212

@<SCITEGIC>MOL_PROPERTY
Conf_Id
SciTegic.value.IntegerValue
1796

@<SCITEGIC>MOL_PROPERTY
Probability
SciTegic.value.DoubleValue
0.02

@<SCITEGIC>MOL_PROPERTY
Sum Probability
SciTegic.value.DoubleValue
98.70

@<SCITEGIC>MOL_PROPERTY
Delta G
SciTegic.value.DoubleValue
3.324

@<SCITEGIC>MOL_PROPERTY
G
SciTegic.value.DoubleValue
61.471

@<SCITEGIC>MOL_PROPERTY
E
SciTegic.value.DoubleValue
23.902

@<SCITEGIC>MOL_PROPERTY
-TS
SciTegic.value.DoubleValue
37.568

@<SCITEGIC>MOL_PROPERTY
U+W
SciTegic.value.DoubleValue
-0.242

@<SCITEGIC>MOL_PROPERTY
U
SciTegic.value.DoubleValue
51.355

@<SCITEGIC>MOL_PROPERTY
W
SciTegic.value.DoubleValue
-51.597

@<SCITEGIC>MOL_PROPERTY
W(PB)
SciTegic.value.DoubleValue
-54.064

@<SCITEGIC>MOL_PROPERTY
W(SA)
SciTegic.value.DoubleValue
2.467

@<SCITEGIC>MOL_PROPERTY
Valence
SciTegic.value.DoubleValue
5.616

@<SCITEGIC>MOL_PROPERTY
Coulomb
SciTegic.value.DoubleValue
44.962

@<SCITEGIC>MOL_PROPERTY
VdW
SciTegic.value.DoubleValue
0.776

@<SCITEGIC>MOL_PROPERTY
VdW6
SciTegic.value.DoubleValue
-8.607

@<SCITEGIC>MOL_PROPERTY
VdW12
SciTegic.value.DoubleValue
9.383

@<SCITEGIC>MOL_PROPERTY
Bond
SciTegic.value.DoubleValue
0.231

@<SCITEGIC>MOL_PROPERTY
Angle
SciTegic.value.DoubleValue
1.168

@<SCITEGIC>MOL_PROPERTY
Pdih
SciTegic.value.DoubleValue
4.217

@<SCITEGIC>MOL_PROPERTY
Idih
SciTegic.value.DoubleValue
0.000

@<SCITEGIC>MOL_PROPERTY
Tether
SciTegic.value.DoubleValue
0.000

@<TRIPOS>MOLECULE
guest-3_vm2.mol2 : vm2 ligand conformer 213
          29          28           1
SMALL
USER_CHARGES
 
@<TRIPOS>ATOM
       1    C1      20.217794   17.674306   20.763335 C.3        1 MOL1        -0.2427
       2    H1      21.233717   17.928404   21.092258 H          1 MOL1         0.0958
       3    H2      19.668287   17.254878   21.615046 H          1 MOL1         0.0958
       4    H3      20.297600   16.885263   20.004453 H          1 MOL1         0.0958
       5    C2      19.494607   18.909219   20.183378 C.3        1 MOL1        -0.1412
       6    H4      18.461403   18.638234   19.925029 H          1 MOL1         0.0947
       7    H5      19.980604   19.190408   19.238678 H          1 MOL1         0.0947
       8    C3      19.489000   20.144533   21.119622 C.3        1 MOL1        -0.1437
       9    H6      20.517499   20.485849   21.300616 H          1 MOL1         0.0947
      10    H7      18.995567   20.965003   20.580448 H          1 MOL1         0.0947
      11    C4      18.746086   19.935536   22.464927 C.3        1 MOL1        -0.1437
      12    H8      17.947284   19.191296   22.341978 H          1 MOL1         0.0947
      13    H9      18.246129   20.875925   22.735249 H          1 MOL1         0.0947
      14    C5      19.683246   19.535681   23.630691 C.3        1 MOL1        -0.1437
      15    H10     20.229263   18.617260   23.384928 H          1 MOL1         0.0947
      16    H11     20.439148   20.319965   23.774729 H          1 MOL1         0.0947
      17    C6      18.902262   19.327827   24.947808 C.3        1 MOL1        -0.1437
      18    H12     18.144696   18.544490   24.805666 H          1 MOL1         0.0947
      19    H13     18.362080   20.249720   25.204784 H          1 MOL1         0.0947
      20    C7      19.835047   18.935564   26.114593 C.3        1 MOL1        -0.1477
      21    H14     20.372669   18.011355   25.863781 H          1 MOL1         0.0947
      22    H15     20.590904   19.718330   26.263103 H          1 MOL1         0.0947
      23    C8      19.047214   18.730777   27.420334 C.3        1 MOL1         0.0145
      24    H16     18.304386   17.940479   27.282167 H          1 MOL1         0.0921
      25    H17     18.523228   19.653793   27.682892 H          1 MOL1         0.0921
      26    N1      19.928745   18.344556   28.590311 N.4        1 MOL1        -0.5969
      27    H18     20.634102   19.061582   28.790025 H          1 MOL1         0.3603
      28    H19     20.430492   17.467172   28.417164 H          1 MOL1         0.3603
      29    H20     19.384528   18.213003   29.450118 H          1 MOL1         0.3603
@<TRIPOS>BOND
    1     1     2    1
    2     1     3    1
    3     1     4    1
    4     1     5    1
    5     5     6    1
    6     5     7    1
    7     5     8    1
    8     8     9    1
    9     8    10    1
   10     8    11    1
   11    11    12    1
   12    11    13    1
   13    11    14    1
   14    14    15    1
   15    14    16    1
   16    14    17    1
   17    17    18    1
   18    17    19    1
   19    17    20    1
   20    20    21    1
   21    20    22    1
   22    20    23    1
   23    23    24    1
   24    23    25    1
   25    23    26    1
   26    26    27    1
   27    26    28    1
   28    26    29    1
@<TRIPOS>SUBSTRUCTURE
       1 MOL1            1 RESIDUE      1      MOL     
@<SCITEGIC>MOL_PROPERTY
VM2 Rank
SciTegic.value.IntegerValue
213

@<SCITEGIC>MOL_PROPERTY
Conf_Id
SciTegic.value.IntegerValue
2174

@<SCITEGIC>MOL_PROPERTY
Probability
SciTegic.value.DoubleValue
0.02

@<SCITEGIC>MOL_PROPERTY
Sum Probability
SciTegic.value.DoubleValue
98.72

@<SCITEGIC>MOL_PROPERTY
Delta G
SciTegic.value.DoubleValue
3.333

@<SCITEGIC>MOL_PROPERTY
G
SciTegic.value.DoubleValue
61.479

@<SCITEGIC>MOL_PROPERTY
E
SciTegic.value.DoubleValue
23.941

@<SCITEGIC>MOL_PROPERTY
-TS
SciTegic.value.DoubleValue
37.538

@<SCITEGIC>MOL_PROPERTY
U+W
SciTegic.value.DoubleValue
-0.203

@<SCITEGIC>MOL_PROPERTY
U
SciTegic.value.DoubleValue
51.075

@<SCITEGIC>MOL_PROPERTY
W
SciTegic.value.DoubleValue
-51.278

@<SCITEGIC>MOL_PROPERTY
W(PB)
SciTegic.value.DoubleValue
-53.784

@<SCITEGIC>MOL_PROPERTY
W(SA)
SciTegic.value.DoubleValue
2.505

@<SCITEGIC>MOL_PROPERTY
Valence
SciTegic.value.DoubleValue
5.555

@<SCITEGIC>MOL_PROPERTY
Coulomb
SciTegic.value.DoubleValue
44.691

@<SCITEGIC>MOL_PROPERTY
VdW
SciTegic.value.DoubleValue
0.829

@<SCITEGIC>MOL_PROPERTY
VdW6
SciTegic.value.DoubleValue
-8.485

@<SCITEGIC>MOL_PROPERTY
VdW12
SciTegic.value.DoubleValue
9.313

@<SCITEGIC>MOL_PROPERTY
Bond
SciTegic.value.DoubleValue
0.230

@<SCITEGIC>MOL_PROPERTY
Angle
SciTegic.value.DoubleValue
1.154

@<SCITEGIC>MOL_PROPERTY
Pdih
SciTegic.value.DoubleValue
4.172

@<SCITEGIC>MOL_PROPERTY
Idih
SciTegic.value.DoubleValue
0.000

@<SCITEGIC>MOL_PROPERTY
Tether
SciTegic.value.DoubleValue
0.000

@<TRIPOS>MOLECULE
guest-3_vm2.mol2 : vm2 ligand conformer 214
          29          28           1
SMALL
USER_CHARGES
 
@<TRIPOS>ATOM
       1    C1      20.732878   17.586491   20.527503 C.3        1 MOL1        -0.2427
       2    H1      21.739403   17.958354   20.759579 H          1 MOL1         0.0958
       3    H2      20.545908   16.697754   21.144287 H          1 MOL1         0.0958
       4    H3      20.723113   17.274517   19.475070 H          1 MOL1         0.0958
       5    C2      19.667554   18.673446   20.783406 C.3        1 MOL1        -0.1412
       6    H4      18.676380   18.284077   20.511621 H          1 MOL1         0.0947
       7    H5      19.860943   19.534283   20.128105 H          1 MOL1         0.0947
       8    C3      19.661234   19.130886   22.258703 C.3        1 MOL1        -0.1437
       9    H6      19.473459   18.259608   22.899387 H          1 MOL1         0.0947
      10    H7      20.652168   19.523957   22.524326 H          1 MOL1         0.0947
      11    C4      18.586612   20.211301   22.520970 C.3        1 MOL1        -0.1437
      12    H8      17.589750   19.785324   22.341905 H          1 MOL1         0.0947
      13    H9      18.708477   21.021525   21.788859 H          1 MOL1         0.0947
      14    C5      18.633916   20.830701   23.941666 C.3        1 MOL1        -0.1437
      15    H10     19.587204   21.355556   24.093203 H          1 MOL1         0.0947
      16    H11     17.858424   21.607780   23.988545 H          1 MOL1         0.0947
      17    C6      18.381707   19.826991   25.096890 C.3        1 MOL1        -0.1437
      18    H12     17.744150   19.002477   24.748795 H          1 MOL1         0.0947
      19    H13     17.811395   20.339150   25.884410 H          1 MOL1         0.0947
      20    C7      19.682204   19.274804   25.728317 C.3        1 MOL1        -0.1477
      21    H14     20.299790   18.778687   24.971204 H          1 MOL1         0.0947
      22    H15     20.277379   20.106745   26.127777 H          1 MOL1         0.0947
      23    C8      19.375214   18.280328   26.861494 C.3        1 MOL1         0.0145
      24    H16     18.796918   17.440266   26.467402 H          1 MOL1         0.0921
      25    H17     18.780885   18.774959   27.634513 H          1 MOL1         0.0921
      26    N1      20.622680   17.723052   27.516051 N.4        1 MOL1        -0.5969
      27    H18     21.213617   17.219887   26.845960 H          1 MOL1         0.3603
      28    H19     20.395473   17.063488   28.268426 H          1 MOL1         0.3603
      29    H20     21.198762   18.462750   27.931364 H          1 MOL1         0.3603
@<TRIPOS>BOND
    1     1     2    1
    2     1     3    1
    3     1     4    1
    4     1     5    1
    5     5     6    1
    6     5     7    1
    7     5     8    1
    8     8     9    1
    9     8    10    1
   10     8    11    1
   11    11    12    1
   12    11    13    1
   13    11    14    1
   14    14    15    1
   15    14    16    1
   16    14    17    1
   17    17    18    1
   18    17    19    1
   19    17    20    1
   20    20    21    1
   21    20    22    1
   22    20    23    1
   23    23    24    1
   24    23    25    1
   25    23    26    1
   26    26    27    1
   27    26    28    1
   28    26    29    1
@<TRIPOS>SUBSTRUCTURE
       1 MOL1            1 RESIDUE      1      MOL     
@<SCITEGIC>MOL_PROPERTY
VM2 Rank
SciTegic.value.IntegerValue
214

@<SCITEGIC>MOL_PROPERTY
Conf_Id
SciTegic.value.IntegerValue
982

@<SCITEGIC>MOL_PROPERTY
Probability
SciTegic.value.DoubleValue
0.02

@<SCITEGIC>MOL_PROPERTY
Sum Probability
SciTegic.value.DoubleValue
98.74

@<SCITEGIC>MOL_PROPERTY
Delta G
SciTegic.value.DoubleValue
3.340

@<SCITEGIC>MOL_PROPERTY
G
SciTegic.value.DoubleValue
61.486

@<SCITEGIC>MOL_PROPERTY
E
SciTegic.value.DoubleValue
23.917

@<SCITEGIC>MOL_PROPERTY
-TS
SciTegic.value.DoubleValue
37.569

@<SCITEGIC>MOL_PROPERTY
U+W
SciTegic.value.DoubleValue
-0.228

@<SCITEGIC>MOL_PROPERTY
U
SciTegic.value.DoubleValue
51.882

@<SCITEGIC>MOL_PROPERTY
W
SciTegic.value.DoubleValue
-52.109

@<SCITEGIC>MOL_PROPERTY
W(PB)
SciTegic.value.DoubleValue
-54.620

@<SCITEGIC>MOL_PROPERTY
W(SA)
SciTegic.value.DoubleValue
2.510

@<SCITEGIC>MOL_PROPERTY
Valence
SciTegic.value.DoubleValue
5.610

@<SCITEGIC>MOL_PROPERTY
Coulomb
SciTegic.value.DoubleValue
45.523

@<SCITEGIC>MOL_PROPERTY
VdW
SciTegic.value.DoubleValue
0.749

@<SCITEGIC>MOL_PROPERTY
VdW6
SciTegic.value.DoubleValue
-8.642

@<SCITEGIC>MOL_PROPERTY
VdW12
SciTegic.value.DoubleValue
9.392

@<SCITEGIC>MOL_PROPERTY
Bond
SciTegic.value.DoubleValue
0.233

@<SCITEGIC>MOL_PROPERTY
Angle
SciTegic.value.DoubleValue
1.171

@<SCITEGIC>MOL_PROPERTY
Pdih
SciTegic.value.DoubleValue
4.207

@<SCITEGIC>MOL_PROPERTY
Idih
SciTegic.value.DoubleValue
0.000

@<SCITEGIC>MOL_PROPERTY
Tether
SciTegic.value.DoubleValue
0.000

@<TRIPOS>MOLECULE
guest-3_vm2.mol2 : vm2 ligand conformer 215
          29          28           1
SMALL
USER_CHARGES
 
@<TRIPOS>ATOM
       1    C1      21.430155   19.545043   20.571403 C.3        1 MOL1        -0.2427
       2    H1      21.837821   20.326833   21.225503 H          1 MOL1         0.0958
       3    H2      21.972224   18.612201   20.774379 H          1 MOL1         0.0958
       4    H3      21.634520   19.834454   19.532406 H          1 MOL1         0.0958
       5    C2      19.914212   19.366164   20.798970 C.3        1 MOL1        -0.1412
       6    H4      19.529681   18.603459   20.107396 H          1 MOL1         0.0947
       7    H5      19.395664   20.304445   20.556817 H          1 MOL1         0.0947
       8    C3      19.599520   18.957510   22.254910 C.3        1 MOL1        -0.1437
       9    H6      20.115596   18.016736   22.490750 H          1 MOL1         0.0947
      10    H7      19.995244   19.725309   22.932219 H          1 MOL1         0.0947
      11    C4      18.080401   18.789378   22.489230 C.3        1 MOL1        -0.1437
      12    H8      17.673461   18.114059   21.723956 H          1 MOL1         0.0947
      13    H9      17.579295   19.755935   22.341194 H          1 MOL1         0.0947
      14    C5      17.705715   18.223718   23.883471 C.3        1 MOL1        -0.1437
      15    H10     16.613102   18.110104   23.910440 H          1 MOL1         0.0947
      16    H11     18.110923   17.209192   24.000687 H          1 MOL1         0.0947
      17    C6      18.127949   19.114406   25.080956 C.3        1 MOL1        -0.1437
      18    H12     17.351243   19.047043   25.855514 H          1 MOL1         0.0947
      19    H13     18.159599   20.169259   24.774757 H          1 MOL1         0.0947
      20    C7      19.475819   18.695343   25.715410 C.3        1 MOL1        -0.1477
      21    H14     19.405826   17.659549   26.073401 H          1 MOL1         0.0947
      22    H15     20.278553   18.719015   24.969874 H          1 MOL1         0.0947
      23    C8      19.850291   19.614518   26.891078 C.3        1 MOL1         0.0145
      24    H16     19.066294   19.576710   27.652238 H          1 MOL1         0.0921
      25    H17     19.938462   20.645715   26.538518 H          1 MOL1         0.0921
      26    N1      21.159937   19.231920   27.549573 N.4        1 MOL1        -0.5969
      27    H18     21.945235   19.274370   26.891613 H          1 MOL1         0.3603
      28    H19     21.133144   18.278991   27.927353 H          1 MOL1         0.3603
      29    H20     21.390044   19.856445   28.330428 H          1 MOL1         0.3603
@<TRIPOS>BOND
    1     1     2    1
    2     1     3    1
    3     1     4    1
    4     1     5    1
    5     5     6    1
    6     5     7    1
    7     5     8    1
    8     8     9    1
    9     8    10    1
   10     8    11    1
   11    11    12    1
   12    11    13    1
   13    11    14    1
   14    14    15    1
   15    14    16    1
   16    14    17    1
   17    17    18    1
   18    17    19    1
   19    17    20    1
   20    20    21    1
   21    20    22    1
   22    20    23    1
   23    23    24    1
   24    23    25    1
   25    23    26    1
   26    26    27    1
   27    26    28    1
   28    26    29    1
@<TRIPOS>SUBSTRUCTURE
       1 MOL1            1 RESIDUE      1      MOL     
@<SCITEGIC>MOL_PROPERTY
VM2 Rank
SciTegic.value.IntegerValue
215

@<SCITEGIC>MOL_PROPERTY
Conf_Id
SciTegic.value.IntegerValue
2175

@<SCITEGIC>MOL_PROPERTY
Probability
SciTegic.value.DoubleValue
0.02

@<SCITEGIC>MOL_PROPERTY
Sum Probability
SciTegic.value.DoubleValue
98.76

@<SCITEGIC>MOL_PROPERTY
Delta G
SciTegic.value.DoubleValue
3.359

@<SCITEGIC>MOL_PROPERTY
G
SciTegic.value.DoubleValue
61.506

@<SCITEGIC>MOL_PROPERTY
E
SciTegic.value.DoubleValue
23.937

@<SCITEGIC>MOL_PROPERTY
-TS
SciTegic.value.DoubleValue
37.569

@<SCITEGIC>MOL_PROPERTY
U+W
SciTegic.value.DoubleValue
-0.208

@<SCITEGIC>MOL_PROPERTY
U
SciTegic.value.DoubleValue
51.882

@<SCITEGIC>MOL_PROPERTY
W
SciTegic.value.DoubleValue
-52.090

@<SCITEGIC>MOL_PROPERTY
W(PB)
SciTegic.value.DoubleValue
-54.587

@<SCITEGIC>MOL_PROPERTY
W(SA)
SciTegic.value.DoubleValue
2.497

@<SCITEGIC>MOL_PROPERTY
Valence
SciTegic.value.DoubleValue
5.610

@<SCITEGIC>MOL_PROPERTY
Coulomb
SciTegic.value.DoubleValue
45.523

@<SCITEGIC>MOL_PROPERTY
VdW
SciTegic.value.DoubleValue
0.750

@<SCITEGIC>MOL_PROPERTY
VdW6
SciTegic.value.DoubleValue
-8.643

@<SCITEGIC>MOL_PROPERTY
VdW12
SciTegic.value.DoubleValue
9.392

@<SCITEGIC>MOL_PROPERTY
Bond
SciTegic.value.DoubleValue
0.233

@<SCITEGIC>MOL_PROPERTY
Angle
SciTegic.value.DoubleValue
1.170

@<SCITEGIC>MOL_PROPERTY
Pdih
SciTegic.value.DoubleValue
4.207

@<SCITEGIC>MOL_PROPERTY
Idih
SciTegic.value.DoubleValue
0.000

@<SCITEGIC>MOL_PROPERTY
Tether
SciTegic.value.DoubleValue
0.000

@<TRIPOS>MOLECULE
guest-3_vm2.mol2 : vm2 ligand conformer 216
          29          28           1
SMALL
USER_CHARGES
 
@<TRIPOS>ATOM
       1    C1      20.556489   20.521753   20.406001 C.3        1 MOL1        -0.2427
       2    H1      20.399694   21.599758   20.270566 H          1 MOL1         0.0958
       3    H2      21.541391   20.379958   20.869760 H          1 MOL1         0.0958
       4    H3      20.576385   20.056533   19.411812 H          1 MOL1         0.0958
       5    C2      19.439618   19.914260   21.280716 C.3        1 MOL1        -0.1412
       6    H4      18.466132   20.102769   20.806897 H          1 MOL1         0.0947
       7    H5      19.419991   20.430594   22.247930 H          1 MOL1         0.0947
       8    C3      19.633630   18.391194   21.476154 C.3        1 MOL1        -0.1437
       9    H6      19.610760   17.914925   20.486180 H          1 MOL1         0.0947
      10    H7      20.629421   18.181143   21.890120 H          1 MOL1         0.0947
      11    C4      18.539618   17.737847   22.360371 C.3        1 MOL1        -0.1437
      12    H8      18.328666   16.736860   21.959239 H          1 MOL1         0.0947
      13    H9      17.596598   18.295056   22.274487 H          1 MOL1         0.0947
      14    C5      18.925628   17.569652   23.852651 C.3        1 MOL1        -0.1437
      15    H10     18.109356   17.037832   24.360786 H          1 MOL1         0.0947
      16    H11     19.808199   16.919680   23.929531 H          1 MOL1         0.0947
      17    C6      19.199739   18.898249   24.594737 C.3        1 MOL1        -0.1437
      18    H12     18.355711   19.585623   24.444741 H          1 MOL1         0.0947
      19    H13     20.091393   19.380262   24.172795 H          1 MOL1         0.0947
      20    C7      19.420305   18.676306   26.107135 C.3        1 MOL1        -0.1477
      21    H14     18.531991   18.202242   26.545577 H          1 MOL1         0.0947
      22    H15     20.262392   17.988276   26.260839 H          1 MOL1         0.0947
      23    C8      19.703324   20.002346   26.834533 C.3        1 MOL1         0.0145
      24    H16     18.860048   20.684703   26.697675 H          1 MOL1         0.0921
      25    H17     20.596987   20.470316   26.412841 H          1 MOL1         0.0921
      26    N1      19.925648   19.826393   28.322702 N.4        1 MOL1        -0.5969
      27    H18     20.112431   20.721346   28.788419 H          1 MOL1         0.3603
      28    H19     20.724626   19.214566   28.519736 H          1 MOL1         0.3603
      29    H20     19.108324   19.414040   28.784738 H          1 MOL1         0.3603
@<TRIPOS>BOND
    1     1     2    1
    2     1     3    1
    3     1     4    1
    4     1     5    1
    5     5     6    1
    6     5     7    1
    7     5     8    1
    8     8     9    1
    9     8    10    1
   10     8    11    1
   11    11    12    1
   12    11    13    1
   13    11    14    1
   14    14    15    1
   15    14    16    1
   16    14    17    1
   17    17    18    1
   18    17    19    1
   19    17    20    1
   20    20    21    1
   21    20    22    1
   22    20    23    1
   23    23    24    1
   24    23    25    1
   25    23    26    1
   26    26    27    1
   27    26    28    1
   28    26    29    1
@<TRIPOS>SUBSTRUCTURE
       1 MOL1            1 RESIDUE      1      MOL     
@<SCITEGIC>MOL_PROPERTY
VM2 Rank
SciTegic.value.IntegerValue
216

@<SCITEGIC>MOL_PROPERTY
Conf_Id
SciTegic.value.IntegerValue
2889

@<SCITEGIC>MOL_PROPERTY
Probability
SciTegic.value.DoubleValue
0.02

@<SCITEGIC>MOL_PROPERTY
Sum Probability
SciTegic.value.DoubleValue
98.78

@<SCITEGIC>MOL_PROPERTY
Delta G
SciTegic.value.DoubleValue
3.369

@<SCITEGIC>MOL_PROPERTY
G
SciTegic.value.DoubleValue
61.515

@<SCITEGIC>MOL_PROPERTY
E
SciTegic.value.DoubleValue
23.946

@<SCITEGIC>MOL_PROPERTY
-TS
SciTegic.value.DoubleValue
37.569

@<SCITEGIC>MOL_PROPERTY
U+W
SciTegic.value.DoubleValue
-0.199

@<SCITEGIC>MOL_PROPERTY
U
SciTegic.value.DoubleValue
51.355

@<SCITEGIC>MOL_PROPERTY
W
SciTegic.value.DoubleValue
-51.553

@<SCITEGIC>MOL_PROPERTY
W(PB)
SciTegic.value.DoubleValue
-54.057

@<SCITEGIC>MOL_PROPERTY
W(SA)
SciTegic.value.DoubleValue
2.504

@<SCITEGIC>MOL_PROPERTY
Valence
SciTegic.value.DoubleValue
5.616

@<SCITEGIC>MOL_PROPERTY
Coulomb
SciTegic.value.DoubleValue
44.962

@<SCITEGIC>MOL_PROPERTY
VdW
SciTegic.value.DoubleValue
0.776

@<SCITEGIC>MOL_PROPERTY
VdW6
SciTegic.value.DoubleValue
-8.606

@<SCITEGIC>MOL_PROPERTY
VdW12
SciTegic.value.DoubleValue
9.382

@<SCITEGIC>MOL_PROPERTY
Bond
SciTegic.value.DoubleValue
0.231

@<SCITEGIC>MOL_PROPERTY
Angle
SciTegic.value.DoubleValue
1.168

@<SCITEGIC>MOL_PROPERTY
Pdih
SciTegic.value.DoubleValue
4.218

@<SCITEGIC>MOL_PROPERTY
Idih
SciTegic.value.DoubleValue
0.000

@<SCITEGIC>MOL_PROPERTY
Tether
SciTegic.value.DoubleValue
0.000

@<TRIPOS>MOLECULE
guest-3_vm2.mol2 : vm2 ligand conformer 217
          29          28           1
SMALL
USER_CHARGES
 
@<TRIPOS>ATOM
       1    C1      19.566553   18.543829   19.655749 C.3        1 MOL1        -0.2427
       2    H1      20.381733   17.812256   19.728624 H          1 MOL1         0.0958
       3    H2      18.653920   18.083206   20.053724 H          1 MOL1         0.0958
       4    H3      19.394663   18.750151   18.591411 H          1 MOL1         0.0958
       5    C2      19.919982   19.846360   20.408750 C.3        1 MOL1        -0.1412
       6    H4      19.077530   20.549330   20.346817 H          1 MOL1         0.0947
       7    H5      20.763842   20.331962   19.899000 H          1 MOL1         0.0947
       8    C3      20.301477   19.615916   21.890890 C.3        1 MOL1        -0.1437
       9    H6      21.156258   18.927835   21.946785 H          1 MOL1         0.0947
      10    H7      20.644142   20.570009   22.314574 H          1 MOL1         0.0947
      11    C4      19.135426   19.070807   22.749967 C.3        1 MOL1        -0.1437
      12    H8      18.828291   18.084301   22.378745 H          1 MOL1         0.0947
      13    H9      18.265485   19.734684   22.651476 H          1 MOL1         0.0947
      14    C5      19.527840   18.952149   24.239988 C.3        1 MOL1        -0.1437
      15    H10     20.394510   18.283668   24.336941 H          1 MOL1         0.0947
      16    H11     19.832625   19.941186   24.603563 H          1 MOL1         0.0947
      17    C6      18.358264   18.416465   25.099302 C.3        1 MOL1        -0.1437
      18    H12     17.964702   17.501967   24.634332 H          1 MOL1         0.0947
      19    H13     17.534269   19.143366   25.090323 H          1 MOL1         0.0947
      20    C7      18.738291   18.085745   26.565239 C.3        1 MOL1        -0.1477
      21    H14     17.857701   17.642796   27.049186 H          1 MOL1         0.0947
      22    H15     19.518023   17.313004   26.593045 H          1 MOL1         0.0947
      23    C8      19.172294   19.304870   27.405070 C.3        1 MOL1         0.0145
      24    H16     19.038502   19.072793   28.465125 H          1 MOL1         0.0921
      25    H17     18.542307   20.165244   27.163917 H          1 MOL1         0.0921
      26    N1      20.623875   19.701860   27.220047 N.4        1 MOL1        -0.5969
      27    H18     20.830725   19.940685   26.246090 H          1 MOL1         0.3603
      28    H19     21.260845   18.944449   27.488279 H          1 MOL1         0.3603
      29    H20     20.870941   20.517093   27.791910 H          1 MOL1         0.3603
@<TRIPOS>BOND
    1     1     2    1
    2     1     3    1
    3     1     4    1
    4     1     5    1
    5     5     6    1
    6     5     7    1
    7     5     8    1
    8     8     9    1
    9     8    10    1
   10     8    11    1
   11    11    12    1
   12    11    13    1
   13    11    14    1
   14    14    15    1
   15    14    16    1
   16    14    17    1
   17    17    18    1
   18    17    19    1
   19    17    20    1
   20    20    21    1
   21    20    22    1
   22    20    23    1
   23    23    24    1
   24    23    25    1
   25    23    26    1
   26    26    27    1
   27    26    28    1
   28    26    29    1
@<TRIPOS>SUBSTRUCTURE
       1 MOL1            1 RESIDUE      1      MOL     
@<SCITEGIC>MOL_PROPERTY
VM2 Rank
SciTegic.value.IntegerValue
217

@<SCITEGIC>MOL_PROPERTY
Conf_Id
SciTegic.value.IntegerValue
2157

@<SCITEGIC>MOL_PROPERTY
Probability
SciTegic.value.DoubleValue
0.02

@<SCITEGIC>MOL_PROPERTY
Sum Probability
SciTegic.value.DoubleValue
98.79

@<SCITEGIC>MOL_PROPERTY
Delta G
SciTegic.value.DoubleValue
3.370

@<SCITEGIC>MOL_PROPERTY
G
SciTegic.value.DoubleValue
61.517

@<SCITEGIC>MOL_PROPERTY
E
SciTegic.value.DoubleValue
24.066

@<SCITEGIC>MOL_PROPERTY
-TS
SciTegic.value.DoubleValue
37.451

@<SCITEGIC>MOL_PROPERTY
U+W
SciTegic.value.DoubleValue
-0.079

@<SCITEGIC>MOL_PROPERTY
U
SciTegic.value.DoubleValue
51.916

@<SCITEGIC>MOL_PROPERTY
W
SciTegic.value.DoubleValue
-51.995

@<SCITEGIC>MOL_PROPERTY
W(PB)
SciTegic.value.DoubleValue
-54.492

@<SCITEGIC>MOL_PROPERTY
W(SA)
SciTegic.value.DoubleValue
2.497

@<SCITEGIC>MOL_PROPERTY
Valence
SciTegic.value.DoubleValue
4.676

@<SCITEGIC>MOL_PROPERTY
Coulomb
SciTegic.value.DoubleValue
46.401

@<SCITEGIC>MOL_PROPERTY
VdW
SciTegic.value.DoubleValue
0.840

@<SCITEGIC>MOL_PROPERTY
VdW6
SciTegic.value.DoubleValue
-9.052

@<SCITEGIC>MOL_PROPERTY
VdW12
SciTegic.value.DoubleValue
9.892

@<SCITEGIC>MOL_PROPERTY
Bond
SciTegic.value.DoubleValue
0.238

@<SCITEGIC>MOL_PROPERTY
Angle
SciTegic.value.DoubleValue
1.195

@<SCITEGIC>MOL_PROPERTY
Pdih
SciTegic.value.DoubleValue
3.243

@<SCITEGIC>MOL_PROPERTY
Idih
SciTegic.value.DoubleValue
0.000

@<SCITEGIC>MOL_PROPERTY
Tether
SciTegic.value.DoubleValue
0.000

@<TRIPOS>MOLECULE
guest-3_vm2.mol2 : vm2 ligand conformer 218
          29          28           1
SMALL
USER_CHARGES
 
@<TRIPOS>ATOM
       1    C1      19.679435   17.479545   20.197837 C.3        1 MOL1        -0.2427
       2    H1      19.101040   17.841615   19.337844 H          1 MOL1         0.0958
       3    H2      20.745579   17.540369   19.943106 H          1 MOL1         0.0958
       4    H3      19.429033   16.421738   20.350656 H          1 MOL1         0.0958
       5    C2      19.364634   18.302446   21.464980 C.3        1 MOL1        -0.1412
       6    H4      19.932558   17.885641   22.307131 H          1 MOL1         0.0947
       7    H5      18.298163   18.201332   21.709733 H          1 MOL1         0.0947
       8    C3      19.720109   19.795006   21.278277 C.3        1 MOL1        -0.1437
       9    H6      20.802923   19.894857   21.120966 H          1 MOL1         0.0947
      10    H7      19.243107   20.162786   20.359317 H          1 MOL1         0.0947
      11    C4      19.283590   20.710175   22.451410 C.3        1 MOL1        -0.1437
      12    H8      18.189337   20.701965   22.549791 H          1 MOL1         0.0947
      13    H9      19.547971   21.741809   22.180824 H          1 MOL1         0.0947
      14    C5      19.949805   20.382700   23.813139 C.3        1 MOL1        -0.1437
      15    H10     20.936461   19.927519   23.650273 H          1 MOL1         0.0947
      16    H11     20.135403   21.326304   24.344781 H          1 MOL1         0.0947
      17    C6      19.080119   19.480402   24.722576 C.3        1 MOL1        -0.1437
      18    H12     18.837659   18.540384   24.212729 H          1 MOL1         0.0947
      19    H13     18.123440   19.981778   24.924989 H          1 MOL1         0.0947
      20    C7      19.785186   19.166020   26.060155 C.3        1 MOL1        -0.1477
      21    H14     20.740427   18.660733   25.864476 H          1 MOL1         0.0947
      22    H15     20.017032   20.102149   26.585516 H          1 MOL1         0.0947
      23    C8      18.911315   18.276371   26.961529 C.3        1 MOL1         0.0145
      24    H16     18.691913   17.335722   26.449191 H          1 MOL1         0.0921
      25    H17     17.965345   18.782417   27.172515 H          1 MOL1         0.0921
      26    N1      19.569808   17.945333   28.285096 N.4        1 MOL1        -0.5969
      27    H18     20.454347   17.442779   28.156474 H          1 MOL1         0.3603
      28    H19     18.971326   17.352151   28.870485 H          1 MOL1         0.3603
      29    H20     19.778143   18.789019   28.829456 H          1 MOL1         0.3603
@<TRIPOS>BOND
    1     1     2    1
    2     1     3    1
    3     1     4    1
    4     1     5    1
    5     5     6    1
    6     5     7    1
    7     5     8    1
    8     8     9    1
    9     8    10    1
   10     8    11    1
   11    11    12    1
   12    11    13    1
   13    11    14    1
   14    14    15    1
   15    14    16    1
   16    14    17    1
   17    17    18    1
   18    17    19    1
   19    17    20    1
   20    20    21    1
   21    20    22    1
   22    20    23    1
   23    23    24    1
   24    23    25    1
   25    23    26    1
   26    26    27    1
   27    26    28    1
   28    26    29    1
@<TRIPOS>SUBSTRUCTURE
       1 MOL1            1 RESIDUE      1      MOL     
@<SCITEGIC>MOL_PROPERTY
VM2 Rank
SciTegic.value.IntegerValue
218

@<SCITEGIC>MOL_PROPERTY
Conf_Id
SciTegic.value.IntegerValue
1910

@<SCITEGIC>MOL_PROPERTY
Probability
SciTegic.value.DoubleValue
0.02

@<SCITEGIC>MOL_PROPERTY
Sum Probability
SciTegic.value.DoubleValue
98.81

@<SCITEGIC>MOL_PROPERTY
Delta G
SciTegic.value.DoubleValue
3.376

@<SCITEGIC>MOL_PROPERTY
G
SciTegic.value.DoubleValue
61.522

@<SCITEGIC>MOL_PROPERTY
E
SciTegic.value.DoubleValue
23.957

@<SCITEGIC>MOL_PROPERTY
-TS
SciTegic.value.DoubleValue
37.565

@<SCITEGIC>MOL_PROPERTY
U+W
SciTegic.value.DoubleValue
-0.188

@<SCITEGIC>MOL_PROPERTY
U
SciTegic.value.DoubleValue
51.422

@<SCITEGIC>MOL_PROPERTY
W
SciTegic.value.DoubleValue
-51.609

@<SCITEGIC>MOL_PROPERTY
W(PB)
SciTegic.value.DoubleValue
-54.117

@<SCITEGIC>MOL_PROPERTY
W(SA)
SciTegic.value.DoubleValue
2.508

@<SCITEGIC>MOL_PROPERTY
Valence
SciTegic.value.DoubleValue
5.618

@<SCITEGIC>MOL_PROPERTY
Coulomb
SciTegic.value.DoubleValue
45.019

@<SCITEGIC>MOL_PROPERTY
VdW
SciTegic.value.DoubleValue
0.785

@<SCITEGIC>MOL_PROPERTY
VdW6
SciTegic.value.DoubleValue
-8.590

@<SCITEGIC>MOL_PROPERTY
VdW12
SciTegic.value.DoubleValue
9.376

@<SCITEGIC>MOL_PROPERTY
Bond
SciTegic.value.DoubleValue
0.232

@<SCITEGIC>MOL_PROPERTY
Angle
SciTegic.value.DoubleValue
1.167

@<SCITEGIC>MOL_PROPERTY
Pdih
SciTegic.value.DoubleValue
4.218

@<SCITEGIC>MOL_PROPERTY
Idih
SciTegic.value.DoubleValue
0.000

@<SCITEGIC>MOL_PROPERTY
Tether
SciTegic.value.DoubleValue
0.000

@<TRIPOS>MOLECULE
guest-3_vm2.mol2 : vm2 ligand conformer 219
          29          28           1
SMALL
USER_CHARGES
 
@<TRIPOS>ATOM
       1    C1      20.972128   19.792920   20.810757 C.3        1 MOL1        -0.2427
       2    H1      20.799097   20.431088   21.686022 H          1 MOL1         0.0958
       3    H2      21.594347   18.941409   21.115104 H          1 MOL1         0.0958
       4    H3      21.543210   20.383378   20.082688 H          1 MOL1         0.0958
       5    C2      19.639721   19.316660   20.192512 C.3        1 MOL1        -0.1412
       6    H4      19.852168   18.829400   19.230658 H          1 MOL1         0.0947
       7    H5      19.013725   20.189361   19.959680 H          1 MOL1         0.0947
       8    C3      18.841794   18.326703   21.079010 C.3        1 MOL1        -0.1437
       9    H6      17.948691   18.024547   20.514718 H          1 MOL1         0.0947
      10    H7      19.420820   17.405593   21.231823 H          1 MOL1         0.0947
      11    C4      18.378952   18.904476   22.441878 C.3        1 MOL1        -0.1437
      12    H8      17.393605   18.481485   22.681732 H          1 MOL1         0.0947
      13    H9      18.231626   19.990132   22.359789 H          1 MOL1         0.0947
      14    C5      19.341476   18.575911   23.609247 C.3        1 MOL1        -0.1437
      15    H10     19.429985   17.485515   23.711409 H          1 MOL1         0.0947
      16    H11     20.348291   18.951851   23.392404 H          1 MOL1         0.0947
      17    C6      18.848826   19.177932   24.944465 C.3        1 MOL1        -0.1437
      18    H12     17.844236   18.795073   25.172367 H          1 MOL1         0.0947
      19    H13     18.758286   20.268560   24.844166 H          1 MOL1         0.0947
      20    C7      19.803282   18.846336   26.112542 C.3        1 MOL1        -0.1477
      21    H14     19.892904   17.756977   26.219143 H          1 MOL1         0.0947
      22    H15     20.807222   19.232504   25.890985 H          1 MOL1         0.0947
      23    C8      19.303456   19.450535   27.436434 C.3        1 MOL1         0.0145
      24    H16     18.310699   19.056169   27.669600 H          1 MOL1         0.0921
      25    H17     19.228504   20.537087   27.340290 H          1 MOL1         0.0921
      26    N1      20.214364   19.146525   28.608156 N.4        1 MOL1        -0.5969
      27    H18     21.159792   19.516099   28.462855 H          1 MOL1         0.3603
      28    H19     20.305723   18.137928   28.769181 H          1 MOL1         0.3603
      29    H20     19.863402   19.557823   29.480168 H          1 MOL1         0.3603
@<TRIPOS>BOND
    1     1     2    1
    2     1     3    1
    3     1     4    1
    4     1     5    1
    5     5     6    1
    6     5     7    1
    7     5     8    1
    8     8     9    1
    9     8    10    1
   10     8    11    1
   11    11    12    1
   12    11    13    1
   13    11    14    1
   14    14    15    1
   15    14    16    1
   16    14    17    1
   17    17    18    1
   18    17    19    1
   19    17    20    1
   20    20    21    1
   21    20    22    1
   22    20    23    1
   23    23    24    1
   24    23    25    1
   25    23    26    1
   26    26    27    1
   27    26    28    1
   28    26    29    1
@<TRIPOS>SUBSTRUCTURE
       1 MOL1            1 RESIDUE      1      MOL     
@<SCITEGIC>MOL_PROPERTY
VM2 Rank
SciTegic.value.IntegerValue
219

@<SCITEGIC>MOL_PROPERTY
Conf_Id
SciTegic.value.IntegerValue
2173

@<SCITEGIC>MOL_PROPERTY
Probability
SciTegic.value.DoubleValue
0.02

@<SCITEGIC>MOL_PROPERTY
Sum Probability
SciTegic.value.DoubleValue
98.83

@<SCITEGIC>MOL_PROPERTY
Delta G
SciTegic.value.DoubleValue
3.385

@<SCITEGIC>MOL_PROPERTY
G
SciTegic.value.DoubleValue
61.531

@<SCITEGIC>MOL_PROPERTY
E
SciTegic.value.DoubleValue
23.993

@<SCITEGIC>MOL_PROPERTY
-TS
SciTegic.value.DoubleValue
37.538

@<SCITEGIC>MOL_PROPERTY
U+W
SciTegic.value.DoubleValue
-0.151

@<SCITEGIC>MOL_PROPERTY
U
SciTegic.value.DoubleValue
51.075

@<SCITEGIC>MOL_PROPERTY
W
SciTegic.value.DoubleValue
-51.227

@<SCITEGIC>MOL_PROPERTY
W(PB)
SciTegic.value.DoubleValue
-53.719

@<SCITEGIC>MOL_PROPERTY
W(SA)
SciTegic.value.DoubleValue
2.492

@<SCITEGIC>MOL_PROPERTY
Valence
SciTegic.value.DoubleValue
5.555

@<SCITEGIC>MOL_PROPERTY
Coulomb
SciTegic.value.DoubleValue
44.692

@<SCITEGIC>MOL_PROPERTY
VdW
SciTegic.value.DoubleValue
0.829

@<SCITEGIC>MOL_PROPERTY
VdW6
SciTegic.value.DoubleValue
-8.485

@<SCITEGIC>MOL_PROPERTY
VdW12
SciTegic.value.DoubleValue
9.314

@<SCITEGIC>MOL_PROPERTY
Bond
SciTegic.value.DoubleValue
0.230

@<SCITEGIC>MOL_PROPERTY
Angle
SciTegic.value.DoubleValue
1.153

@<SCITEGIC>MOL_PROPERTY
Pdih
SciTegic.value.DoubleValue
4.172

@<SCITEGIC>MOL_PROPERTY
Idih
SciTegic.value.DoubleValue
0.000

@<SCITEGIC>MOL_PROPERTY
Tether
SciTegic.value.DoubleValue
0.000

@<TRIPOS>MOLECULE
guest-3_vm2.mol2 : vm2 ligand conformer 220
          29          28           1
SMALL
USER_CHARGES
 
@<TRIPOS>ATOM
       1    C1      19.932077   19.575319   19.678540 C.3        1 MOL1        -0.2427
       2    H1      19.508904   20.492100   20.107369 H          1 MOL1         0.0958
       3    H2      21.024977   19.625429   19.768456 H          1 MOL1         0.0958
       4    H3      19.683173   19.565912   18.609480 H          1 MOL1         0.0958
       5    C2      19.374611   18.313057   20.374555 C.3        1 MOL1        -0.1412
       6    H4      19.730157   17.424701   19.834033 H          1 MOL1         0.0947
       7    H5      18.278436   18.301918   20.297094 H          1 MOL1         0.0947
       8    C3      19.795640   18.192396   21.858999 C.3        1 MOL1        -0.1437
       9    H6      19.453694   17.220186   22.239923 H          1 MOL1         0.0947
      10    H7      20.892074   18.184059   21.929647 H          1 MOL1         0.0947
      11    C4      19.223284   19.316524   22.755429 C.3        1 MOL1        -0.1437
      12    H8      18.130982   19.355136   22.643115 H          1 MOL1         0.0947
      13    H9      19.612849   20.289302   22.427897 H          1 MOL1         0.0947
      14    C5      19.581682   19.101767   24.243273 C.3        1 MOL1        -0.1437
      15    H10     19.188613   18.128910   24.563131 H          1 MOL1         0.0947
      16    H11     20.674368   19.068619   24.354291 H          1 MOL1         0.0947
      17    C6      19.000894   20.221007   25.139532 C.3        1 MOL1        -0.1437
      18    H12     17.903190   20.178697   25.113291 H          1 MOL1         0.0947
      19    H13     19.279758   21.196156   24.716787 H          1 MOL1         0.0947
      20    C7      19.483579   20.179100   26.611955 C.3        1 MOL1        -0.1477
      21    H14     20.575691   20.283602   26.659432 H          1 MOL1         0.0947
      22    H15     19.074069   21.059248   27.125267 H          1 MOL1         0.0947
      23    C8      19.037785   18.928015   27.396810 C.3        1 MOL1         0.0145
      24    H16     18.009331   18.669601   27.130752 H          1 MOL1         0.0921
      25    H17     19.065821   19.150358   28.466976 H          1 MOL1         0.0921
      26    N1      19.914448   17.710815   27.175906 N.4        1 MOL1        -0.5969
      27    H18     20.882885   17.884056   27.464814 H          1 MOL1         0.3603
      28    H19     19.937512   17.433644   26.190485 H          1 MOL1         0.3603
      29    H20     19.582768   16.901100   27.711653 H          1 MOL1         0.3603
@<TRIPOS>BOND
    1     1     2    1
    2     1     3    1
    3     1     4    1
    4     1     5    1
    5     5     6    1
    6     5     7    1
    7     5     8    1
    8     8     9    1
    9     8    10    1
   10     8    11    1
   11    11    12    1
   12    11    13    1
   13    11    14    1
   14    14    15    1
   15    14    16    1
   16    14    17    1
   17    17    18    1
   18    17    19    1
   19    17    20    1
   20    20    21    1
   21    20    22    1
   22    20    23    1
   23    23    24    1
   24    23    25    1
   25    23    26    1
   26    26    27    1
   27    26    28    1
   28    26    29    1
@<TRIPOS>SUBSTRUCTURE
       1 MOL1            1 RESIDUE      1      MOL     
@<SCITEGIC>MOL_PROPERTY
VM2 Rank
SciTegic.value.IntegerValue
220

@<SCITEGIC>MOL_PROPERTY
Conf_Id
SciTegic.value.IntegerValue
2162

@<SCITEGIC>MOL_PROPERTY
Probability
SciTegic.value.DoubleValue
0.02

@<SCITEGIC>MOL_PROPERTY
Sum Probability
SciTegic.value.DoubleValue
98.85

@<SCITEGIC>MOL_PROPERTY
Delta G
SciTegic.value.DoubleValue
3.388

@<SCITEGIC>MOL_PROPERTY
G
SciTegic.value.DoubleValue
61.535

@<SCITEGIC>MOL_PROPERTY
E
SciTegic.value.DoubleValue
24.085

@<SCITEGIC>MOL_PROPERTY
-TS
SciTegic.value.DoubleValue
37.450

@<SCITEGIC>MOL_PROPERTY
U+W
SciTegic.value.DoubleValue
-0.060

@<SCITEGIC>MOL_PROPERTY
U
SciTegic.value.DoubleValue
51.916

@<SCITEGIC>MOL_PROPERTY
W
SciTegic.value.DoubleValue
-51.976

@<SCITEGIC>MOL_PROPERTY
W(PB)
SciTegic.value.DoubleValue
-54.469

@<SCITEGIC>MOL_PROPERTY
W(SA)
SciTegic.value.DoubleValue
2.494

@<SCITEGIC>MOL_PROPERTY
Valence
SciTegic.value.DoubleValue
4.676

@<SCITEGIC>MOL_PROPERTY
Coulomb
SciTegic.value.DoubleValue
46.401

@<SCITEGIC>MOL_PROPERTY
VdW
SciTegic.value.DoubleValue
0.839

@<SCITEGIC>MOL_PROPERTY
VdW6
SciTegic.value.DoubleValue
-9.051

@<SCITEGIC>MOL_PROPERTY
VdW12
SciTegic.value.DoubleValue
9.891

@<SCITEGIC>MOL_PROPERTY
Bond
SciTegic.value.DoubleValue
0.238

@<SCITEGIC>MOL_PROPERTY
Angle
SciTegic.value.DoubleValue
1.196

@<SCITEGIC>MOL_PROPERTY
Pdih
SciTegic.value.DoubleValue
3.242

@<SCITEGIC>MOL_PROPERTY
Idih
SciTegic.value.DoubleValue
0.000

@<SCITEGIC>MOL_PROPERTY
Tether
SciTegic.value.DoubleValue
0.000

@<TRIPOS>MOLECULE
guest-3_vm2.mol2 : vm2 ligand conformer 221
          29          28           1
SMALL
USER_CHARGES
 
@<TRIPOS>ATOM
       1    C1      20.686426   20.305971   20.261363 C.3        1 MOL1        -0.2427
       2    H1      20.021805   20.425277   19.395761 H          1 MOL1         0.0958
       3    H2      21.158590   21.276930   20.459638 H          1 MOL1         0.0958
       4    H3      21.477852   19.595301   19.989624 H          1 MOL1         0.0958
       5    C2      19.904263   19.817718   21.499000 C.3        1 MOL1        -0.1412
       6    H4      19.138180   20.560171   21.762378 H          1 MOL1         0.0947
       7    H5      20.595620   19.748120   22.349097 H          1 MOL1         0.0947
       8    C3      19.239302   18.445183   21.248131 C.3        1 MOL1        -0.1437
       9    H6      18.650298   18.498385   20.322104 H          1 MOL1         0.0947
      10    H7      20.017575   17.689954   21.071716 H          1 MOL1         0.0947
      11    C4      18.306146   17.966017   22.390038 C.3        1 MOL1        -0.1437
      12    H8      17.863046   17.011133   22.075010 H          1 MOL1         0.0947
      13    H9      17.461924   18.659862   22.504096 H          1 MOL1         0.0947
      14    C5      19.010098   17.744550   23.754148 C.3        1 MOL1        -0.1437
      15    H10     18.550371   16.875634   24.245183 H          1 MOL1         0.0947
      16    H11     20.064687   17.480173   23.595551 H          1 MOL1         0.0947
      17    C6      18.893121   18.956334   24.710949 C.3        1 MOL1        -0.1437
      18    H12     17.832039   19.164190   24.907116 H          1 MOL1         0.0947
      19    H13     19.305834   19.857607   24.242181 H          1 MOL1         0.0947
      20    C7      19.619781   18.701417   26.049625 C.3        1 MOL1        -0.1477
      21    H14     19.201135   17.809214   26.534190 H          1 MOL1         0.0947
      22    H15     20.682131   18.497284   25.860333 H          1 MOL1         0.0947
      23    C8      19.491648   19.906363   26.997938 C.3        1 MOL1         0.0145
      24    H16     18.435805   20.103311   27.202551 H          1 MOL1         0.0921
      25    H17     19.922417   20.793735   26.526283 H          1 MOL1         0.0921
      26    N1      20.193215   19.694447   28.323806 N.4        1 MOL1        -0.5969
      27    H18     19.814686   18.887869   28.831429 H          1 MOL1         0.3603
      28    H19     20.095713   20.508456   28.940741 H          1 MOL1         0.3603
      29    H20     21.198106   19.530344   28.202233 H          1 MOL1         0.3603
@<TRIPOS>BOND
    1     1     2    1
    2     1     3    1
    3     1     4    1
    4     1     5    1
    5     5     6    1
    6     5     7    1
    7     5     8    1
    8     8     9    1
    9     8    10    1
   10     8    11    1
   11    11    12    1
   12    11    13    1
   13    11    14    1
   14    14    15    1
   15    14    16    1
   16    14    17    1
   17    17    18    1
   18    17    19    1
   19    17    20    1
   20    20    21    1
   21    20    22    1
   22    20    23    1
   23    23    24    1
   24    23    25    1
   25    23    26    1
   26    26    27    1
   27    26    28    1
   28    26    29    1
@<TRIPOS>SUBSTRUCTURE
       1 MOL1            1 RESIDUE      1      MOL     
@<SCITEGIC>MOL_PROPERTY
VM2 Rank
SciTegic.value.IntegerValue
221

@<SCITEGIC>MOL_PROPERTY
Conf_Id
SciTegic.value.IntegerValue
608

@<SCITEGIC>MOL_PROPERTY
Probability
SciTegic.value.DoubleValue
0.02

@<SCITEGIC>MOL_PROPERTY
Sum Probability
SciTegic.value.DoubleValue
98.87

@<SCITEGIC>MOL_PROPERTY
Delta G
SciTegic.value.DoubleValue
3.391

@<SCITEGIC>MOL_PROPERTY
G
SciTegic.value.DoubleValue
61.538

@<SCITEGIC>MOL_PROPERTY
E
SciTegic.value.DoubleValue
23.972

@<SCITEGIC>MOL_PROPERTY
-TS
SciTegic.value.DoubleValue
37.565

@<SCITEGIC>MOL_PROPERTY
U+W
SciTegic.value.DoubleValue
-0.172

@<SCITEGIC>MOL_PROPERTY
U
SciTegic.value.DoubleValue
51.422

@<SCITEGIC>MOL_PROPERTY
W
SciTegic.value.DoubleValue
-51.594

@<SCITEGIC>MOL_PROPERTY
W(PB)
SciTegic.value.DoubleValue
-54.102

@<SCITEGIC>MOL_PROPERTY
W(SA)
SciTegic.value.DoubleValue
2.507

@<SCITEGIC>MOL_PROPERTY
Valence
SciTegic.value.DoubleValue
5.618

@<SCITEGIC>MOL_PROPERTY
Coulomb
SciTegic.value.DoubleValue
45.019

@<SCITEGIC>MOL_PROPERTY
VdW
SciTegic.value.DoubleValue
0.785

@<SCITEGIC>MOL_PROPERTY
VdW6
SciTegic.value.DoubleValue
-8.591

@<SCITEGIC>MOL_PROPERTY
VdW12
SciTegic.value.DoubleValue
9.376

@<SCITEGIC>MOL_PROPERTY
Bond
SciTegic.value.DoubleValue
0.232

@<SCITEGIC>MOL_PROPERTY
Angle
SciTegic.value.DoubleValue
1.167

@<SCITEGIC>MOL_PROPERTY
Pdih
SciTegic.value.DoubleValue
4.219

@<SCITEGIC>MOL_PROPERTY
Idih
SciTegic.value.DoubleValue
0.000

@<SCITEGIC>MOL_PROPERTY
Tether
SciTegic.value.DoubleValue
0.000

@<TRIPOS>MOLECULE
guest-3_vm2.mol2 : vm2 ligand conformer 222
          29          28           1
SMALL
USER_CHARGES
 
@<TRIPOS>ATOM
       1    C1      18.934673   20.179563   20.188708 C.3        1 MOL1        -0.2427
       2    H1      18.583572   19.297538   19.637536 H          1 MOL1         0.0958
       3    H2      18.166623   20.455833   20.921678 H          1 MOL1         0.0958
       4    H3      19.022578   21.008675   19.474728 H          1 MOL1         0.0958
       5    C2      20.295219   19.904726   20.868288 C.3        1 MOL1        -0.1412
       6    H4      20.609583   20.790635   21.437545 H          1 MOL1         0.0947
       7    H5      21.055835   19.753816   20.089545 H          1 MOL1         0.0947
       8    C3      20.280766   18.665049   21.794848 C.3        1 MOL1        -0.1437
       9    H6      19.988952   17.777999   21.215878 H          1 MOL1         0.0947
      10    H7      21.305263   18.481316   22.146891 H          1 MOL1         0.0947
      11    C4      19.346767   18.820834   23.018761 C.3        1 MOL1        -0.1437
      12    H8      18.307968   18.929071   22.680605 H          1 MOL1         0.0947
      13    H9      19.603749   19.744509   23.549175 H          1 MOL1         0.0947
      14    C5      19.442847   17.601218   23.968303 C.3        1 MOL1        -0.1437
      15    H10     19.184674   16.701487   23.392654 H          1 MOL1         0.0947
      16    H11     20.478755   17.458535   24.305553 H          1 MOL1         0.0947
      17    C6      18.492503   17.683178   25.191375 C.3        1 MOL1        -0.1437
      18    H12     18.206627   16.659387   25.469921 H          1 MOL1         0.0947
      19    H13     17.556730   18.187659   24.913625 H          1 MOL1         0.0947
      20    C7      19.108302   18.352126   26.446020 C.3        1 MOL1        -0.1477
      21    H14     18.388340   18.274915   27.271638 H          1 MOL1         0.0947
      22    H15     20.000661   17.793981   26.759159 H          1 MOL1         0.0947
      23    C8      19.476272   19.832487   26.244813 C.3        1 MOL1         0.0145
      24    H16     18.602652   20.384961   25.888599 H          1 MOL1         0.0921
      25    H17     20.269559   19.915505   25.498022 H          1 MOL1         0.0921
      26    N1      19.966651   20.498818   27.513884 N.4        1 MOL1        -0.5969
      27    H18     20.209540   21.483368   27.358121 H          1 MOL1         0.3603
      28    H19     20.804157   20.039641   27.886974 H          1 MOL1         0.3603
      29    H20     19.256964   20.479721   28.253770 H          1 MOL1         0.3603
@<TRIPOS>BOND
    1     1     2    1
    2     1     3    1
    3     1     4    1
    4     1     5    1
    5     5     6    1
    6     5     7    1
    7     5     8    1
    8     8     9    1
    9     8    10    1
   10     8    11    1
   11    11    12    1
   12    11    13    1
   13    11    14    1
   14    14    15    1
   15    14    16    1
   16    14    17    1
   17    17    18    1
   18    17    19    1
   19    17    20    1
   20    20    21    1
   21    20    22    1
   22    20    23    1
   23    23    24    1
   24    23    25    1
   25    23    26    1
   26    26    27    1
   27    26    28    1
   28    26    29    1
@<TRIPOS>SUBSTRUCTURE
       1 MOL1            1 RESIDUE      1      MOL     
@<SCITEGIC>MOL_PROPERTY
VM2 Rank
SciTegic.value.IntegerValue
222

@<SCITEGIC>MOL_PROPERTY
Conf_Id
SciTegic.value.IntegerValue
2937

@<SCITEGIC>MOL_PROPERTY
Probability
SciTegic.value.DoubleValue
0.02

@<SCITEGIC>MOL_PROPERTY
Sum Probability
SciTegic.value.DoubleValue
98.88

@<SCITEGIC>MOL_PROPERTY
Delta G
SciTegic.value.DoubleValue
3.392

@<SCITEGIC>MOL_PROPERTY
G
SciTegic.value.DoubleValue
61.538

@<SCITEGIC>MOL_PROPERTY
E
SciTegic.value.DoubleValue
24.111

@<SCITEGIC>MOL_PROPERTY
-TS
SciTegic.value.DoubleValue
37.427

@<SCITEGIC>MOL_PROPERTY
U+W
SciTegic.value.DoubleValue
-0.033

@<SCITEGIC>MOL_PROPERTY
U
SciTegic.value.DoubleValue
52.060

@<SCITEGIC>MOL_PROPERTY
W
SciTegic.value.DoubleValue
-52.093

@<SCITEGIC>MOL_PROPERTY
W(PB)
SciTegic.value.DoubleValue
-54.569

@<SCITEGIC>MOL_PROPERTY
W(SA)
SciTegic.value.DoubleValue
2.475

@<SCITEGIC>MOL_PROPERTY
Valence
SciTegic.value.DoubleValue
5.622

@<SCITEGIC>MOL_PROPERTY
Coulomb
SciTegic.value.DoubleValue
45.540

@<SCITEGIC>MOL_PROPERTY
VdW
SciTegic.value.DoubleValue
0.898

@<SCITEGIC>MOL_PROPERTY
VdW6
SciTegic.value.DoubleValue
-9.082

@<SCITEGIC>MOL_PROPERTY
VdW12
SciTegic.value.DoubleValue
9.980

@<SCITEGIC>MOL_PROPERTY
Bond
SciTegic.value.DoubleValue
0.262

@<SCITEGIC>MOL_PROPERTY
Angle
SciTegic.value.DoubleValue
1.362

@<SCITEGIC>MOL_PROPERTY
Pdih
SciTegic.value.DoubleValue
3.998

@<SCITEGIC>MOL_PROPERTY
Idih
SciTegic.value.DoubleValue
0.000

@<SCITEGIC>MOL_PROPERTY
Tether
SciTegic.value.DoubleValue
0.000

@<TRIPOS>MOLECULE
guest-3_vm2.mol2 : vm2 ligand conformer 223
          29          28           1
SMALL
USER_CHARGES
 
@<TRIPOS>ATOM
       1    C1      20.846877   17.794773   20.360583 C.3        1 MOL1        -0.2427
       2    H1      21.480209   18.607608   19.981854 H          1 MOL1         0.0958
       3    H2      21.414610   17.245681   21.123083 H          1 MOL1         0.0958
       4    H3      20.647592   17.107104   19.528456 H          1 MOL1         0.0958
       5    C2      19.526795   18.344786   20.940861 C.3        1 MOL1        -0.1412
       6    H4      18.901346   17.507446   21.280754 H          1 MOL1         0.0947
       7    H5      18.965652   18.858268   20.147553 H          1 MOL1         0.0947
       8    C3      19.779056   19.316602   22.114558 C.3        1 MOL1        -0.1437
       9    H6      20.351990   18.800268   22.893643 H          1 MOL1         0.0947
      10    H7      20.404619   20.150706   21.767895 H          1 MOL1         0.0947
      11    C4      18.455397   19.874315   22.692884 C.3        1 MOL1        -0.1437
      12    H8      17.787437   19.052588   22.985646 H          1 MOL1         0.0947
      13    H9      17.934827   20.417058   21.891708 H          1 MOL1         0.0947
      14    C5      18.663291   20.842765   23.886327 C.3        1 MOL1        -0.1437
      15    H10     19.631666   21.354336   23.798300 H          1 MOL1         0.0947
      16    H11     17.904127   21.634445   23.820371 H          1 MOL1         0.0947
      17    C6      18.531708   20.186715   25.285133 C.3        1 MOL1        -0.1437
      18    H12     17.519869   19.774054   25.400979 H          1 MOL1         0.0947
      19    H13     18.629178   20.974100   26.045531 H          1 MOL1         0.0947
      20    C7      19.572274   19.080989   25.572881 C.3        1 MOL1        -0.1477
      21    H14     19.405227   18.228734   24.902370 H          1 MOL1         0.0947
      22    H15     20.583071   19.462749   25.377178 H          1 MOL1         0.0947
      23    C8      19.482760   18.592699   27.029237 C.3        1 MOL1         0.0145
      24    H16     18.481930   18.198124   27.224414 H          1 MOL1         0.0921
      25    H17     19.661833   19.429396   27.709897 H          1 MOL1         0.0921
      26    N1      20.485841   17.504355   27.352536 N.4        1 MOL1        -0.5969
      27    H18     20.353166   16.675422   26.763738 H          1 MOL1         0.3603
      28    H19     20.409413   17.193838   28.327448 H          1 MOL1         0.3603
      29    H20     21.451145   17.821754   27.215042 H          1 MOL1         0.3603
@<TRIPOS>BOND
    1     1     2    1
    2     1     3    1
    3     1     4    1
    4     1     5    1
    5     5     6    1
    6     5     7    1
    7     5     8    1
    8     8     9    1
    9     8    10    1
   10     8    11    1
   11    11    12    1
   12    11    13    1
   13    11    14    1
   14    14    15    1
   15    14    16    1
   16    14    17    1
   17    17    18    1
   18    17    19    1
   19    17    20    1
   20    20    21    1
   21    20    22    1
   22    20    23    1
   23    23    24    1
   24    23    25    1
   25    23    26    1
   26    26    27    1
   27    26    28    1
   28    26    29    1
@<TRIPOS>SUBSTRUCTURE
       1 MOL1            1 RESIDUE      1      MOL     
@<SCITEGIC>MOL_PROPERTY
VM2 Rank
SciTegic.value.IntegerValue
223

@<SCITEGIC>MOL_PROPERTY
Conf_Id
SciTegic.value.IntegerValue
2290

@<SCITEGIC>MOL_PROPERTY
Probability
SciTegic.value.DoubleValue
0.02

@<SCITEGIC>MOL_PROPERTY
Sum Probability
SciTegic.value.DoubleValue
98.90

@<SCITEGIC>MOL_PROPERTY
Delta G
SciTegic.value.DoubleValue
3.393

@<SCITEGIC>MOL_PROPERTY
G
SciTegic.value.DoubleValue
61.540

@<SCITEGIC>MOL_PROPERTY
E
SciTegic.value.DoubleValue
23.969

@<SCITEGIC>MOL_PROPERTY
-TS
SciTegic.value.DoubleValue
37.571

@<SCITEGIC>MOL_PROPERTY
U+W
SciTegic.value.DoubleValue
-0.176

@<SCITEGIC>MOL_PROPERTY
U
SciTegic.value.DoubleValue
51.876

@<SCITEGIC>MOL_PROPERTY
W
SciTegic.value.DoubleValue
-52.052

@<SCITEGIC>MOL_PROPERTY
W(PB)
SciTegic.value.DoubleValue
-54.562

@<SCITEGIC>MOL_PROPERTY
W(SA)
SciTegic.value.DoubleValue
2.511

@<SCITEGIC>MOL_PROPERTY
Valence
SciTegic.value.DoubleValue
5.608

@<SCITEGIC>MOL_PROPERTY
Coulomb
SciTegic.value.DoubleValue
45.523

@<SCITEGIC>MOL_PROPERTY
VdW
SciTegic.value.DoubleValue
0.745

@<SCITEGIC>MOL_PROPERTY
VdW6
SciTegic.value.DoubleValue
-8.647

@<SCITEGIC>MOL_PROPERTY
VdW12
SciTegic.value.DoubleValue
9.392

@<SCITEGIC>MOL_PROPERTY
Bond
SciTegic.value.DoubleValue
0.233

@<SCITEGIC>MOL_PROPERTY
Angle
SciTegic.value.DoubleValue
1.166

@<SCITEGIC>MOL_PROPERTY
Pdih
SciTegic.value.DoubleValue
4.208

@<SCITEGIC>MOL_PROPERTY
Idih
SciTegic.value.DoubleValue
0.000

@<SCITEGIC>MOL_PROPERTY
Tether
SciTegic.value.DoubleValue
0.000

@<TRIPOS>MOLECULE
guest-3_vm2.mol2 : vm2 ligand conformer 224
          29          28           1
SMALL
USER_CHARGES
 
@<TRIPOS>ATOM
       1    C1      20.302334   18.809700   20.176615 C.3        1 MOL1        -0.2427
       2    H1      21.004410   18.216739   20.775837 H          1 MOL1         0.0958
       3    H2      19.645358   18.118814   19.632590 H          1 MOL1         0.0958
       4    H3      20.889168   19.368917   19.436549 H          1 MOL1         0.0958
       5    C2      19.481576   19.776545   21.059455 C.3        1 MOL1        -0.1412
       6    H4      18.878053   20.424006   20.408259 H          1 MOL1         0.0947
       7    H5      20.159940   20.446052   21.604819 H          1 MOL1         0.0947
       8    C3      18.534754   19.051279   22.048997 C.3        1 MOL1        -0.1437
       9    H6      17.946065   19.801676   22.592823 H          1 MOL1         0.0947
      10    H7      17.805390   18.463856   21.474682 H          1 MOL1         0.0947
      11    C4      19.237304   18.111189   23.065095 C.3        1 MOL1        -0.1437
      12    H8      19.698538   17.274214   22.524500 H          1 MOL1         0.0947
      13    H9      18.474435   17.652764   23.707931 H          1 MOL1         0.0947
      14    C5      20.316589   18.788176   23.951552 C.3        1 MOL1        -0.1437
      15    H10     20.745157   18.032028   24.622534 H          1 MOL1         0.0947
      16    H11     21.150670   19.118104   23.318265 H          1 MOL1         0.0947
      17    C6      19.816227   19.995382   24.789339 C.3        1 MOL1        -0.1437
      18    H12     19.516775   20.809350   24.116057 H          1 MOL1         0.0947
      19    H13     20.658203   20.393699   25.370979 H          1 MOL1         0.0947
      20    C7      18.638889   19.676778   25.747577 C.3        1 MOL1        -0.1477
      21    H14     18.382140   20.579754   26.317046 H          1 MOL1         0.0947
      22    H15     17.744719   19.426062   25.162875 H          1 MOL1         0.0947
      23    C8      18.928057   18.525207   26.730899 C.3        1 MOL1         0.0145
      24    H16     19.153146   17.612283   26.173469 H          1 MOL1         0.0921
      25    H17     18.042565   18.339880   27.344868 H          1 MOL1         0.0921
      26    N1      20.088271   18.803744   27.665470 N.4        1 MOL1        -0.5969
      27    H18     20.958381   18.961981   27.147779 H          1 MOL1         0.3603
      28    H19     20.256145   18.022529   28.308755 H          1 MOL1         0.3603
      29    H20     19.921436   19.636113   28.240245 H          1 MOL1         0.3603
@<TRIPOS>BOND
    1     1     2    1
    2     1     3    1
    3     1     4    1
    4     1     5    1
    5     5     6    1
    6     5     7    1
    7     5     8    1
    8     8     9    1
    9     8    10    1
   10     8    11    1
   11    11    12    1
   12    11    13    1
   13    11    14    1
   14    14    15    1
   15    14    16    1
   16    14    17    1
   17    17    18    1
   18    17    19    1
   19    17    20    1
   20    20    21    1
   21    20    22    1
   22    20    23    1
   23    23    24    1
   24    23    25    1
   25    23    26    1
   26    26    27    1
   27    26    28    1
   28    26    29    1
@<TRIPOS>SUBSTRUCTURE
       1 MOL1            1 RESIDUE      1      MOL     
@<SCITEGIC>MOL_PROPERTY
VM2 Rank
SciTegic.value.IntegerValue
224

@<SCITEGIC>MOL_PROPERTY
Conf_Id
SciTegic.value.IntegerValue
282

@<SCITEGIC>MOL_PROPERTY
Probability
SciTegic.value.DoubleValue
0.02

@<SCITEGIC>MOL_PROPERTY
Sum Probability
SciTegic.value.DoubleValue
98.92

@<SCITEGIC>MOL_PROPERTY
Delta G
SciTegic.value.DoubleValue
3.395

@<SCITEGIC>MOL_PROPERTY
G
SciTegic.value.DoubleValue
61.541

@<SCITEGIC>MOL_PROPERTY
E
SciTegic.value.DoubleValue
22.861

@<SCITEGIC>MOL_PROPERTY
-TS
SciTegic.value.DoubleValue
38.680

@<SCITEGIC>MOL_PROPERTY
U+W
SciTegic.value.DoubleValue
-1.284

@<SCITEGIC>MOL_PROPERTY
U
SciTegic.value.DoubleValue
50.976

@<SCITEGIC>MOL_PROPERTY
W
SciTegic.value.DoubleValue
-52.260

@<SCITEGIC>MOL_PROPERTY
W(PB)
SciTegic.value.DoubleValue
-54.636

@<SCITEGIC>MOL_PROPERTY
W(SA)
SciTegic.value.DoubleValue
2.376

@<SCITEGIC>MOL_PROPERTY
Valence
SciTegic.value.DoubleValue
4.770

@<SCITEGIC>MOL_PROPERTY
Coulomb
SciTegic.value.DoubleValue
45.602

@<SCITEGIC>MOL_PROPERTY
VdW
SciTegic.value.DoubleValue
0.604

@<SCITEGIC>MOL_PROPERTY
VdW6
SciTegic.value.DoubleValue
-12.015

@<SCITEGIC>MOL_PROPERTY
VdW12
SciTegic.value.DoubleValue
12.620

@<SCITEGIC>MOL_PROPERTY
Bond
SciTegic.value.DoubleValue
0.365

@<SCITEGIC>MOL_PROPERTY
Angle
SciTegic.value.DoubleValue
1.946

@<SCITEGIC>MOL_PROPERTY
Pdih
SciTegic.value.DoubleValue
2.459

@<SCITEGIC>MOL_PROPERTY
Idih
SciTegic.value.DoubleValue
0.000

@<SCITEGIC>MOL_PROPERTY
Tether
SciTegic.value.DoubleValue
0.000

@<TRIPOS>MOLECULE
guest-3_vm2.mol2 : vm2 ligand conformer 225
          29          28           1
SMALL
USER_CHARGES
 
@<TRIPOS>ATOM
       1    C1      18.403328   18.682476   20.156331 C.3        1 MOL1        -0.2427
       2    H1      18.692159   19.610197   19.645508 H          1 MOL1         0.0958
       3    H2      17.959853   18.011737   19.409094 H          1 MOL1         0.0958
       4    H3      17.622762   18.921546   20.889159 H          1 MOL1         0.0958
       5    C2      19.624998   18.013506   20.825996 C.3        1 MOL1        -0.1412
       6    H4      20.321567   17.683531   20.042632 H          1 MOL1         0.0947
       7    H5      19.304905   17.105168   21.355312 H          1 MOL1         0.0947
       8    C3      20.380927   18.948460   21.800651 C.3        1 MOL1        -0.1437
       9    H6      21.288263   18.432975   22.144602 H          1 MOL1         0.0947
      10    H7      20.719549   19.843823   21.261316 H          1 MOL1         0.0947
      11    C4      19.540496   19.366109   23.031026 C.3        1 MOL1        -0.1437
      12    H8      19.152183   18.466146   23.520741 H          1 MOL1         0.0947
      13    H9      18.669488   19.948896   22.704113 H          1 MOL1         0.0947
      14    C5      20.369527   20.214736   24.026447 C.3        1 MOL1        -0.1437
      15    H10     21.259668   19.660313   24.354261 H          1 MOL1         0.0947
      16    H11     20.742956   21.098363   23.490447 H          1 MOL1         0.0947
      17    C6      19.562672   20.700723   25.258753 C.3        1 MOL1        -0.1437
      18    H12     18.522033   20.909588   24.974564 H          1 MOL1         0.0947
      19    H13     19.981357   21.663947   25.581807 H          1 MOL1         0.0947
      20    C7      19.602299   19.744010   26.476934 C.3        1 MOL1        -0.1477
      21    H14     20.642532   19.602411   26.799040 H          1 MOL1         0.0947
      22    H15     19.080484   20.224545   27.315234 H          1 MOL1         0.0947
      23    C8      18.958314   18.371971   26.212087 C.3        1 MOL1         0.0145
      24    H16     19.532550   17.837399   25.451579 H          1 MOL1         0.0921
      25    H17     17.936932   18.507896   25.846526 H          1 MOL1         0.0921
      26    N1      18.901439   17.496007   27.446774 N.4        1 MOL1        -0.5969
      27    H18     19.835764   17.309817   27.826017 H          1 MOL1         0.3603
      28    H19     18.472032   16.585517   27.248747 H          1 MOL1         0.3603
      29    H20     18.351946   17.928601   28.196687 H          1 MOL1         0.3603
@<TRIPOS>BOND
    1     1     2    1
    2     1     3    1
    3     1     4    1
    4     1     5    1
    5     5     6    1
    6     5     7    1
    7     5     8    1
    8     8     9    1
    9     8    10    1
   10     8    11    1
   11    11    12    1
   12    11    13    1
   13    11    14    1
   14    14    15    1
   15    14    16    1
   16    14    17    1
   17    17    18    1
   18    17    19    1
   19    17    20    1
   20    20    21    1
   21    20    22    1
   22    20    23    1
   23    23    24    1
   24    23    25    1
   25    23    26    1
   26    26    27    1
   27    26    28    1
   28    26    29    1
@<TRIPOS>SUBSTRUCTURE
       1 MOL1            1 RESIDUE      1      MOL     
@<SCITEGIC>MOL_PROPERTY
VM2 Rank
SciTegic.value.IntegerValue
225

@<SCITEGIC>MOL_PROPERTY
Conf_Id
SciTegic.value.IntegerValue
2302

@<SCITEGIC>MOL_PROPERTY
Probability
SciTegic.value.DoubleValue
0.02

@<SCITEGIC>MOL_PROPERTY
Sum Probability
SciTegic.value.DoubleValue
98.94

@<SCITEGIC>MOL_PROPERTY
Delta G
SciTegic.value.DoubleValue
3.399

@<SCITEGIC>MOL_PROPERTY
G
SciTegic.value.DoubleValue
61.545

@<SCITEGIC>MOL_PROPERTY
E
SciTegic.value.DoubleValue
24.121

@<SCITEGIC>MOL_PROPERTY
-TS
SciTegic.value.DoubleValue
37.425

@<SCITEGIC>MOL_PROPERTY
U+W
SciTegic.value.DoubleValue
-0.024

@<SCITEGIC>MOL_PROPERTY
U
SciTegic.value.DoubleValue
52.060

@<SCITEGIC>MOL_PROPERTY
W
SciTegic.value.DoubleValue
-52.084

@<SCITEGIC>MOL_PROPERTY
W(PB)
SciTegic.value.DoubleValue
-54.545

@<SCITEGIC>MOL_PROPERTY
W(SA)
SciTegic.value.DoubleValue
2.461

@<SCITEGIC>MOL_PROPERTY
Valence
SciTegic.value.DoubleValue
5.621

@<SCITEGIC>MOL_PROPERTY
Coulomb
SciTegic.value.DoubleValue
45.540

@<SCITEGIC>MOL_PROPERTY
VdW
SciTegic.value.DoubleValue
0.899

@<SCITEGIC>MOL_PROPERTY
VdW6
SciTegic.value.DoubleValue
-9.082

@<SCITEGIC>MOL_PROPERTY
VdW12
SciTegic.value.DoubleValue
9.981

@<SCITEGIC>MOL_PROPERTY
Bond
SciTegic.value.DoubleValue
0.262

@<SCITEGIC>MOL_PROPERTY
Angle
SciTegic.value.DoubleValue
1.363

@<SCITEGIC>MOL_PROPERTY
Pdih
SciTegic.value.DoubleValue
3.996

@<SCITEGIC>MOL_PROPERTY
Idih
SciTegic.value.DoubleValue
0.000

@<SCITEGIC>MOL_PROPERTY
Tether
SciTegic.value.DoubleValue
0.000

@<TRIPOS>MOLECULE
guest-3_vm2.mol2 : vm2 ligand conformer 226
          29          28           1
SMALL
USER_CHARGES
 
@<TRIPOS>ATOM
       1    C1      21.190708   19.026456   20.651619 C.3        1 MOL1        -0.2427
       2    H1      21.941868   19.699715   20.218760 H          1 MOL1         0.0958
       3    H2      21.446623   18.878076   21.706412 H          1 MOL1         0.0958
       4    H3      21.279715   18.057656   20.143145 H          1 MOL1         0.0958
       5    C2      19.771356   19.614156   20.473496 C.3        1 MOL1        -0.1412
       6    H4      19.597119   19.756954   19.397802 H          1 MOL1         0.0947
       7    H5      19.712512   20.614493   20.924523 H          1 MOL1         0.0947
       8    C3      18.652034   18.701819   21.037918 C.3        1 MOL1        -0.1437
       9    H6      17.774225   18.793484   20.383389 H          1 MOL1         0.0947
      10    H7      18.955436   17.647469   20.979375 H          1 MOL1         0.0947
      11    C4      18.195782   19.045949   22.479315 C.3        1 MOL1        -0.1437
      12    H8      17.358479   18.384434   22.741177 H          1 MOL1         0.0947
      13    H9      17.795392   20.068905   22.500642 H          1 MOL1         0.0947
      14    C5      19.302290   18.904829   23.549910 C.3        1 MOL1        -0.1437
      15    H10     19.772083   17.915219   23.465669 H          1 MOL1         0.0947
      16    H11     20.085034   19.653270   23.371087 H          1 MOL1         0.0947
      17    C6      18.745826   19.093140   24.979258 C.3        1 MOL1        -0.1437
      18    H12     17.963245   18.345868   25.171249 H          1 MOL1         0.0947
      19    H13     18.269943   20.080357   25.061109 H          1 MOL1         0.0947
      20    C7      19.852556   18.964627   26.048828 C.3        1 MOL1        -0.1477
      21    H14     20.327407   17.977284   25.972830 H          1 MOL1         0.0947
      22    H15     20.634260   19.713607   25.864242 H          1 MOL1         0.0947
      23    C8      19.288329   19.153173   27.467867 C.3        1 MOL1         0.0145
      24    H16     18.520951   18.398988   27.662269 H          1 MOL1         0.0921
      25    H17     18.829035   20.141718   27.553221 H          1 MOL1         0.0921
      26    N1      20.345119   19.033850   28.546789 N.4        1 MOL1        -0.5969
      27    H18     20.797915   18.113833   28.537757 H          1 MOL1         0.3603
      28    H19     19.948530   19.162591   29.484280 H          1 MOL1         0.3603
      29    H20     21.084622   19.735609   28.436321 H          1 MOL1         0.3603
@<TRIPOS>BOND
    1     1     2    1
    2     1     3    1
    3     1     4    1
    4     1     5    1
    5     5     6    1
    6     5     7    1
    7     5     8    1
    8     8     9    1
    9     8    10    1
   10     8    11    1
   11    11    12    1
   12    11    13    1
   13    11    14    1
   14    14    15    1
   15    14    16    1
   16    14    17    1
   17    17    18    1
   18    17    19    1
   19    17    20    1
   20    20    21    1
   21    20    22    1
   22    20    23    1
   23    23    24    1
   24    23    25    1
   25    23    26    1
   26    26    27    1
   27    26    28    1
   28    26    29    1
@<TRIPOS>SUBSTRUCTURE
       1 MOL1            1 RESIDUE      1      MOL     
@<SCITEGIC>MOL_PROPERTY
VM2 Rank
SciTegic.value.IntegerValue
226

@<SCITEGIC>MOL_PROPERTY
Conf_Id
SciTegic.value.IntegerValue
350

@<SCITEGIC>MOL_PROPERTY
Probability
SciTegic.value.DoubleValue
0.02

@<SCITEGIC>MOL_PROPERTY
Sum Probability
SciTegic.value.DoubleValue
98.95

@<SCITEGIC>MOL_PROPERTY
Delta G
SciTegic.value.DoubleValue
3.411

@<SCITEGIC>MOL_PROPERTY
G
SciTegic.value.DoubleValue
61.558

@<SCITEGIC>MOL_PROPERTY
E
SciTegic.value.DoubleValue
24.028

@<SCITEGIC>MOL_PROPERTY
-TS
SciTegic.value.DoubleValue
37.530

@<SCITEGIC>MOL_PROPERTY
U+W
SciTegic.value.DoubleValue
-0.117

@<SCITEGIC>MOL_PROPERTY
U
SciTegic.value.DoubleValue
51.122

@<SCITEGIC>MOL_PROPERTY
W
SciTegic.value.DoubleValue
-51.238

@<SCITEGIC>MOL_PROPERTY
W(PB)
SciTegic.value.DoubleValue
-53.751

@<SCITEGIC>MOL_PROPERTY
W(SA)
SciTegic.value.DoubleValue
2.513

@<SCITEGIC>MOL_PROPERTY
Valence
SciTegic.value.DoubleValue
5.579

@<SCITEGIC>MOL_PROPERTY
Coulomb
SciTegic.value.DoubleValue
44.694

@<SCITEGIC>MOL_PROPERTY
VdW
SciTegic.value.DoubleValue
0.849

@<SCITEGIC>MOL_PROPERTY
VdW6
SciTegic.value.DoubleValue
-8.475

@<SCITEGIC>MOL_PROPERTY
VdW12
SciTegic.value.DoubleValue
9.324

@<SCITEGIC>MOL_PROPERTY
Bond
SciTegic.value.DoubleValue
0.229

@<SCITEGIC>MOL_PROPERTY
Angle
SciTegic.value.DoubleValue
1.193

@<SCITEGIC>MOL_PROPERTY
Pdih
SciTegic.value.DoubleValue
4.157

@<SCITEGIC>MOL_PROPERTY
Idih
SciTegic.value.DoubleValue
0.000

@<SCITEGIC>MOL_PROPERTY
Tether
SciTegic.value.DoubleValue
0.000

@<TRIPOS>MOLECULE
guest-3_vm2.mol2 : vm2 ligand conformer 227
          29          28           1
SMALL
USER_CHARGES
 
@<TRIPOS>ATOM
       1    C1      21.389261   19.318016   20.394489 C.3        1 MOL1        -0.2427
       2    H1      21.372062   18.303551   19.975192 H          1 MOL1         0.0958
       3    H2      21.680867   20.009097   19.592983 H          1 MOL1         0.0958
       4    H3      22.165432   19.354502   21.170026 H          1 MOL1         0.0958
       5    C2      20.010458   19.703157   20.971044 C.3        1 MOL1        -0.1412
       6    H4      19.262322   19.691302   20.166037 H          1 MOL1         0.0947
       7    H5      20.049786   20.733143   21.352402 H          1 MOL1         0.0947
       8    C3      19.575619   18.745153   22.101868 C.3        1 MOL1        -0.1437
       9    H6      19.538549   17.717865   21.713874 H          1 MOL1         0.0947
      10    H7      20.334877   18.752357   22.892629 H          1 MOL1         0.0947
      11    C4      18.189180   19.126639   22.676173 C.3        1 MOL1        -0.1437
      12    H8      17.454183   19.066989   21.861514 H          1 MOL1         0.0947
      13    H9      18.186393   20.173189   23.010603 H          1 MOL1         0.0947
      14    C5      17.721645   18.198306   23.827268 C.3        1 MOL1        -0.1437
      15    H10     16.634044   18.067646   23.740716 H          1 MOL1         0.0947
      16    H11     18.150224   17.193978   23.705401 H          1 MOL1         0.0947
      17    C6      18.014380   18.733907   25.252682 C.3        1 MOL1        -0.1437
      18    H12     17.581770   18.032635   25.979829 H          1 MOL1         0.0947
      19    H13     17.489213   19.688007   25.399051 H          1 MOL1         0.0947
      20    C7      19.515338   18.921160   25.569319 C.3        1 MOL1        -0.1477
      21    H14     20.060390   17.994870   25.344247 H          1 MOL1         0.0947
      22    H15     19.933690   19.713173   24.935658 H          1 MOL1         0.0947
      23    C8      19.733856   19.297771   27.045063 C.3        1 MOL1         0.0145
      24    H16     19.334531   18.509774   27.689292 H          1 MOL1         0.0921
      25    H17     19.204594   20.227679   27.269994 H          1 MOL1         0.0921
      26    N1      21.194264   19.493892   27.397094 N.4        1 MOL1        -0.5969
      27    H18     21.743925   18.643876   27.233371 H          1 MOL1         0.3603
      28    H19     21.317404   19.743762   28.384575 H          1 MOL1         0.3603
      29    H20     21.623353   20.242911   26.843679 H          1 MOL1         0.3603
@<TRIPOS>BOND
    1     1     2    1
    2     1     3    1
    3     1     4    1
    4     1     5    1
    5     5     6    1
    6     5     7    1
    7     5     8    1
    8     8     9    1
    9     8    10    1
   10     8    11    1
   11    11    12    1
   12    11    13    1
   13    11    14    1
   14    14    15    1
   15    14    16    1
   16    14    17    1
   17    17    18    1
   18    17    19    1
   19    17    20    1
   20    20    21    1
   21    20    22    1
   22    20    23    1
   23    23    24    1
   24    23    25    1
   25    23    26    1
   26    26    27    1
   27    26    28    1
   28    26    29    1
@<TRIPOS>SUBSTRUCTURE
       1 MOL1            1 RESIDUE      1      MOL     
@<SCITEGIC>MOL_PROPERTY
VM2 Rank
SciTegic.value.IntegerValue
227

@<SCITEGIC>MOL_PROPERTY
Conf_Id
SciTegic.value.IntegerValue
2875

@<SCITEGIC>MOL_PROPERTY
Probability
SciTegic.value.DoubleValue
0.02

@<SCITEGIC>MOL_PROPERTY
Sum Probability
SciTegic.value.DoubleValue
98.97

@<SCITEGIC>MOL_PROPERTY
Delta G
SciTegic.value.DoubleValue
3.412

@<SCITEGIC>MOL_PROPERTY
G
SciTegic.value.DoubleValue
61.559

@<SCITEGIC>MOL_PROPERTY
E
SciTegic.value.DoubleValue
23.988

@<SCITEGIC>MOL_PROPERTY
-TS
SciTegic.value.DoubleValue
37.570

@<SCITEGIC>MOL_PROPERTY
U+W
SciTegic.value.DoubleValue
-0.156

@<SCITEGIC>MOL_PROPERTY
U
SciTegic.value.DoubleValue
51.876

@<SCITEGIC>MOL_PROPERTY
W
SciTegic.value.DoubleValue
-52.032

@<SCITEGIC>MOL_PROPERTY
W(PB)
SciTegic.value.DoubleValue
-54.548

@<SCITEGIC>MOL_PROPERTY
W(SA)
SciTegic.value.DoubleValue
2.516

@<SCITEGIC>MOL_PROPERTY
Valence
SciTegic.value.DoubleValue
5.608

@<SCITEGIC>MOL_PROPERTY
Coulomb
SciTegic.value.DoubleValue
45.523

@<SCITEGIC>MOL_PROPERTY
VdW
SciTegic.value.DoubleValue
0.745

@<SCITEGIC>MOL_PROPERTY
VdW6
SciTegic.value.DoubleValue
-8.647

@<SCITEGIC>MOL_PROPERTY
VdW12
SciTegic.value.DoubleValue
9.392

@<SCITEGIC>MOL_PROPERTY
Bond
SciTegic.value.DoubleValue
0.233

@<SCITEGIC>MOL_PROPERTY
Angle
SciTegic.value.DoubleValue
1.166

@<SCITEGIC>MOL_PROPERTY
Pdih
SciTegic.value.DoubleValue
4.208

@<SCITEGIC>MOL_PROPERTY
Idih
SciTegic.value.DoubleValue
0.000

@<SCITEGIC>MOL_PROPERTY
Tether
SciTegic.value.DoubleValue
0.000

@<TRIPOS>MOLECULE
guest-3_vm2.mol2 : vm2 ligand conformer 228
          29          28           1
SMALL
USER_CHARGES
 
@<TRIPOS>ATOM
       1    C1      20.873645   18.135955   20.631655 C.3        1 MOL1        -0.2427
       2    H1      21.036686   17.157408   20.161812 H          1 MOL1         0.0958
       3    H2      21.561793   18.849976   20.160840 H          1 MOL1         0.0958
       4    H3      21.150841   18.047277   21.687778 H          1 MOL1         0.0958
       5    C2      19.404784   18.584611   20.450454 C.3        1 MOL1        -0.1412
       6    H4      18.720913   17.829421   20.862241 H          1 MOL1         0.0947
       7    H5      19.194703   18.626795   19.372515 H          1 MOL1         0.0947
       8    C3      19.105549   19.975620   21.066382 C.3        1 MOL1        -0.1437
       9    H6      20.007551   20.602586   21.045410 H          1 MOL1         0.0947
      10    H7      18.376485   20.485106   20.421209 H          1 MOL1         0.0947
      11    C4      18.514192   19.940216   22.499301 C.3        1 MOL1        -0.1437
      12    H8      17.557413   19.400221   22.485714 H          1 MOL1         0.0947
      13    H9      18.279282   20.970881   22.798964 H          1 MOL1         0.0947
      14    C5      19.445929   19.308168   23.558938 C.3        1 MOL1        -0.1437
      15    H10     19.582527   18.241381   23.339548 H          1 MOL1         0.0947
      16    H11     20.436313   19.781049   23.507412 H          1 MOL1         0.0947
      17    C6      18.875417   19.457127   24.987391 C.3        1 MOL1        -0.1437
      18    H12     17.881864   18.990026   25.036714 H          1 MOL1         0.0947
      19    H13     18.738002   20.522384   25.219882 H          1 MOL1         0.0947
      20    C7      19.799379   18.815248   26.045515 C.3        1 MOL1        -0.1477
      21    H14     19.934832   17.748903   25.820428 H          1 MOL1         0.0947
      22    H15     20.792165   19.282782   26.001987 H          1 MOL1         0.0947
      23    C8      19.222922   18.969486   27.463782 C.3        1 MOL1         0.0145
      24    H16     18.241267   18.490900   27.516375 H          1 MOL1         0.0921
      25    H17     19.101804   20.030429   27.698703 H          1 MOL1         0.0921
      26    N1      20.102181   18.351570   28.531581 N.4        1 MOL1        -0.5969
      27    H18     20.233608   17.345496   28.383002 H          1 MOL1         0.3603
      28    H19     19.700247   18.465308   29.468736 H          1 MOL1         0.3603
      29    H20     21.034442   18.778167   28.552604 H          1 MOL1         0.3603
@<TRIPOS>BOND
    1     1     2    1
    2     1     3    1
    3     1     4    1
    4     1     5    1
    5     5     6    1
    6     5     7    1
    7     5     8    1
    8     8     9    1
    9     8    10    1
   10     8    11    1
   11    11    12    1
   12    11    13    1
   13    11    14    1
   14    14    15    1
   15    14    16    1
   16    14    17    1
   17    17    18    1
   18    17    19    1
   19    17    20    1
   20    20    21    1
   21    20    22    1
   22    20    23    1
   23    23    24    1
   24    23    25    1
   25    23    26    1
   26    26    27    1
   27    26    28    1
   28    26    29    1
@<TRIPOS>SUBSTRUCTURE
       1 MOL1            1 RESIDUE      1      MOL     
@<SCITEGIC>MOL_PROPERTY
VM2 Rank
SciTegic.value.IntegerValue
228

@<SCITEGIC>MOL_PROPERTY
Conf_Id
SciTegic.value.IntegerValue
2280

@<SCITEGIC>MOL_PROPERTY
Probability
SciTegic.value.DoubleValue
0.02

@<SCITEGIC>MOL_PROPERTY
Sum Probability
SciTegic.value.DoubleValue
98.99

@<SCITEGIC>MOL_PROPERTY
Delta G
SciTegic.value.DoubleValue
3.432

@<SCITEGIC>MOL_PROPERTY
G
SciTegic.value.DoubleValue
61.578

@<SCITEGIC>MOL_PROPERTY
E
SciTegic.value.DoubleValue
24.049

@<SCITEGIC>MOL_PROPERTY
-TS
SciTegic.value.DoubleValue
37.529

@<SCITEGIC>MOL_PROPERTY
U+W
SciTegic.value.DoubleValue
-0.096

@<SCITEGIC>MOL_PROPERTY
U
SciTegic.value.DoubleValue
51.122

@<SCITEGIC>MOL_PROPERTY
W
SciTegic.value.DoubleValue
-51.217

@<SCITEGIC>MOL_PROPERTY
W(PB)
SciTegic.value.DoubleValue
-53.736

@<SCITEGIC>MOL_PROPERTY
W(SA)
SciTegic.value.DoubleValue
2.519

@<SCITEGIC>MOL_PROPERTY
Valence
SciTegic.value.DoubleValue
5.580

@<SCITEGIC>MOL_PROPERTY
Coulomb
SciTegic.value.DoubleValue
44.694

@<SCITEGIC>MOL_PROPERTY
VdW
SciTegic.value.DoubleValue
0.849

@<SCITEGIC>MOL_PROPERTY
VdW6
SciTegic.value.DoubleValue
-8.475

@<SCITEGIC>MOL_PROPERTY
VdW12
SciTegic.value.DoubleValue
9.323

@<SCITEGIC>MOL_PROPERTY
Bond
SciTegic.value.DoubleValue
0.229

@<SCITEGIC>MOL_PROPERTY
Angle
SciTegic.value.DoubleValue
1.194

@<SCITEGIC>MOL_PROPERTY
Pdih
SciTegic.value.DoubleValue
4.157

@<SCITEGIC>MOL_PROPERTY
Idih
SciTegic.value.DoubleValue
0.000

@<SCITEGIC>MOL_PROPERTY
Tether
SciTegic.value.DoubleValue
0.000

@<TRIPOS>MOLECULE
guest-3_vm2.mol2 : vm2 ligand conformer 229
          29          28           1
SMALL
USER_CHARGES
 
@<TRIPOS>ATOM
       1    C1      20.105246   17.325840   20.926282 C.3        1 MOL1        -0.2427
       2    H1      21.166109   17.346053   21.207682 H          1 MOL1         0.0958
       3    H2      19.536510   16.891639   21.757792 H          1 MOL1         0.0958
       4    H3      19.998720   16.651542   20.066688 H          1 MOL1         0.0958
       5    C2      19.598065   18.741393   20.568783 C.3        1 MOL1        -0.1412
       6    H4      18.527613   18.699647   20.323617 H          1 MOL1         0.0947
       7    H5      20.109310   19.080436   19.656956 H          1 MOL1         0.0947
       8    C3      19.838559   19.782576   21.688461 C.3        1 MOL1        -0.1437
       9    H6      20.912092   19.833853   21.916751 H          1 MOL1         0.0947
      10    H7      19.555473   20.774110   21.309000 H          1 MOL1         0.0947
      11    C4      19.043400   19.490500   22.983417 C.3        1 MOL1        -0.1437
      12    H8      19.359801   18.527304   23.396340 H          1 MOL1         0.0947
      13    H9      17.976074   19.394939   22.741221 H          1 MOL1         0.0947
      14    C5      19.233187   20.611439   24.034894 C.3        1 MOL1        -0.1437
      15    H10     20.299932   20.748665   24.259570 H          1 MOL1         0.0947
      16    H11     18.892733   21.556948   23.590387 H          1 MOL1         0.0947
      17    C6      18.439224   20.378565   25.346771 C.3        1 MOL1        -0.1437
      18    H12     17.490030   19.868408   25.132015 H          1 MOL1         0.0947
      19    H13     18.163023   21.359743   25.757214 H          1 MOL1         0.0947
      20    C7      19.218965   19.615926   26.447401 C.3        1 MOL1        -0.1477
      21    H14     20.126108   20.176465   26.709667 H          1 MOL1         0.0947
      22    H15     18.601007   19.583436   27.354605 H          1 MOL1         0.0947
      23    C8      19.602642   18.178269   26.055639 C.3        1 MOL1         0.0145
      24    H16     20.299965   18.200481   25.214620 H          1 MOL1         0.0921
      25    H17     18.708352   17.627125   25.752625 H          1 MOL1         0.0921
      26    N1      20.264712   17.413493   27.183352 N.4        1 MOL1        -0.5969
      27    H18     19.651198   17.331936   28.000905 H          1 MOL1         0.3603
      28    H19     21.127961   17.868751   27.497977 H          1 MOL1         0.3603
      29    H20     20.515245   16.459410   26.901338 H          1 MOL1         0.3603
@<TRIPOS>BOND
    1     1     2    1
    2     1     3    1
    3     1     4    1
    4     1     5    1
    5     5     6    1
    6     5     7    1
    7     5     8    1
    8     8     9    1
    9     8    10    1
   10     8    11    1
   11    11    12    1
   12    11    13    1
   13    11    14    1
   14    14    15    1
   15    14    16    1
   16    14    17    1
   17    17    18    1
   18    17    19    1
   19    17    20    1
   20    20    21    1
   21    20    22    1
   22    20    23    1
   23    23    24    1
   24    23    25    1
   25    23    26    1
   26    26    27    1
   27    26    28    1
   28    26    29    1
@<TRIPOS>SUBSTRUCTURE
       1 MOL1            1 RESIDUE      1      MOL     
@<SCITEGIC>MOL_PROPERTY
VM2 Rank
SciTegic.value.IntegerValue
229

@<SCITEGIC>MOL_PROPERTY
Conf_Id
SciTegic.value.IntegerValue
2947

@<SCITEGIC>MOL_PROPERTY
Probability
SciTegic.value.DoubleValue
0.02

@<SCITEGIC>MOL_PROPERTY
Sum Probability
SciTegic.value.DoubleValue
99.00

@<SCITEGIC>MOL_PROPERTY
Delta G
SciTegic.value.DoubleValue
3.446

@<SCITEGIC>MOL_PROPERTY
G
SciTegic.value.DoubleValue
61.592

@<SCITEGIC>MOL_PROPERTY
E
SciTegic.value.DoubleValue
24.145

@<SCITEGIC>MOL_PROPERTY
-TS
SciTegic.value.DoubleValue
37.446

@<SCITEGIC>MOL_PROPERTY
U+W
SciTegic.value.DoubleValue
0.001

@<SCITEGIC>MOL_PROPERTY
U
SciTegic.value.DoubleValue
52.222

@<SCITEGIC>MOL_PROPERTY
W
SciTegic.value.DoubleValue
-52.221

@<SCITEGIC>MOL_PROPERTY
W(PB)
SciTegic.value.DoubleValue
-54.698

@<SCITEGIC>MOL_PROPERTY
W(SA)
SciTegic.value.DoubleValue
2.477

@<SCITEGIC>MOL_PROPERTY
Valence
SciTegic.value.DoubleValue
5.624

@<SCITEGIC>MOL_PROPERTY
Coulomb
SciTegic.value.DoubleValue
45.733

@<SCITEGIC>MOL_PROPERTY
VdW
SciTegic.value.DoubleValue
0.866

@<SCITEGIC>MOL_PROPERTY
VdW6
SciTegic.value.DoubleValue
-9.149

@<SCITEGIC>MOL_PROPERTY
VdW12
SciTegic.value.DoubleValue
10.015

@<SCITEGIC>MOL_PROPERTY
Bond
SciTegic.value.DoubleValue
0.264

@<SCITEGIC>MOL_PROPERTY
Angle
SciTegic.value.DoubleValue
1.328

@<SCITEGIC>MOL_PROPERTY
Pdih
SciTegic.value.DoubleValue
4.032

@<SCITEGIC>MOL_PROPERTY
Idih
SciTegic.value.DoubleValue
0.000

@<SCITEGIC>MOL_PROPERTY
Tether
SciTegic.value.DoubleValue
0.000

@<TRIPOS>MOLECULE
guest-3_vm2.mol2 : vm2 ligand conformer 230
          29          28           1
SMALL
USER_CHARGES
 
@<TRIPOS>ATOM
       1    C1      20.318222   18.627164   19.620458 C.3        1 MOL1        -0.2427
       2    H1      20.236182   17.545021   19.454751 H          1 MOL1         0.0958
       3    H2      19.491671   19.118037   19.090267 H          1 MOL1         0.0958
       4    H3      21.258564   18.966978   19.167343 H          1 MOL1         0.0958
       5    C2      20.286905   18.962115   21.126683 C.3        1 MOL1        -0.1412
       6    H4      20.411478   20.045756   21.253845 H          1 MOL1         0.0947
       7    H5      21.141073   18.482228   21.624445 H          1 MOL1         0.0947
       8    C3      18.968090   18.495762   21.786985 C.3        1 MOL1        -0.1437
       9    H6      18.117669   19.011652   21.320237 H          1 MOL1         0.0947
      10    H7      18.826572   17.424828   21.586118 H          1 MOL1         0.0947
      11    C4      18.932834   18.717459   23.318889 C.3        1 MOL1        -0.1437
      12    H8      19.770446   18.174220   23.774822 H          1 MOL1         0.0947
      13    H9      18.010306   18.271133   23.714773 H          1 MOL1         0.0947
      14    C5      18.991210   20.210692   23.724811 C.3        1 MOL1        -0.1437
      15    H10     19.984136   20.619365   23.494861 H          1 MOL1         0.0947
      16    H11     18.276810   20.775042   23.109714 H          1 MOL1         0.0947
      17    C6      18.665058   20.483541   25.216010 C.3        1 MOL1        -0.1437
      18    H12     17.637965   20.165653   25.443099 H          1 MOL1         0.0947
      19    H13     18.678771   21.572293   25.363866 H          1 MOL1         0.0947
      20    C7      19.653280   19.848557   26.226513 C.3        1 MOL1        -0.1477
      21    H14     20.677287   19.894531   25.832612 H          1 MOL1         0.0947
      22    H15     19.646976   20.449975   27.145347 H          1 MOL1         0.0947
      23    C8      19.288434   18.399155   26.601695 C.3        1 MOL1         0.0145
      24    H16     19.297397   17.763956   25.714211 H          1 MOL1         0.0921
      25    H17     18.282680   18.374027   27.029670 H          1 MOL1         0.0921
      26    N1      20.239967   17.793555   27.612956 N.4        1 MOL1        -0.5969
      27    H18     21.202577   17.763195   27.261039 H          1 MOL1         0.3603
      28    H19     19.978604   16.831015   27.853424 H          1 MOL1         0.3603
      29    H20     20.255461   18.326392   28.488915 H          1 MOL1         0.3603
@<TRIPOS>BOND
    1     1     2    1
    2     1     3    1
    3     1     4    1
    4     1     5    1
    5     5     6    1
    6     5     7    1
    7     5     8    1
    8     8     9    1
    9     8    10    1
   10     8    11    1
   11    11    12    1
   12    11    13    1
   13    11    14    1
   14    14    15    1
   15    14    16    1
   16    14    17    1
   17    17    18    1
   18    17    19    1
   19    17    20    1
   20    20    21    1
   21    20    22    1
   22    20    23    1
   23    23    24    1
   24    23    25    1
   25    23    26    1
   26    26    27    1
   27    26    28    1
   28    26    29    1
@<TRIPOS>SUBSTRUCTURE
       1 MOL1            1 RESIDUE      1      MOL     
@<SCITEGIC>MOL_PROPERTY
VM2 Rank
SciTegic.value.IntegerValue
230

@<SCITEGIC>MOL_PROPERTY
Conf_Id
SciTegic.value.IntegerValue
686

@<SCITEGIC>MOL_PROPERTY
Probability
SciTegic.value.DoubleValue
0.02

@<SCITEGIC>MOL_PROPERTY
Sum Probability
SciTegic.value.DoubleValue
99.02

@<SCITEGIC>MOL_PROPERTY
Delta G
SciTegic.value.DoubleValue
3.448

@<SCITEGIC>MOL_PROPERTY
G
SciTegic.value.DoubleValue
61.595

@<SCITEGIC>MOL_PROPERTY
E
SciTegic.value.DoubleValue
23.950

@<SCITEGIC>MOL_PROPERTY
-TS
SciTegic.value.DoubleValue
37.645

@<SCITEGIC>MOL_PROPERTY
U+W
SciTegic.value.DoubleValue
-0.195

@<SCITEGIC>MOL_PROPERTY
U
SciTegic.value.DoubleValue
51.999

@<SCITEGIC>MOL_PROPERTY
W
SciTegic.value.DoubleValue
-52.194

@<SCITEGIC>MOL_PROPERTY
W(PB)
SciTegic.value.DoubleValue
-54.680

@<SCITEGIC>MOL_PROPERTY
W(SA)
SciTegic.value.DoubleValue
2.486

@<SCITEGIC>MOL_PROPERTY
Valence
SciTegic.value.DoubleValue
5.450

@<SCITEGIC>MOL_PROPERTY
Coulomb
SciTegic.value.DoubleValue
45.755

@<SCITEGIC>MOL_PROPERTY
VdW
SciTegic.value.DoubleValue
0.793

@<SCITEGIC>MOL_PROPERTY
VdW6
SciTegic.value.DoubleValue
-9.318

@<SCITEGIC>MOL_PROPERTY
VdW12
SciTegic.value.DoubleValue
10.111

@<SCITEGIC>MOL_PROPERTY
Bond
SciTegic.value.DoubleValue
0.250

@<SCITEGIC>MOL_PROPERTY
Angle
SciTegic.value.DoubleValue
1.353

@<SCITEGIC>MOL_PROPERTY
Pdih
SciTegic.value.DoubleValue
3.847

@<SCITEGIC>MOL_PROPERTY
Idih
SciTegic.value.DoubleValue
0.000

@<SCITEGIC>MOL_PROPERTY
Tether
SciTegic.value.DoubleValue
0.000

@<TRIPOS>MOLECULE
guest-3_vm2.mol2 : vm2 ligand conformer 231
          29          28           1
SMALL
USER_CHARGES
 
@<TRIPOS>ATOM
       1    C1      20.594211   20.407803   20.725225 C.3        1 MOL1        -0.2427
       2    H1      19.691007   20.804512   20.243693 H          1 MOL1         0.0958
       3    H2      20.714406   20.905946   21.695222 H          1 MOL1         0.0958
       4    H3      21.455434   20.684495   20.103411 H          1 MOL1         0.0958
       5    C2      20.511489   18.872524   20.881929 C.3        1 MOL1        -0.1412
       6    H4      21.411789   18.504449   21.393488 H          1 MOL1         0.0947
       7    H5      20.515964   18.413723   19.883317 H          1 MOL1         0.0947
       8    C3      19.248126   18.398924   21.640263 C.3        1 MOL1        -0.1437
       9    H6      18.350799   18.746590   21.110036 H          1 MOL1         0.0947
      10    H7      19.216767   17.300880   21.614744 H          1 MOL1         0.0947
      11    C4      19.200899   18.871519   23.112921 C.3        1 MOL1        -0.1437
      12    H8      19.148775   19.967376   23.151764 H          1 MOL1         0.0947
      13    H9      20.130341   18.568113   23.611151 H          1 MOL1         0.0947
      14    C5      17.988627   18.276040   23.866186 C.3        1 MOL1        -0.1437
      15    H10     17.080057   18.450026   23.273206 H          1 MOL1         0.0947
      16    H11     18.102801   17.185502   23.936537 H          1 MOL1         0.0947
      17    C6      17.759160   18.862730   25.283208 C.3        1 MOL1        -0.1437
      18    H12     16.853481   18.394333   25.692814 H          1 MOL1         0.0947
      19    H13     17.533973   19.936168   25.215437 H          1 MOL1         0.0947
      20    C7      18.918686   18.626482   26.283464 C.3        1 MOL1        -0.1477
      21    H14     18.504954   18.611403   27.300615 H          1 MOL1         0.0947
      22    H15     19.366283   17.637823   26.115870 H          1 MOL1         0.0947
      23    C8      20.000720   19.722307   26.223968 C.3        1 MOL1         0.0145
      24    H16     19.549048   20.694407   26.439272 H          1 MOL1         0.0921
      25    H17     20.442786   19.765425   25.226932 H          1 MOL1         0.0921
      26    N1      21.122082   19.499672   27.217836 N.4        1 MOL1        -0.5969
      27    H18     21.607080   18.611308   27.053654 H          1 MOL1         0.3603
      28    H19     20.777838   19.481626   28.183562 H          1 MOL1         0.3603
      29    H20     21.829516   20.240967   27.166690 H          1 MOL1         0.3603
@<TRIPOS>BOND
    1     1     2    1
    2     1     3    1
    3     1     4    1
    4     1     5    1
    5     5     6    1
    6     5     7    1
    7     5     8    1
    8     8     9    1
    9     8    10    1
   10     8    11    1
   11    11    12    1
   12    11    13    1
   13    11    14    1
   14    14    15    1
   15    14    16    1
   16    14    17    1
   17    17    18    1
   18    17    19    1
   19    17    20    1
   20    20    21    1
   21    20    22    1
   22    20    23    1
   23    23    24    1
   24    23    25    1
   25    23    26    1
   26    26    27    1
   27    26    28    1
   28    26    29    1
@<TRIPOS>SUBSTRUCTURE
       1 MOL1            1 RESIDUE      1      MOL     
@<SCITEGIC>MOL_PROPERTY
VM2 Rank
SciTegic.value.IntegerValue
231

@<SCITEGIC>MOL_PROPERTY
Conf_Id
SciTegic.value.IntegerValue
1506

@<SCITEGIC>MOL_PROPERTY
Probability
SciTegic.value.DoubleValue
0.02

@<SCITEGIC>MOL_PROPERTY
Sum Probability
SciTegic.value.DoubleValue
99.04

@<SCITEGIC>MOL_PROPERTY
Delta G
SciTegic.value.DoubleValue
3.458

@<SCITEGIC>MOL_PROPERTY
G
SciTegic.value.DoubleValue
61.604

@<SCITEGIC>MOL_PROPERTY
E
SciTegic.value.DoubleValue
23.959

@<SCITEGIC>MOL_PROPERTY
-TS
SciTegic.value.DoubleValue
37.644

@<SCITEGIC>MOL_PROPERTY
U+W
SciTegic.value.DoubleValue
-0.185

@<SCITEGIC>MOL_PROPERTY
U
SciTegic.value.DoubleValue
52.128

@<SCITEGIC>MOL_PROPERTY
W
SciTegic.value.DoubleValue
-52.313

@<SCITEGIC>MOL_PROPERTY
W(PB)
SciTegic.value.DoubleValue
-54.796

@<SCITEGIC>MOL_PROPERTY
W(SA)
SciTegic.value.DoubleValue
2.483

@<SCITEGIC>MOL_PROPERTY
Valence
SciTegic.value.DoubleValue
5.466

@<SCITEGIC>MOL_PROPERTY
Coulomb
SciTegic.value.DoubleValue
45.872

@<SCITEGIC>MOL_PROPERTY
VdW
SciTegic.value.DoubleValue
0.790

@<SCITEGIC>MOL_PROPERTY
VdW6
SciTegic.value.DoubleValue
-9.336

@<SCITEGIC>MOL_PROPERTY
VdW12
SciTegic.value.DoubleValue
10.126

@<SCITEGIC>MOL_PROPERTY
Bond
SciTegic.value.DoubleValue
0.248

@<SCITEGIC>MOL_PROPERTY
Angle
SciTegic.value.DoubleValue
1.379

@<SCITEGIC>MOL_PROPERTY
Pdih
SciTegic.value.DoubleValue
3.839

@<SCITEGIC>MOL_PROPERTY
Idih
SciTegic.value.DoubleValue
0.000

@<SCITEGIC>MOL_PROPERTY
Tether
SciTegic.value.DoubleValue
0.000

@<TRIPOS>MOLECULE
guest-3_vm2.mol2 : vm2 ligand conformer 232
          29          28           1
SMALL
USER_CHARGES
 
@<TRIPOS>ATOM
       1    C1      20.463947   19.036987   19.629523 C.3        1 MOL1        -0.2427
       2    H1      21.086377   19.933098   19.507919 H          1 MOL1         0.0958
       3    H2      20.984354   18.197782   19.150003 H          1 MOL1         0.0958
       4    H3      19.520640   19.200211   19.092143 H          1 MOL1         0.0958
       5    C2      20.207003   18.737785   21.121618 C.3        1 MOL1        -0.1412
       6    H4      21.165220   18.549880   21.625774 H          1 MOL1         0.0947
       7    H5      19.617119   17.815175   21.204038 H          1 MOL1         0.0947
       8    C3      19.470338   19.905852   21.818536 C.3        1 MOL1        -0.1437
       9    H6      20.040165   20.832227   21.662328 H          1 MOL1         0.0947
      10    H7      18.491900   20.062381   21.343805 H          1 MOL1         0.0947
      11    C4      19.281359   19.695706   23.340786 C.3        1 MOL1        -0.1437
      12    H8      18.842848   20.608371   23.767095 H          1 MOL1         0.0947
      13    H9      20.267301   19.568891   23.805986 H          1 MOL1         0.0947
      14    C5      18.377408   18.486814   23.686300 C.3        1 MOL1        -0.1437
      15    H10     17.475892   18.525698   23.059436 H          1 MOL1         0.0947
      16    H11     18.891966   17.552229   23.426350 H          1 MOL1         0.0947
      17    C6      17.931155   18.422553   25.169955 C.3        1 MOL1        -0.1437
      18    H12     17.251857   17.565178   25.274322 H          1 MOL1         0.0947
      19    H13     17.332741   19.308529   25.423900 H          1 MOL1         0.0947
      20    C7      19.083921   18.249770   26.190827 C.3        1 MOL1        -0.1477
      21    H14     18.686073   17.751816   27.085120 H          1 MOL1         0.0947
      22    H15     19.854059   17.582810   25.781056 H          1 MOL1         0.0947
      23    C8      19.711586   19.587449   26.628202 C.3        1 MOL1         0.0145
      24    H16     18.941936   20.225443   27.070852 H          1 MOL1         0.0921
      25    H17     20.132469   20.108576   25.766536 H          1 MOL1         0.0921
      26    N1      20.817284   19.415084   27.649252 N.4        1 MOL1        -0.5969
      27    H18     20.480188   18.958281   28.503159 H          1 MOL1         0.3603
      28    H19     21.219520   20.315820   27.931212 H          1 MOL1         0.3603
      29    H20     21.587438   18.844231   27.285421 H          1 MOL1         0.3603
@<TRIPOS>BOND
    1     1     2    1
    2     1     3    1
    3     1     4    1
    4     1     5    1
    5     5     6    1
    6     5     7    1
    7     5     8    1
    8     8     9    1
    9     8    10    1
   10     8    11    1
   11    11    12    1
   12    11    13    1
   13    11    14    1
   14    14    15    1
   15    14    16    1
   16    14    17    1
   17    17    18    1
   18    17    19    1
   19    17    20    1
   20    20    21    1
   21    20    22    1
   22    20    23    1
   23    23    24    1
   24    23    25    1
   25    23    26    1
   26    26    27    1
   27    26    28    1
   28    26    29    1
@<TRIPOS>SUBSTRUCTURE
       1 MOL1            1 RESIDUE      1      MOL     
@<SCITEGIC>MOL_PROPERTY
VM2 Rank
SciTegic.value.IntegerValue
232

@<SCITEGIC>MOL_PROPERTY
Conf_Id
SciTegic.value.IntegerValue
2577

@<SCITEGIC>MOL_PROPERTY
Probability
SciTegic.value.DoubleValue
0.02

@<SCITEGIC>MOL_PROPERTY
Sum Probability
SciTegic.value.DoubleValue
99.05

@<SCITEGIC>MOL_PROPERTY
Delta G
SciTegic.value.DoubleValue
3.471

@<SCITEGIC>MOL_PROPERTY
G
SciTegic.value.DoubleValue
61.617

@<SCITEGIC>MOL_PROPERTY
E
SciTegic.value.DoubleValue
23.972

@<SCITEGIC>MOL_PROPERTY
-TS
SciTegic.value.DoubleValue
37.645

@<SCITEGIC>MOL_PROPERTY
U+W
SciTegic.value.DoubleValue
-0.172

@<SCITEGIC>MOL_PROPERTY
U
SciTegic.value.DoubleValue
51.999

@<SCITEGIC>MOL_PROPERTY
W
SciTegic.value.DoubleValue
-52.172

@<SCITEGIC>MOL_PROPERTY
W(PB)
SciTegic.value.DoubleValue
-54.675

@<SCITEGIC>MOL_PROPERTY
W(SA)
SciTegic.value.DoubleValue
2.504

@<SCITEGIC>MOL_PROPERTY
Valence
SciTegic.value.DoubleValue
5.450

@<SCITEGIC>MOL_PROPERTY
Coulomb
SciTegic.value.DoubleValue
45.755

@<SCITEGIC>MOL_PROPERTY
VdW
SciTegic.value.DoubleValue
0.794

@<SCITEGIC>MOL_PROPERTY
VdW6
SciTegic.value.DoubleValue
-9.318

@<SCITEGIC>MOL_PROPERTY
VdW12
SciTegic.value.DoubleValue
10.112

@<SCITEGIC>MOL_PROPERTY
Bond
SciTegic.value.DoubleValue
0.250

@<SCITEGIC>MOL_PROPERTY
Angle
SciTegic.value.DoubleValue
1.353

@<SCITEGIC>MOL_PROPERTY
Pdih
SciTegic.value.DoubleValue
3.847

@<SCITEGIC>MOL_PROPERTY
Idih
SciTegic.value.DoubleValue
0.000

@<SCITEGIC>MOL_PROPERTY
Tether
SciTegic.value.DoubleValue
0.000

@<TRIPOS>MOLECULE
guest-3_vm2.mol2 : vm2 ligand conformer 233
          29          28           1
SMALL
USER_CHARGES
 
@<TRIPOS>ATOM
       1    C1      20.969034   18.800692   19.916989 C.3        1 MOL1        -0.2427
       2    H1      21.345863   17.787087   20.106321 H          1 MOL1         0.0958
       3    H2      20.280230   18.755643   19.063317 H          1 MOL1         0.0958
       4    H3      21.821731   19.429128   19.628868 H          1 MOL1         0.0958
       5    C2      20.267656   19.373583   21.166712 C.3        1 MOL1        -0.1412
       6    H4      19.928046   20.397389   20.956552 H          1 MOL1         0.0947
       7    H5      20.997186   19.441125   21.984482 H          1 MOL1         0.0947
       8    C3      19.063745   18.501412   21.594371 C.3        1 MOL1        -0.1437
       9    H6      18.387042   18.382589   20.736897 H          1 MOL1         0.0947
      10    H7      19.411267   17.492054   21.854372 H          1 MOL1         0.0947
      11    C4      18.257624   19.093869   22.776265 C.3        1 MOL1        -0.1437
      12    H8      17.364538   18.473366   22.933656 H          1 MOL1         0.0947
      13    H9      17.894130   20.095219   22.507101 H          1 MOL1         0.0947
      14    C5      19.059870   19.165914   24.097566 C.3        1 MOL1        -0.1437
      15    H10     19.465790   18.170865   24.317113 H          1 MOL1         0.0947
      16    H11     19.908777   19.852282   23.981778 H          1 MOL1         0.0947
      17    C6      18.176950   19.642487   25.275036 C.3        1 MOL1        -0.1437
      18    H12     17.394337   18.896710   25.471924 H          1 MOL1         0.0947
      19    H13     17.655174   20.562820   24.978092 H          1 MOL1         0.0947
      20    C7      18.955083   19.930850   26.584313 C.3        1 MOL1        -0.1477
      21    H14     19.700389   20.720452   26.420227 H          1 MOL1         0.0947
      22    H15     18.243523   20.335603   27.316229 H          1 MOL1         0.0947
      23    C8      19.626194   18.693794   27.216213 C.3        1 MOL1         0.0145
      24    H16     18.963382   17.828369   27.132548 H          1 MOL1         0.0921
      25    H17     19.799972   18.886682   28.278319 H          1 MOL1         0.0921
      26    N1      20.967844   18.335399   26.607534 N.4        1 MOL1        -0.5969
      27    H18     20.888560   18.133282   25.606899 H          1 MOL1         0.3603
      28    H19     21.378307   17.507423   27.053257 H          1 MOL1         0.3603
      29    H20     21.646092   19.097453   26.710471 H          1 MOL1         0.3603
@<TRIPOS>BOND
    1     1     2    1
    2     1     3    1
    3     1     4    1
    4     1     5    1
    5     5     6    1
    6     5     7    1
    7     5     8    1
    8     8     9    1
    9     8    10    1
   10     8    11    1
   11    11    12    1
   12    11    13    1
   13    11    14    1
   14    14    15    1
   15    14    16    1
   16    14    17    1
   17    17    18    1
   18    17    19    1
   19    17    20    1
   20    20    21    1
   21    20    22    1
   22    20    23    1
   23    23    24    1
   24    23    25    1
   25    23    26    1
   26    26    27    1
   27    26    28    1
   28    26    29    1
@<TRIPOS>SUBSTRUCTURE
       1 MOL1            1 RESIDUE      1      MOL     
@<SCITEGIC>MOL_PROPERTY
VM2 Rank
SciTegic.value.IntegerValue
233

@<SCITEGIC>MOL_PROPERTY
Conf_Id
SciTegic.value.IntegerValue
1055

@<SCITEGIC>MOL_PROPERTY
Probability
SciTegic.value.DoubleValue
0.02

@<SCITEGIC>MOL_PROPERTY
Sum Probability
SciTegic.value.DoubleValue
99.07

@<SCITEGIC>MOL_PROPERTY
Delta G
SciTegic.value.DoubleValue
3.490

@<SCITEGIC>MOL_PROPERTY
G
SciTegic.value.DoubleValue
61.636

@<SCITEGIC>MOL_PROPERTY
E
SciTegic.value.DoubleValue
24.182

@<SCITEGIC>MOL_PROPERTY
-TS
SciTegic.value.DoubleValue
37.454

@<SCITEGIC>MOL_PROPERTY
U+W
SciTegic.value.DoubleValue
0.037

@<SCITEGIC>MOL_PROPERTY
U
SciTegic.value.DoubleValue
52.272

@<SCITEGIC>MOL_PROPERTY
W
SciTegic.value.DoubleValue
-52.234

@<SCITEGIC>MOL_PROPERTY
W(PB)
SciTegic.value.DoubleValue
-54.714

@<SCITEGIC>MOL_PROPERTY
W(SA)
SciTegic.value.DoubleValue
2.479

@<SCITEGIC>MOL_PROPERTY
Valence
SciTegic.value.DoubleValue
4.707

@<SCITEGIC>MOL_PROPERTY
Coulomb
SciTegic.value.DoubleValue
46.778

@<SCITEGIC>MOL_PROPERTY
VdW
SciTegic.value.DoubleValue
0.786

@<SCITEGIC>MOL_PROPERTY
VdW6
SciTegic.value.DoubleValue
-9.145

@<SCITEGIC>MOL_PROPERTY
VdW12
SciTegic.value.DoubleValue
9.931

@<SCITEGIC>MOL_PROPERTY
Bond
SciTegic.value.DoubleValue
0.241

@<SCITEGIC>MOL_PROPERTY
Angle
SciTegic.value.DoubleValue
1.214

@<SCITEGIC>MOL_PROPERTY
Pdih
SciTegic.value.DoubleValue
3.252

@<SCITEGIC>MOL_PROPERTY
Idih
SciTegic.value.DoubleValue
0.000

@<SCITEGIC>MOL_PROPERTY
Tether
SciTegic.value.DoubleValue
0.000

@<TRIPOS>MOLECULE
guest-3_vm2.mol2 : vm2 ligand conformer 234
          29          28           1
SMALL
USER_CHARGES
 
@<TRIPOS>ATOM
       1    C1      20.244104   19.336272   19.378168 C.3        1 MOL1        -0.2427
       2    H1      19.845650   19.227565   18.361084 H          1 MOL1         0.0958
       3    H2      20.501483   20.392911   19.528201 H          1 MOL1         0.0958
       4    H3      21.167893   18.746666   19.443157 H          1 MOL1         0.0958
       5    C2      19.210048   18.863593   20.421846 C.3        1 MOL1        -0.1412
       6    H4      18.946942   17.814913   20.224587 H          1 MOL1         0.0947
       7    H5      18.286302   19.448658   20.310951 H          1 MOL1         0.0947
       8    C3      19.746554   19.005263   21.863497 C.3        1 MOL1        -0.1437
       9    H6      20.668320   18.416853   21.969711 H          1 MOL1         0.0947
      10    H7      20.015006   20.054258   22.042247 H          1 MOL1         0.0947
      11    C4      18.708196   18.534664   22.910603 C.3        1 MOL1        -0.1437
      12    H8      18.394674   17.511155   22.662586 H          1 MOL1         0.0947
      13    H9      17.805227   19.157353   22.845697 H          1 MOL1         0.0947
      14    C5      19.241538   18.541836   24.364574 C.3        1 MOL1        -0.1437
      15    H10     18.496411   18.038175   24.991989 H          1 MOL1         0.0947
      16    H11     20.162220   17.944887   24.421061 H          1 MOL1         0.0947
      17    C6      19.497996   19.964248   24.922919 C.3        1 MOL1        -0.1437
      18    H12     18.554889   20.527829   24.934492 H          1 MOL1         0.0947
      19    H13     20.171192   20.507602   24.248213 H          1 MOL1         0.0947
      20    C7      20.131296   19.991626   26.337632 C.3        1 MOL1        -0.1477
      21    H14     21.106468   19.486788   26.329720 H          1 MOL1         0.0947
      22    H15     20.337093   21.039677   26.592784 H          1 MOL1         0.0947
      23    C8      19.240579   19.404395   27.451994 C.3        1 MOL1         0.0145
      24    H16     18.197472   19.682762   27.279595 H          1 MOL1         0.0921
      25    H17     19.549550   19.824678   28.412918 H          1 MOL1         0.0921
      26    N1      19.323690   17.896101   27.583768 N.4        1 MOL1        -0.5969
      27    H18     19.043952   17.423020   26.719857 H          1 MOL1         0.3603
      28    H19     18.715621   17.545775   28.332221 H          1 MOL1         0.3603
      29    H20     20.276323   17.586946   27.803440 H          1 MOL1         0.3603
@<TRIPOS>BOND
    1     1     2    1
    2     1     3    1
    3     1     4    1
    4     1     5    1
    5     5     6    1
    6     5     7    1
    7     5     8    1
    8     8     9    1
    9     8    10    1
   10     8    11    1
   11    11    12    1
   12    11    13    1
   13    11    14    1
   14    14    15    1
   15    14    16    1
   16    14    17    1
   17    17    18    1
   18    17    19    1
   19    17    20    1
   20    20    21    1
   21    20    22    1
   22    20    23    1
   23    23    24    1
   24    23    25    1
   25    23    26    1
   26    26    27    1
   27    26    28    1
   28    26    29    1
@<TRIPOS>SUBSTRUCTURE
       1 MOL1            1 RESIDUE      1      MOL     
@<SCITEGIC>MOL_PROPERTY
VM2 Rank
SciTegic.value.IntegerValue
234

@<SCITEGIC>MOL_PROPERTY
Conf_Id
SciTegic.value.IntegerValue
1651

@<SCITEGIC>MOL_PROPERTY
Probability
SciTegic.value.DoubleValue
0.01

@<SCITEGIC>MOL_PROPERTY
Sum Probability
SciTegic.value.DoubleValue
99.08

@<SCITEGIC>MOL_PROPERTY
Delta G
SciTegic.value.DoubleValue
3.499

@<SCITEGIC>MOL_PROPERTY
G
SciTegic.value.DoubleValue
61.645

@<SCITEGIC>MOL_PROPERTY
E
SciTegic.value.DoubleValue
24.302

@<SCITEGIC>MOL_PROPERTY
-TS
SciTegic.value.DoubleValue
37.343

@<SCITEGIC>MOL_PROPERTY
U+W
SciTegic.value.DoubleValue
0.158

@<SCITEGIC>MOL_PROPERTY
U
SciTegic.value.DoubleValue
51.995

@<SCITEGIC>MOL_PROPERTY
W
SciTegic.value.DoubleValue
-51.838

@<SCITEGIC>MOL_PROPERTY
W(PB)
SciTegic.value.DoubleValue
-54.337

@<SCITEGIC>MOL_PROPERTY
W(SA)
SciTegic.value.DoubleValue
2.500

@<SCITEGIC>MOL_PROPERTY
Valence
SciTegic.value.DoubleValue
4.866

@<SCITEGIC>MOL_PROPERTY
Coulomb
SciTegic.value.DoubleValue
46.253

@<SCITEGIC>MOL_PROPERTY
VdW
SciTegic.value.DoubleValue
0.877

@<SCITEGIC>MOL_PROPERTY
VdW6
SciTegic.value.DoubleValue
-9.001

@<SCITEGIC>MOL_PROPERTY
VdW12
SciTegic.value.DoubleValue
9.878

@<SCITEGIC>MOL_PROPERTY
Bond
SciTegic.value.DoubleValue
0.252

@<SCITEGIC>MOL_PROPERTY
Angle
SciTegic.value.DoubleValue
1.291

@<SCITEGIC>MOL_PROPERTY
Pdih
SciTegic.value.DoubleValue
3.324

@<SCITEGIC>MOL_PROPERTY
Idih
SciTegic.value.DoubleValue
0.000

@<SCITEGIC>MOL_PROPERTY
Tether
SciTegic.value.DoubleValue
0.000

@<TRIPOS>MOLECULE
guest-3_vm2.mol2 : vm2 ligand conformer 235
          29          28           1
SMALL
USER_CHARGES
 
@<TRIPOS>ATOM
       1    C1      21.198356   20.018540   21.080545 C.3        1 MOL1        -0.2427
       2    H1      21.796011   19.103187   20.980752 H          1 MOL1         0.0958
       3    H2      21.617189   20.769093   20.397780 H          1 MOL1         0.0958
       4    H3      21.319065   20.399122   22.102320 H          1 MOL1         0.0958
       5    C2      19.713343   19.751862   20.745279 C.3        1 MOL1        -0.1412
       6    H4      19.631610   19.495698   19.679705 H          1 MOL1         0.0947
       7    H5      19.131692   20.673691   20.885373 H          1 MOL1         0.0947
       8    C3      19.089204   18.607475   21.579836 C.3        1 MOL1        -0.1437
       9    H6      18.075277   18.415174   21.202751 H          1 MOL1         0.0947
      10    H7      19.659810   17.682407   21.418914 H          1 MOL1         0.0947
      11    C4      19.016363   18.918635   23.093901 C.3        1 MOL1        -0.1437
      12    H8      18.485199   19.867825   23.248078 H          1 MOL1         0.0947
      13    H9      20.033183   19.043278   23.484410 H          1 MOL1         0.0947
      14    C5      18.305078   17.790884   23.877539 C.3        1 MOL1        -0.1437
      15    H10     17.345582   17.567288   23.391060 H          1 MOL1         0.0947
      16    H11     18.901687   16.870485   23.812727 H          1 MOL1         0.0947
      17    C6      18.024449   18.119807   25.366824 C.3        1 MOL1        -0.1437
      18    H12     17.485027   17.265398   25.798610 H          1 MOL1         0.0947
      19    H13     17.337033   18.973873   25.441674 H          1 MOL1         0.0947
      20    C7      19.286629   18.378149   26.227723 C.3        1 MOL1        -0.1477
      21    H14     19.061156   18.108659   27.268173 H          1 MOL1         0.0947
      22    H15     20.104027   17.718858   25.906654 H          1 MOL1         0.0947
      23    C8      19.743299   19.849945   26.203667 C.3        1 MOL1         0.0145
      24    H16     18.936971   20.489118   26.573314 H          1 MOL1         0.0921
      25    H17     19.980797   20.157147   25.183573 H          1 MOL1         0.0921
      26    N1      20.967280   20.102703   27.059687 N.4        1 MOL1        -0.5969
      27    H18     20.800567   19.864878   28.043101 H          1 MOL1         0.3603
      28    H19     21.252907   21.087790   27.034929 H          1 MOL1         0.3603
      29    H20     21.772352   19.549641   26.747716 H          1 MOL1         0.3603
@<TRIPOS>BOND
    1     1     2    1
    2     1     3    1
    3     1     4    1
    4     1     5    1
    5     5     6    1
    6     5     7    1
    7     5     8    1
    8     8     9    1
    9     8    10    1
   10     8    11    1
   11    11    12    1
   12    11    13    1
   13    11    14    1
   14    14    15    1
   15    14    16    1
   16    14    17    1
   17    17    18    1
   18    17    19    1
   19    17    20    1
   20    20    21    1
   21    20    22    1
   22    20    23    1
   23    23    24    1
   24    23    25    1
   25    23    26    1
   26    26    27    1
   27    26    28    1
   28    26    29    1
@<TRIPOS>SUBSTRUCTURE
       1 MOL1            1 RESIDUE      1      MOL     
@<SCITEGIC>MOL_PROPERTY
VM2 Rank
SciTegic.value.IntegerValue
235

@<SCITEGIC>MOL_PROPERTY
Conf_Id
SciTegic.value.IntegerValue
2567

@<SCITEGIC>MOL_PROPERTY
Probability
SciTegic.value.DoubleValue
0.01

@<SCITEGIC>MOL_PROPERTY
Sum Probability
SciTegic.value.DoubleValue
99.10

@<SCITEGIC>MOL_PROPERTY
Delta G
SciTegic.value.DoubleValue
3.504

@<SCITEGIC>MOL_PROPERTY
G
SciTegic.value.DoubleValue
61.650

@<SCITEGIC>MOL_PROPERTY
E
SciTegic.value.DoubleValue
23.999

@<SCITEGIC>MOL_PROPERTY
-TS
SciTegic.value.DoubleValue
37.651

@<SCITEGIC>MOL_PROPERTY
U+W
SciTegic.value.DoubleValue
-0.145

@<SCITEGIC>MOL_PROPERTY
U
SciTegic.value.DoubleValue
52.277

@<SCITEGIC>MOL_PROPERTY
W
SciTegic.value.DoubleValue
-52.422

@<SCITEGIC>MOL_PROPERTY
W(PB)
SciTegic.value.DoubleValue
-54.893

@<SCITEGIC>MOL_PROPERTY
W(SA)
SciTegic.value.DoubleValue
2.471

@<SCITEGIC>MOL_PROPERTY
Valence
SciTegic.value.DoubleValue
5.465

@<SCITEGIC>MOL_PROPERTY
Coulomb
SciTegic.value.DoubleValue
46.027

@<SCITEGIC>MOL_PROPERTY
VdW
SciTegic.value.DoubleValue
0.785

@<SCITEGIC>MOL_PROPERTY
VdW6
SciTegic.value.DoubleValue
-9.375

@<SCITEGIC>MOL_PROPERTY
VdW12
SciTegic.value.DoubleValue
10.160

@<SCITEGIC>MOL_PROPERTY
Bond
SciTegic.value.DoubleValue
0.251

@<SCITEGIC>MOL_PROPERTY
Angle
SciTegic.value.DoubleValue
1.379

@<SCITEGIC>MOL_PROPERTY
Pdih
SciTegic.value.DoubleValue
3.835

@<SCITEGIC>MOL_PROPERTY
Idih
SciTegic.value.DoubleValue
0.000

@<SCITEGIC>MOL_PROPERTY
Tether
SciTegic.value.DoubleValue
0.000

@<TRIPOS>MOLECULE
guest-3_vm2.mol2 : vm2 ligand conformer 236
          29          28           1
SMALL
USER_CHARGES
 
@<TRIPOS>ATOM
       1    C1      20.246861   17.346009   21.020924 C.3        1 MOL1        -0.2427
       2    H1      21.289744   17.681061   20.949125 H          1 MOL1         0.0958
       3    H2      20.085508   16.934651   22.025009 H          1 MOL1         0.0958
       4    H3      20.107027   16.527394   20.303125 H          1 MOL1         0.0958
       5    C2      19.269096   18.503859   20.717376 C.3        1 MOL1        -0.1412
       6    H4      18.233955   18.152074   20.828926 H          1 MOL1         0.0947
       7    H5      19.382703   18.796030   19.664059 H          1 MOL1         0.0947
       8    C3      19.496398   19.751043   21.605366 C.3        1 MOL1        -0.1437
       9    H6      20.525286   20.113207   21.473213 H          1 MOL1         0.0947
      10    H7      18.837284   20.555333   21.250532 H          1 MOL1         0.0947
      11    C4      19.222010   19.496130   23.106783 C.3        1 MOL1        -0.1437
      12    H8      19.926007   18.741957   23.477687 H          1 MOL1         0.0947
      13    H9      18.208601   19.090520   23.230677 H          1 MOL1         0.0947
      14    C5      19.371799   20.787531   23.944451 C.3        1 MOL1        -0.1437
      15    H10     20.416489   21.125990   23.907761 H          1 MOL1         0.0947
      16    H11     18.776071   21.585915   23.480792 H          1 MOL1         0.0947
      17    C6      18.925503   20.651061   25.423340 C.3        1 MOL1        -0.1437
      18    H12     17.852159   20.420971   25.473970 H          1 MOL1         0.0947
      19    H13     19.040900   21.636200   25.896218 H          1 MOL1         0.0947
      20    C7      19.728590   19.619727   26.255442 C.3        1 MOL1        -0.1477
      21    H14     20.783153   19.626680   25.949279 H          1 MOL1         0.0947
      22    H15     19.709309   19.929555   27.308834 H          1 MOL1         0.0947
      23    C8      19.153370   18.192651   26.166617 C.3        1 MOL1         0.0145
      24    H16     19.157942   17.845184   25.131911 H          1 MOL1         0.0921
      25    H17     18.119381   18.192369   26.521881 H          1 MOL1         0.0921
      26    N1      19.930374   17.189990   26.994701 N.4        1 MOL1        -0.5969
      27    H18     19.937375   17.440480   27.989017 H          1 MOL1         0.3603
      28    H19     20.908185   17.122101   26.693667 H          1 MOL1         0.3603
      29    H20     19.529972   16.247828   26.926880 H          1 MOL1         0.3603
@<TRIPOS>BOND
    1     1     2    1
    2     1     3    1
    3     1     4    1
    4     1     5    1
    5     5     6    1
    6     5     7    1
    7     5     8    1
    8     8     9    1
    9     8    10    1
   10     8    11    1
   11    11    12    1
   12    11    13    1
   13    11    14    1
   14    14    15    1
   15    14    16    1
   16    14    17    1
   17    17    18    1
   18    17    19    1
   19    17    20    1
   20    20    21    1
   21    20    22    1
   22    20    23    1
   23    23    24    1
   24    23    25    1
   25    23    26    1
   26    26    27    1
   27    26    28    1
   28    26    29    1
@<TRIPOS>SUBSTRUCTURE
       1 MOL1            1 RESIDUE      1      MOL     
@<SCITEGIC>MOL_PROPERTY
VM2 Rank
SciTegic.value.IntegerValue
236

@<SCITEGIC>MOL_PROPERTY
Conf_Id
SciTegic.value.IntegerValue
2811

@<SCITEGIC>MOL_PROPERTY
Probability
SciTegic.value.DoubleValue
0.01

@<SCITEGIC>MOL_PROPERTY
Sum Probability
SciTegic.value.DoubleValue
99.11

@<SCITEGIC>MOL_PROPERTY
Delta G
SciTegic.value.DoubleValue
3.527

@<SCITEGIC>MOL_PROPERTY
G
SciTegic.value.DoubleValue
61.673

@<SCITEGIC>MOL_PROPERTY
E
SciTegic.value.DoubleValue
24.022

@<SCITEGIC>MOL_PROPERTY
-TS
SciTegic.value.DoubleValue
37.651

@<SCITEGIC>MOL_PROPERTY
U+W
SciTegic.value.DoubleValue
-0.123

@<SCITEGIC>MOL_PROPERTY
U
SciTegic.value.DoubleValue
52.277

@<SCITEGIC>MOL_PROPERTY
W
SciTegic.value.DoubleValue
-52.399

@<SCITEGIC>MOL_PROPERTY
W(PB)
SciTegic.value.DoubleValue
-54.865

@<SCITEGIC>MOL_PROPERTY
W(SA)
SciTegic.value.DoubleValue
2.466

@<SCITEGIC>MOL_PROPERTY
Valence
SciTegic.value.DoubleValue
5.465

@<SCITEGIC>MOL_PROPERTY
Coulomb
SciTegic.value.DoubleValue
46.027

@<SCITEGIC>MOL_PROPERTY
VdW
SciTegic.value.DoubleValue
0.785

@<SCITEGIC>MOL_PROPERTY
VdW6
SciTegic.value.DoubleValue
-9.375

@<SCITEGIC>MOL_PROPERTY
VdW12
SciTegic.value.DoubleValue
10.160

@<SCITEGIC>MOL_PROPERTY
Bond
SciTegic.value.DoubleValue
0.251

@<SCITEGIC>MOL_PROPERTY
Angle
SciTegic.value.DoubleValue
1.379

@<SCITEGIC>MOL_PROPERTY
Pdih
SciTegic.value.DoubleValue
3.835

@<SCITEGIC>MOL_PROPERTY
Idih
SciTegic.value.DoubleValue
0.000

@<SCITEGIC>MOL_PROPERTY
Tether
SciTegic.value.DoubleValue
0.000

@<TRIPOS>MOLECULE
guest-3_vm2.mol2 : vm2 ligand conformer 237
          29          28           1
SMALL
USER_CHARGES
 
@<TRIPOS>ATOM
       1    C1      20.854926   18.479928   19.909928 C.3        1 MOL1        -0.2427
       2    H1      20.361425   18.983521   19.068449 H          1 MOL1         0.0958
       3    H2      21.784479   19.019387   20.133889 H          1 MOL1         0.0958
       4    H3      21.123191   17.466192   19.585259 H          1 MOL1         0.0958
       5    C2      19.931768   18.429846   21.145731 C.3        1 MOL1        -0.1412
       6    H4      20.443117   17.884484   21.949862 H          1 MOL1         0.0947
       7    H5      19.024888   17.859865   20.900023 H          1 MOL1         0.0947
       8    C3      19.543257   19.848607   21.624427 C.3        1 MOL1        -0.1437
       9    H6      20.446447   20.400435   21.919228 H          1 MOL1         0.0947
      10    H7      19.105792   20.401881   20.781919 H          1 MOL1         0.0947
      11    C4      18.527531   19.852224   22.793182 C.3        1 MOL1        -0.1437
      12    H8      17.617098   19.317149   22.489725 H          1 MOL1         0.0947
      13    H9      18.224945   20.890514   22.987594 H          1 MOL1         0.0947
      14    C5      19.085265   19.237402   24.099154 C.3        1 MOL1        -0.1437
      15    H10     19.311303   18.174343   23.944351 H          1 MOL1         0.0947
      16    H11     20.025364   19.742685   24.352136 H          1 MOL1         0.0947
      17    C6      18.083313   19.379585   25.269188 C.3        1 MOL1        -0.1437
      18    H12     17.101698   19.008401   24.943469 H          1 MOL1         0.0947
      19    H13     17.945047   20.443556   25.506417 H          1 MOL1         0.0947
      20    C7      18.485856   18.613021   26.554952 C.3        1 MOL1        -0.1477
      21    H14     17.668398   18.720297   27.280279 H          1 MOL1         0.0947
      22    H15     18.566955   17.537375   26.349321 H          1 MOL1         0.0947
      23    C8      19.778651   19.121748   27.225675 C.3        1 MOL1         0.0145
      24    H16     19.776571   18.820690   28.276786 H          1 MOL1         0.0921
      25    H17     19.812870   20.213765   27.185585 H          1 MOL1         0.0921
      26    N1      21.053434   18.575638   26.612761 N.4        1 MOL1        -0.5969
      27    H18     21.888394   18.939698   27.084983 H          1 MOL1         0.3603
      28    H19     21.133699   18.821727   25.622102 H          1 MOL1         0.3603
      29    H20     21.096224   17.553132   26.675954 H          1 MOL1         0.3603
@<TRIPOS>BOND
    1     1     2    1
    2     1     3    1
    3     1     4    1
    4     1     5    1
    5     5     6    1
    6     5     7    1
    7     5     8    1
    8     8     9    1
    9     8    10    1
   10     8    11    1
   11    11    12    1
   12    11    13    1
   13    11    14    1
   14    14    15    1
   15    14    16    1
   16    14    17    1
   17    17    18    1
   18    17    19    1
   19    17    20    1
   20    20    21    1
   21    20    22    1
   22    20    23    1
   23    23    24    1
   24    23    25    1
   25    23    26    1
   26    26    27    1
   27    26    28    1
   28    26    29    1
@<TRIPOS>SUBSTRUCTURE
       1 MOL1            1 RESIDUE      1      MOL     
@<SCITEGIC>MOL_PROPERTY
VM2 Rank
SciTegic.value.IntegerValue
237

@<SCITEGIC>MOL_PROPERTY
Conf_Id
SciTegic.value.IntegerValue
2287

@<SCITEGIC>MOL_PROPERTY
Probability
SciTegic.value.DoubleValue
0.01

@<SCITEGIC>MOL_PROPERTY
Sum Probability
SciTegic.value.DoubleValue
99.13

@<SCITEGIC>MOL_PROPERTY
Delta G
SciTegic.value.DoubleValue
3.553

@<SCITEGIC>MOL_PROPERTY
G
SciTegic.value.DoubleValue
61.700

@<SCITEGIC>MOL_PROPERTY
E
SciTegic.value.DoubleValue
24.245

@<SCITEGIC>MOL_PROPERTY
-TS
SciTegic.value.DoubleValue
37.454

@<SCITEGIC>MOL_PROPERTY
U+W
SciTegic.value.DoubleValue
0.101

@<SCITEGIC>MOL_PROPERTY
U
SciTegic.value.DoubleValue
52.272

@<SCITEGIC>MOL_PROPERTY
W
SciTegic.value.DoubleValue
-52.171

@<SCITEGIC>MOL_PROPERTY
W(PB)
SciTegic.value.DoubleValue
-54.657

@<SCITEGIC>MOL_PROPERTY
W(SA)
SciTegic.value.DoubleValue
2.486

@<SCITEGIC>MOL_PROPERTY
Valence
SciTegic.value.DoubleValue
4.707

@<SCITEGIC>MOL_PROPERTY
Coulomb
SciTegic.value.DoubleValue
46.778

@<SCITEGIC>MOL_PROPERTY
VdW
SciTegic.value.DoubleValue
0.786

@<SCITEGIC>MOL_PROPERTY
VdW6
SciTegic.value.DoubleValue
-9.145

@<SCITEGIC>MOL_PROPERTY
VdW12
SciTegic.value.DoubleValue
9.932

@<SCITEGIC>MOL_PROPERTY
Bond
SciTegic.value.DoubleValue
0.241

@<SCITEGIC>MOL_PROPERTY
Angle
SciTegic.value.DoubleValue
1.214

@<SCITEGIC>MOL_PROPERTY
Pdih
SciTegic.value.DoubleValue
3.252

@<SCITEGIC>MOL_PROPERTY
Idih
SciTegic.value.DoubleValue
0.000

@<SCITEGIC>MOL_PROPERTY
Tether
SciTegic.value.DoubleValue
0.000

@<TRIPOS>MOLECULE
guest-3_vm2.mol2 : vm2 ligand conformer 238
          29          28           1
SMALL
USER_CHARGES
 
@<TRIPOS>ATOM
       1    C1      21.271619   18.899924   20.578606 C.3        1 MOL1        -0.2427
       2    H1      21.944908   18.338323   21.239296 H          1 MOL1         0.0958
       3    H2      20.751307   18.182524   19.930648 H          1 MOL1         0.0958
       4    H3      21.887714   19.545957   19.939789 H          1 MOL1         0.0958
       5    C2      20.266688   19.739789   21.394929 C.3        1 MOL1        -0.1412
       6    H4      19.630822   20.316296   20.708516 H          1 MOL1         0.0947
       7    H5      20.814609   20.469092   22.007905 H          1 MOL1         0.0947
       8    C3      19.385675   18.853551   22.302426 C.3        1 MOL1        -0.1437
       9    H6      18.836317   18.129084   21.685613 H          1 MOL1         0.0947
      10    H7      20.032273   18.272372   22.971601 H          1 MOL1         0.0947
      11    C4      18.381012   19.695625   23.125130 C.3        1 MOL1        -0.1437
      12    H8      17.761002   20.280353   22.431662 H          1 MOL1         0.0947
      13    H9      18.912311   20.433367   23.739115 H          1 MOL1         0.0947
      14    C5      17.440425   18.844382   24.014373 C.3        1 MOL1        -0.1437
      15    H10     16.725619   19.515362   24.510349 H          1 MOL1         0.0947
      16    H11     16.836342   18.196023   23.364807 H          1 MOL1         0.0947
      17    C6      18.125638   17.960804   25.092079 C.3        1 MOL1        -0.1437
      18    H12     18.761651   17.198316   24.623058 H          1 MOL1         0.0947
      19    H13     17.332448   17.400676   25.606323 H          1 MOL1         0.0947
      20    C7      18.926304   18.742466   26.164424 C.3        1 MOL1        -0.1477
      21    H14     18.408694   19.678492   26.412805 H          1 MOL1         0.0947
      22    H15     18.947740   18.146285   27.086420 H          1 MOL1         0.0947
      23    C8      20.381719   19.030934   25.749036 C.3        1 MOL1         0.0145
      24    H16     20.403582   19.634748   24.840056 H          1 MOL1         0.0921
      25    H17     20.897774   18.088796   25.545721 H          1 MOL1         0.0921
      26    N1      21.164920   19.770525   26.813997 N.4        1 MOL1        -0.5969
      27    H18     20.745445   20.679957   27.033773 H          1 MOL1         0.3603
      28    H19     22.131675   19.949549   26.520989 H          1 MOL1         0.3603
      29    H20     21.211738   19.240180   27.690323 H          1 MOL1         0.3603
@<TRIPOS>BOND
    1     1     2    1
    2     1     3    1
    3     1     4    1
    4     1     5    1
    5     5     6    1
    6     5     7    1
    7     5     8    1
    8     8     9    1
    9     8    10    1
   10     8    11    1
   11    11    12    1
   12    11    13    1
   13    11    14    1
   14    14    15    1
   15    14    16    1
   16    14    17    1
   17    17    18    1
   18    17    19    1
   19    17    20    1
   20    20    21    1
   21    20    22    1
   22    20    23    1
   23    23    24    1
   24    23    25    1
   25    23    26    1
   26    26    27    1
   27    26    28    1
   28    26    29    1
@<TRIPOS>SUBSTRUCTURE
       1 MOL1            1 RESIDUE      1      MOL     
@<SCITEGIC>MOL_PROPERTY
VM2 Rank
SciTegic.value.IntegerValue
238

@<SCITEGIC>MOL_PROPERTY
Conf_Id
SciTegic.value.IntegerValue
1871

@<SCITEGIC>MOL_PROPERTY
Probability
SciTegic.value.DoubleValue
0.01

@<SCITEGIC>MOL_PROPERTY
Sum Probability
SciTegic.value.DoubleValue
99.14

@<SCITEGIC>MOL_PROPERTY
Delta G
SciTegic.value.DoubleValue
3.560

@<SCITEGIC>MOL_PROPERTY
G
SciTegic.value.DoubleValue
61.706

@<SCITEGIC>MOL_PROPERTY
E
SciTegic.value.DoubleValue
23.647

@<SCITEGIC>MOL_PROPERTY
-TS
SciTegic.value.DoubleValue
38.059

@<SCITEGIC>MOL_PROPERTY
U+W
SciTegic.value.DoubleValue
-0.497

@<SCITEGIC>MOL_PROPERTY
U
SciTegic.value.DoubleValue
52.109

@<SCITEGIC>MOL_PROPERTY
W
SciTegic.value.DoubleValue
-52.606

@<SCITEGIC>MOL_PROPERTY
W(PB)
SciTegic.value.DoubleValue
-55.079

@<SCITEGIC>MOL_PROPERTY
W(SA)
SciTegic.value.DoubleValue
2.473

@<SCITEGIC>MOL_PROPERTY
Valence
SciTegic.value.DoubleValue
5.483

@<SCITEGIC>MOL_PROPERTY
Coulomb
SciTegic.value.DoubleValue
46.296

@<SCITEGIC>MOL_PROPERTY
VdW
SciTegic.value.DoubleValue
0.329

@<SCITEGIC>MOL_PROPERTY
VdW6
SciTegic.value.DoubleValue
-10.093

@<SCITEGIC>MOL_PROPERTY
VdW12
SciTegic.value.DoubleValue
10.422

@<SCITEGIC>MOL_PROPERTY
Bond
SciTegic.value.DoubleValue
0.261

@<SCITEGIC>MOL_PROPERTY
Angle
SciTegic.value.DoubleValue
1.719

@<SCITEGIC>MOL_PROPERTY
Pdih
SciTegic.value.DoubleValue
3.504

@<SCITEGIC>MOL_PROPERTY
Idih
SciTegic.value.DoubleValue
0.000

@<SCITEGIC>MOL_PROPERTY
Tether
SciTegic.value.DoubleValue
0.000

@<TRIPOS>MOLECULE
guest-3_vm2.mol2 : vm2 ligand conformer 239
          29          28           1
SMALL
USER_CHARGES
 
@<TRIPOS>ATOM
       1    C1      19.538412   17.440159   20.659222 C.3        1 MOL1        -0.2427
       2    H1      19.303764   16.940103   21.607048 H          1 MOL1         0.0958
       3    H2      18.594248   17.721998   20.175335 H          1 MOL1         0.0958
       4    H3      20.040230   16.706787   20.014814 H          1 MOL1         0.0958
       5    C2      20.441192   18.675415   20.877419 C.3        1 MOL1        -0.1412
       6    H4      20.748128   19.067410   19.897688 H          1 MOL1         0.0947
       7    H5      21.364591   18.372037   21.390260 H          1 MOL1         0.0947
       8    C3      19.749922   19.809784   21.671655 C.3        1 MOL1        -0.1437
       9    H6      20.419135   20.681077   21.689954 H          1 MOL1         0.0947
      10    H7      18.842042   20.127932   21.140857 H          1 MOL1         0.0947
      11    C4      19.394369   19.415315   23.125022 C.3        1 MOL1        -0.1437
      12    H8      20.299606   19.043692   23.621605 H          1 MOL1         0.0947
      13    H9      18.661467   18.598020   23.121275 H          1 MOL1         0.0947
      14    C5      18.819979   20.612103   23.918361 C.3        1 MOL1        -0.1437
      15    H10     19.596162   21.381703   24.030236 H          1 MOL1         0.0947
      16    H11     18.014069   21.074624   23.331864 H          1 MOL1         0.0947
      17    C6      18.251659   20.246515   25.314129 C.3        1 MOL1        -0.1437
      18    H12     17.400182   19.560148   25.207071 H          1 MOL1         0.0947
      19    H13     17.839530   21.164912   25.754725 H          1 MOL1         0.0947
      20    C7      19.285694   19.657604   26.306492 C.3        1 MOL1        -0.1477
      21    H14     20.259351   20.147275   26.171982 H          1 MOL1         0.0947
      22    H15     18.960064   19.890136   27.329181 H          1 MOL1         0.0947
      23    C8      19.433528   18.128117   26.188256 C.3        1 MOL1         0.0145
      24    H16     19.763347   17.855199   25.184215 H          1 MOL1         0.0921
      25    H17     18.466452   17.651951   26.370931 H          1 MOL1         0.0921
      26    N1      20.429244   17.552988   27.174445 N.4        1 MOL1        -0.5969
      27    H18     20.159846   17.745906   28.144839 H          1 MOL1         0.3603
      28    H19     21.368537   17.941288   27.039089 H          1 MOL1         0.3603
      29    H20     20.510442   16.534264   27.083869 H          1 MOL1         0.3603
@<TRIPOS>BOND
    1     1     2    1
    2     1     3    1
    3     1     4    1
    4     1     5    1
    5     5     6    1
    6     5     7    1
    7     5     8    1
    8     8     9    1
    9     8    10    1
   10     8    11    1
   11    11    12    1
   12    11    13    1
   13    11    14    1
   14    14    15    1
   15    14    16    1
   16    14    17    1
   17    17    18    1
   18    17    19    1
   19    17    20    1
   20    20    21    1
   21    20    22    1
   22    20    23    1
   23    23    24    1
   24    23    25    1
   25    23    26    1
   26    26    27    1
   27    26    28    1
   28    26    29    1
@<TRIPOS>SUBSTRUCTURE
       1 MOL1            1 RESIDUE      1      MOL     
@<SCITEGIC>MOL_PROPERTY
VM2 Rank
SciTegic.value.IntegerValue
239

@<SCITEGIC>MOL_PROPERTY
Conf_Id
SciTegic.value.IntegerValue
1187

@<SCITEGIC>MOL_PROPERTY
Probability
SciTegic.value.DoubleValue
0.01

@<SCITEGIC>MOL_PROPERTY
Sum Probability
SciTegic.value.DoubleValue
99.15

@<SCITEGIC>MOL_PROPERTY
Delta G
SciTegic.value.DoubleValue
3.562

@<SCITEGIC>MOL_PROPERTY
G
SciTegic.value.DoubleValue
61.708

@<SCITEGIC>MOL_PROPERTY
E
SciTegic.value.DoubleValue
24.064

@<SCITEGIC>MOL_PROPERTY
-TS
SciTegic.value.DoubleValue
37.645

@<SCITEGIC>MOL_PROPERTY
U+W
SciTegic.value.DoubleValue
-0.081

@<SCITEGIC>MOL_PROPERTY
U
SciTegic.value.DoubleValue
52.128

@<SCITEGIC>MOL_PROPERTY
W
SciTegic.value.DoubleValue
-52.209

@<SCITEGIC>MOL_PROPERTY
W(PB)
SciTegic.value.DoubleValue
-54.718

@<SCITEGIC>MOL_PROPERTY
W(SA)
SciTegic.value.DoubleValue
2.510

@<SCITEGIC>MOL_PROPERTY
Valence
SciTegic.value.DoubleValue
5.466

@<SCITEGIC>MOL_PROPERTY
Coulomb
SciTegic.value.DoubleValue
45.872

@<SCITEGIC>MOL_PROPERTY
VdW
SciTegic.value.DoubleValue
0.790

@<SCITEGIC>MOL_PROPERTY
VdW6
SciTegic.value.DoubleValue
-9.336

@<SCITEGIC>MOL_PROPERTY
VdW12
SciTegic.value.DoubleValue
10.125

@<SCITEGIC>MOL_PROPERTY
Bond
SciTegic.value.DoubleValue
0.248

@<SCITEGIC>MOL_PROPERTY
Angle
SciTegic.value.DoubleValue
1.379

@<SCITEGIC>MOL_PROPERTY
Pdih
SciTegic.value.DoubleValue
3.839

@<SCITEGIC>MOL_PROPERTY
Idih
SciTegic.value.DoubleValue
0.000

@<SCITEGIC>MOL_PROPERTY
Tether
SciTegic.value.DoubleValue
0.000

@<TRIPOS>MOLECULE
guest-3_vm2.mol2 : vm2 ligand conformer 240
          29          28           1
SMALL
USER_CHARGES
 
@<TRIPOS>ATOM
       1    C1      19.962716   18.544518   19.360598 C.3        1 MOL1        -0.2427
       2    H1      21.050322   18.415375   19.435976 H          1 MOL1         0.0958
       3    H2      19.493062   17.557723   19.465013 H          1 MOL1         0.0958
       4    H3      19.736827   18.920515   18.354297 H          1 MOL1         0.0958
       5    C2      19.444537   19.522151   20.436557 C.3        1 MOL1        -0.1412
       6    H4      18.360492   19.656640   20.315468 H          1 MOL1         0.0947
       7    H5      19.905431   20.508253   20.284752 H          1 MOL1         0.0947
       8    C3      19.750577   19.016626   21.863808 C.3        1 MOL1        -0.1437
       9    H6      19.293790   18.027690   21.997063 H          1 MOL1         0.0947
      10    H7      20.835254   18.886041   21.980342 H          1 MOL1         0.0947
      11    C4      19.227869   19.995289   22.943194 C.3        1 MOL1        -0.1437
      12    H8      18.135537   20.085868   22.866308 H          1 MOL1         0.0947
      13    H9      19.634646   20.995680   22.740385 H          1 MOL1         0.0947
      14    C5      19.616208   19.595351   24.388109 C.3        1 MOL1        -0.1437
      15    H10     20.706127   19.473861   24.455256 H          1 MOL1         0.0947
      16    H11     19.347813   20.431099   25.045399 H          1 MOL1         0.0947
      17    C6      18.908766   18.309894   24.886008 C.3        1 MOL1        -0.1437
      18    H12     19.096855   17.490739   24.180841 H          1 MOL1         0.0947
      19    H13     17.821584   18.468752   24.888649 H          1 MOL1         0.0947
      20    C7      19.362558   17.832613   26.289399 C.3        1 MOL1        -0.1477
      21    H14     18.856398   16.881132   26.500004 H          1 MOL1         0.0947
      22    H15     20.437405   17.607701   26.287582 H          1 MOL1         0.0947
      23    C8      19.027648   18.805821   27.438625 C.3        1 MOL1         0.0145
      24    H16     18.988155   18.247218   28.377708 H          1 MOL1         0.0921
      25    H17     18.045758   19.256153   27.270181 H          1 MOL1         0.0921
      26    N1      20.043120   19.915737   27.628702 N.4        1 MOL1        -0.5969
      27    H18     20.137278   20.492900   26.788215 H          1 MOL1         0.3603
      28    H19     20.973679   19.544529   27.846888 H          1 MOL1         0.3603
      29    H20     19.782716   20.541468   28.398969 H          1 MOL1         0.3603
@<TRIPOS>BOND
    1     1     2    1
    2     1     3    1
    3     1     4    1
    4     1     5    1
    5     5     6    1
    6     5     7    1
    7     5     8    1
    8     8     9    1
    9     8    10    1
   10     8    11    1
   11    11    12    1
   12    11    13    1
   13    11    14    1
   14    14    15    1
   15    14    16    1
   16    14    17    1
   17    17    18    1
   18    17    19    1
   19    17    20    1
   20    20    21    1
   21    20    22    1
   22    20    23    1
   23    23    24    1
   24    23    25    1
   25    23    26    1
   26    26    27    1
   27    26    28    1
   28    26    29    1
@<TRIPOS>SUBSTRUCTURE
       1 MOL1            1 RESIDUE      1      MOL     
@<SCITEGIC>MOL_PROPERTY
VM2 Rank
SciTegic.value.IntegerValue
240

@<SCITEGIC>MOL_PROPERTY
Conf_Id
SciTegic.value.IntegerValue
1542

@<SCITEGIC>MOL_PROPERTY
Probability
SciTegic.value.DoubleValue
0.01

@<SCITEGIC>MOL_PROPERTY
Sum Probability
SciTegic.value.DoubleValue
99.16

@<SCITEGIC>MOL_PROPERTY
Delta G
SciTegic.value.DoubleValue
3.587

@<SCITEGIC>MOL_PROPERTY
G
SciTegic.value.DoubleValue
61.733

@<SCITEGIC>MOL_PROPERTY
E
SciTegic.value.DoubleValue
24.390

@<SCITEGIC>MOL_PROPERTY
-TS
SciTegic.value.DoubleValue
37.343

@<SCITEGIC>MOL_PROPERTY
U+W
SciTegic.value.DoubleValue
0.246

@<SCITEGIC>MOL_PROPERTY
U
SciTegic.value.DoubleValue
51.996

@<SCITEGIC>MOL_PROPERTY
W
SciTegic.value.DoubleValue
-51.750

@<SCITEGIC>MOL_PROPERTY
W(PB)
SciTegic.value.DoubleValue
-54.268

@<SCITEGIC>MOL_PROPERTY
W(SA)
SciTegic.value.DoubleValue
2.518

@<SCITEGIC>MOL_PROPERTY
Valence
SciTegic.value.DoubleValue
4.866

@<SCITEGIC>MOL_PROPERTY
Coulomb
SciTegic.value.DoubleValue
46.253

@<SCITEGIC>MOL_PROPERTY
VdW
SciTegic.value.DoubleValue
0.877

@<SCITEGIC>MOL_PROPERTY
VdW6
SciTegic.value.DoubleValue
-9.001

@<SCITEGIC>MOL_PROPERTY
VdW12
SciTegic.value.DoubleValue
9.878

@<SCITEGIC>MOL_PROPERTY
Bond
SciTegic.value.DoubleValue
0.252

@<SCITEGIC>MOL_PROPERTY
Angle
SciTegic.value.DoubleValue
1.290

@<SCITEGIC>MOL_PROPERTY
Pdih
SciTegic.value.DoubleValue
3.324

@<SCITEGIC>MOL_PROPERTY
Idih
SciTegic.value.DoubleValue
0.000

@<SCITEGIC>MOL_PROPERTY
Tether
SciTegic.value.DoubleValue
0.000

@<TRIPOS>MOLECULE
guest-3_vm2.mol2 : vm2 ligand conformer 241
          29          28           1
SMALL
USER_CHARGES
 
@<TRIPOS>ATOM
       1    C1      20.481091   20.158955   20.671710 C.3        1 MOL1        -0.2427
       2    H1      21.392010   19.595223   20.911060 H          1 MOL1         0.0958
       3    H2      20.723368   20.862412   19.864673 H          1 MOL1         0.0958
       4    H3      20.195812   20.752741   21.548824 H          1 MOL1         0.0958
       5    C2      19.338756   19.214388   20.239011 C.3        1 MOL1        -0.1412
       6    H4      19.598237   18.769782   19.268078 H          1 MOL1         0.0947
       7    H5      18.425056   19.801247   20.070383 H          1 MOL1         0.0947
       8    C3      19.042950   18.068924   21.240509 C.3        1 MOL1        -0.1437
       9    H6      18.254354   17.442200   20.801552 H          1 MOL1         0.0947
      10    H7      19.920877   17.415445   21.336827 H          1 MOL1         0.0947
      11    C4      18.564251   18.537722   22.639264 C.3        1 MOL1        -0.1437
      12    H8      17.822534   17.817670   23.011714 H          1 MOL1         0.0947
      13    H9      18.038694   19.498812   22.554502 H          1 MOL1         0.0947
      14    C5      19.706082   18.635581   23.680347 C.3        1 MOL1        -0.1437
      15    H10     20.180362   17.650942   23.793383 H          1 MOL1         0.0947
      16    H11     20.487089   19.319651   23.328100 H          1 MOL1         0.0947
      17    C6      19.188482   19.116087   25.054768 C.3        1 MOL1        -0.1437
      18    H12     18.410735   18.426821   25.409732 H          1 MOL1         0.0947
      19    H13     18.715329   20.101696   24.943806 H          1 MOL1         0.0947
      20    C7      20.327510   19.206445   26.097599 C.3        1 MOL1        -0.1477
      21    H14     20.787583   18.219373   26.239038 H          1 MOL1         0.0947
      22    H15     21.116830   19.868675   25.717606 H          1 MOL1         0.0947
      23    C8      19.847801   19.750024   27.457124 C.3        1 MOL1         0.0145
      24    H16     19.383617   20.730209   27.318697 H          1 MOL1         0.0921
      25    H17     20.706430   19.870028   28.123381 H          1 MOL1         0.0921
      26    N1      18.847077   18.849875   28.154669 N.4        1 MOL1        -0.5969
      27    H18     17.997310   18.723290   27.595991 H          1 MOL1         0.3603
      28    H19     18.556919   19.233426   29.060923 H          1 MOL1         0.3603
      29    H20     19.234277   17.917503   28.333713 H          1 MOL1         0.3603
@<TRIPOS>BOND
    1     1     2    1
    2     1     3    1
    3     1     4    1
    4     1     5    1
    5     5     6    1
    6     5     7    1
    7     5     8    1
    8     8     9    1
    9     8    10    1
   10     8    11    1
   11    11    12    1
   12    11    13    1
   13    11    14    1
   14    14    15    1
   15    14    16    1
   16    14    17    1
   17    17    18    1
   18    17    19    1
   19    17    20    1
   20    20    21    1
   21    20    22    1
   22    20    23    1
   23    23    24    1
   24    23    25    1
   25    23    26    1
   26    26    27    1
   27    26    28    1
   28    26    29    1
@<TRIPOS>SUBSTRUCTURE
       1 MOL1            1 RESIDUE      1      MOL     
@<SCITEGIC>MOL_PROPERTY
VM2 Rank
SciTegic.value.IntegerValue
241

@<SCITEGIC>MOL_PROPERTY
Conf_Id
SciTegic.value.IntegerValue
2883

@<SCITEGIC>MOL_PROPERTY
Probability
SciTegic.value.DoubleValue
0.01

@<SCITEGIC>MOL_PROPERTY
Sum Probability
SciTegic.value.DoubleValue
99.18

@<SCITEGIC>MOL_PROPERTY
Delta G
SciTegic.value.DoubleValue
3.597

@<SCITEGIC>MOL_PROPERTY
G
SciTegic.value.DoubleValue
61.743

@<SCITEGIC>MOL_PROPERTY
E
SciTegic.value.DoubleValue
24.100

@<SCITEGIC>MOL_PROPERTY
-TS
SciTegic.value.DoubleValue
37.643

@<SCITEGIC>MOL_PROPERTY
U+W
SciTegic.value.DoubleValue
-0.045

@<SCITEGIC>MOL_PROPERTY
U
SciTegic.value.DoubleValue
51.589

@<SCITEGIC>MOL_PROPERTY
W
SciTegic.value.DoubleValue
-51.634

@<SCITEGIC>MOL_PROPERTY
W(PB)
SciTegic.value.DoubleValue
-54.120

@<SCITEGIC>MOL_PROPERTY
W(SA)
SciTegic.value.DoubleValue
2.486

@<SCITEGIC>MOL_PROPERTY
Valence
SciTegic.value.DoubleValue
5.652

@<SCITEGIC>MOL_PROPERTY
Coulomb
SciTegic.value.DoubleValue
44.997

@<SCITEGIC>MOL_PROPERTY
VdW
SciTegic.value.DoubleValue
0.940

@<SCITEGIC>MOL_PROPERTY
VdW6
SciTegic.value.DoubleValue
-9.012

@<SCITEGIC>MOL_PROPERTY
VdW12
SciTegic.value.DoubleValue
9.952

@<SCITEGIC>MOL_PROPERTY
Bond
SciTegic.value.DoubleValue
0.249

@<SCITEGIC>MOL_PROPERTY
Angle
SciTegic.value.DoubleValue
1.190

@<SCITEGIC>MOL_PROPERTY
Pdih
SciTegic.value.DoubleValue
4.213

@<SCITEGIC>MOL_PROPERTY
Idih
SciTegic.value.DoubleValue
0.000

@<SCITEGIC>MOL_PROPERTY
Tether
SciTegic.value.DoubleValue
0.000

@<TRIPOS>MOLECULE
guest-3_vm2.mol2 : vm2 ligand conformer 242
          29          28           1
SMALL
USER_CHARGES
 
@<TRIPOS>ATOM
       1    C1      20.721710   18.032515   20.116503 C.3        1 MOL1        -0.2427
       2    H1      21.476245   17.577680   20.771505 H          1 MOL1         0.0958
       3    H2      20.513656   17.327205   19.301464 H          1 MOL1         0.0958
       4    H3      21.154245   18.939810   19.674942 H          1 MOL1         0.0958
       5    C2      19.431451   18.357280   20.898566 C.3        1 MOL1        -0.1412
       6    H4      19.004784   17.427366   21.299900 H          1 MOL1         0.0947
       7    H5      18.684476   18.778182   20.211000 H          1 MOL1         0.0947
       8    C3      19.696443   19.349361   22.052353 C.3        1 MOL1        -0.1437
       9    H6      20.453025   18.927216   22.723961 H          1 MOL1         0.0947
      10    H7      20.122829   20.276107   21.644237 H          1 MOL1         0.0947
      11    C4      18.401136   19.681033   22.833131 C.3        1 MOL1        -0.1437
      12    H8      17.926558   18.759996   23.198582 H          1 MOL1         0.0947
      13    H9      17.686066   20.132523   22.131514 H          1 MOL1         0.0947
      14    C5      18.623652   20.668235   24.008478 C.3        1 MOL1        -0.1437
      15    H10     19.468509   21.336277   23.791438 H          1 MOL1         0.0947
      16    H11     17.742032   21.320394   24.078194 H          1 MOL1         0.0947
      17    C6      18.815805   19.995891   25.392319 C.3        1 MOL1        -0.1437
      18    H12     17.916285   19.415475   25.637504 H          1 MOL1         0.0947
      19    H13     18.887944   20.786397   26.152221 H          1 MOL1         0.0947
      20    C7      20.066281   19.089425   25.492200 C.3        1 MOL1        -0.1477
      21    H14     19.949116   18.209909   24.846731 H          1 MOL1         0.0947
      22    H15     20.945578   19.638925   25.130959 H          1 MOL1         0.0947
      23    C8      20.342055   18.619478   26.933242 C.3        1 MOL1         0.0145
      24    H16     20.460966   19.487629   27.587113 H          1 MOL1         0.0921
      25    H17     21.271911   18.044717   26.956427 H          1 MOL1         0.0921
      26    N1      19.245467   17.744782   27.508207 N.4        1 MOL1        -0.5969
      27    H18     18.348201   18.238506   27.545971 H          1 MOL1         0.3603
      28    H19     19.462352   17.441224   28.463907 H          1 MOL1         0.3603
      29    H20     19.102419   16.897254   26.949289 H          1 MOL1         0.3603
@<TRIPOS>BOND
    1     1     2    1
    2     1     3    1
    3     1     4    1
    4     1     5    1
    5     5     6    1
    6     5     7    1
    7     5     8    1
    8     8     9    1
    9     8    10    1
   10     8    11    1
   11    11    12    1
   12    11    13    1
   13    11    14    1
   14    14    15    1
   15    14    16    1
   16    14    17    1
   17    17    18    1
   18    17    19    1
   19    17    20    1
   20    20    21    1
   21    20    22    1
   22    20    23    1
   23    23    24    1
   24    23    25    1
   25    23    26    1
   26    26    27    1
   27    26    28    1
   28    26    29    1
@<TRIPOS>SUBSTRUCTURE
       1 MOL1            1 RESIDUE      1      MOL     
@<SCITEGIC>MOL_PROPERTY
VM2 Rank
SciTegic.value.IntegerValue
242

@<SCITEGIC>MOL_PROPERTY
Conf_Id
SciTegic.value.IntegerValue
1665

@<SCITEGIC>MOL_PROPERTY
Probability
SciTegic.value.DoubleValue
0.01

@<SCITEGIC>MOL_PROPERTY
Sum Probability
SciTegic.value.DoubleValue
99.19

@<SCITEGIC>MOL_PROPERTY
Delta G
SciTegic.value.DoubleValue
3.607

@<SCITEGIC>MOL_PROPERTY
G
SciTegic.value.DoubleValue
61.753

@<SCITEGIC>MOL_PROPERTY
E
SciTegic.value.DoubleValue
24.080

@<SCITEGIC>MOL_PROPERTY
-TS
SciTegic.value.DoubleValue
37.673

@<SCITEGIC>MOL_PROPERTY
U+W
SciTegic.value.DoubleValue
-0.065

@<SCITEGIC>MOL_PROPERTY
U
SciTegic.value.DoubleValue
52.009

@<SCITEGIC>MOL_PROPERTY
W
SciTegic.value.DoubleValue
-52.074

@<SCITEGIC>MOL_PROPERTY
W(PB)
SciTegic.value.DoubleValue
-54.555

@<SCITEGIC>MOL_PROPERTY
W(SA)
SciTegic.value.DoubleValue
2.480

@<SCITEGIC>MOL_PROPERTY
Valence
SciTegic.value.DoubleValue
5.695

@<SCITEGIC>MOL_PROPERTY
Coulomb
SciTegic.value.DoubleValue
45.464

@<SCITEGIC>MOL_PROPERTY
VdW
SciTegic.value.DoubleValue
0.850

@<SCITEGIC>MOL_PROPERTY
VdW6
SciTegic.value.DoubleValue
-9.160

@<SCITEGIC>MOL_PROPERTY
VdW12
SciTegic.value.DoubleValue
10.010

@<SCITEGIC>MOL_PROPERTY
Bond
SciTegic.value.DoubleValue
0.252

@<SCITEGIC>MOL_PROPERTY
Angle
SciTegic.value.DoubleValue
1.178

@<SCITEGIC>MOL_PROPERTY
Pdih
SciTegic.value.DoubleValue
4.265

@<SCITEGIC>MOL_PROPERTY
Idih
SciTegic.value.DoubleValue
0.000

@<SCITEGIC>MOL_PROPERTY
Tether
SciTegic.value.DoubleValue
0.000

@<TRIPOS>MOLECULE
guest-3_vm2.mol2 : vm2 ligand conformer 243
          29          28           1
SMALL
USER_CHARGES
 
@<TRIPOS>ATOM
       1    C1      21.145642   19.222481   20.143187 C.3        1 MOL1        -0.2427
       2    H1      21.441586   19.932147   19.359714 H          1 MOL1         0.0958
       3    H2      22.008486   19.071924   20.805049 H          1 MOL1         0.0958
       4    H3      20.913849   18.264321   19.660022 H          1 MOL1         0.0958
       5    C2      19.929438   19.755378   20.929782 C.3        1 MOL1        -0.1412
       6    H4      19.094363   19.928731   20.236619 H          1 MOL1         0.0947
       7    H5      20.180641   20.728921   21.373591 H          1 MOL1         0.0947
       8    C3      19.491603   18.774339   22.039525 C.3        1 MOL1        -0.1437
       9    H6      19.242210   17.803717   21.589061 H          1 MOL1         0.0947
      10    H7      20.335158   18.596448   22.716614 H          1 MOL1         0.0947
      11    C4      18.267205   19.305186   22.824696 C.3        1 MOL1        -0.1437
      12    H8      17.437697   19.435294   22.115878 H          1 MOL1         0.0947
      13    H9      18.476241   20.303545   23.232954 H          1 MOL1         0.0947
      14    C5      17.799241   18.353941   23.956803 C.3        1 MOL1        -0.1437
      15    H10     16.702977   18.403543   24.013106 H          1 MOL1         0.0947
      16    H11     18.034798   17.311566   23.701583 H          1 MOL1         0.0947
      17    C6      18.353538   18.698119   25.363319 C.3        1 MOL1        -0.1437
      18    H12     17.899221   18.010556   26.090237 H          1 MOL1         0.0947
      19    H13     18.019800   19.706079   25.643985 H          1 MOL1         0.0947
      20    C7      19.893950   18.605635   25.481319 C.3        1 MOL1        -0.1477
      21    H14     20.233212   17.639029   25.086117 H          1 MOL1         0.0947
      22    H15     20.367995   19.386091   24.872976 H          1 MOL1         0.0947
      23    C8      20.384332   18.737913   26.935806 C.3        1 MOL1         0.0145
      24    H16     21.467779   18.594419   26.968547 H          1 MOL1         0.0921
      25    H17     19.918783   17.964761   27.552955 H          1 MOL1         0.0921
      26    N1      20.079051   20.085009   27.560564 N.4        1 MOL1        -0.5969
      27    H18     20.511488   20.853675   27.037776 H          1 MOL1         0.3603
      28    H19     20.425536   20.145004   28.524356 H          1 MOL1         0.3603
      29    H20     19.071201   20.268197   27.591512 H          1 MOL1         0.3603
@<TRIPOS>BOND
    1     1     2    1
    2     1     3    1
    3     1     4    1
    4     1     5    1
    5     5     6    1
    6     5     7    1
    7     5     8    1
    8     8     9    1
    9     8    10    1
   10     8    11    1
   11    11    12    1
   12    11    13    1
   13    11    14    1
   14    14    15    1
   15    14    16    1
   16    14    17    1
   17    17    18    1
   18    17    19    1
   19    17    20    1
   20    20    21    1
   21    20    22    1
   22    20    23    1
   23    23    24    1
   24    23    25    1
   25    23    26    1
   26    26    27    1
   27    26    28    1
   28    26    29    1
@<TRIPOS>SUBSTRUCTURE
       1 MOL1            1 RESIDUE      1      MOL     
@<SCITEGIC>MOL_PROPERTY
VM2 Rank
SciTegic.value.IntegerValue
243

@<SCITEGIC>MOL_PROPERTY
Conf_Id
SciTegic.value.IntegerValue
289

@<SCITEGIC>MOL_PROPERTY
Probability
SciTegic.value.DoubleValue
0.01

@<SCITEGIC>MOL_PROPERTY
Sum Probability
SciTegic.value.DoubleValue
99.20

@<SCITEGIC>MOL_PROPERTY
Delta G
SciTegic.value.DoubleValue
3.632

@<SCITEGIC>MOL_PROPERTY
G
SciTegic.value.DoubleValue
61.779

@<SCITEGIC>MOL_PROPERTY
E
SciTegic.value.DoubleValue
24.105

@<SCITEGIC>MOL_PROPERTY
-TS
SciTegic.value.DoubleValue
37.674

@<SCITEGIC>MOL_PROPERTY
U+W
SciTegic.value.DoubleValue
-0.040

@<SCITEGIC>MOL_PROPERTY
U
SciTegic.value.DoubleValue
52.009

@<SCITEGIC>MOL_PROPERTY
W
SciTegic.value.DoubleValue
-52.049

@<SCITEGIC>MOL_PROPERTY
W(PB)
SciTegic.value.DoubleValue
-54.512

@<SCITEGIC>MOL_PROPERTY
W(SA)
SciTegic.value.DoubleValue
2.463

@<SCITEGIC>MOL_PROPERTY
Valence
SciTegic.value.DoubleValue
5.695

@<SCITEGIC>MOL_PROPERTY
Coulomb
SciTegic.value.DoubleValue
45.464

@<SCITEGIC>MOL_PROPERTY
VdW
SciTegic.value.DoubleValue
0.850

@<SCITEGIC>MOL_PROPERTY
VdW6
SciTegic.value.DoubleValue
-9.160

@<SCITEGIC>MOL_PROPERTY
VdW12
SciTegic.value.DoubleValue
10.010

@<SCITEGIC>MOL_PROPERTY
Bond
SciTegic.value.DoubleValue
0.252

@<SCITEGIC>MOL_PROPERTY
Angle
SciTegic.value.DoubleValue
1.178

@<SCITEGIC>MOL_PROPERTY
Pdih
SciTegic.value.DoubleValue
4.265

@<SCITEGIC>MOL_PROPERTY
Idih
SciTegic.value.DoubleValue
0.000

@<SCITEGIC>MOL_PROPERTY
Tether
SciTegic.value.DoubleValue
0.000

@<TRIPOS>MOLECULE
guest-3_vm2.mol2 : vm2 ligand conformer 244
          29          28           1
SMALL
USER_CHARGES
 
@<TRIPOS>ATOM
       1    C1      21.125359   19.307025   20.909812 C.3        1 MOL1        -0.2427
       2    H1      21.879612   19.705804   20.219210 H          1 MOL1         0.0958
       3    H2      21.243076   19.835549   21.863799 H          1 MOL1         0.0958
       4    H3      21.344218   18.243241   21.068939 H          1 MOL1         0.0958
       5    C2      19.707108   19.503734   20.331684 C.3        1 MOL1        -0.1412
       6    H4      19.686452   19.107076   19.307013 H          1 MOL1         0.0947
       7    H5      19.494514   20.578523   20.246147 H          1 MOL1         0.0947
       8    C3      18.583370   18.815283   21.147670 C.3        1 MOL1        -0.1437
       9    H6      17.637753   18.982955   20.613775 H          1 MOL1         0.0947
      10    H7      18.732046   17.726730   21.151289 H          1 MOL1         0.0947
      11    C4      18.418931   19.341390   22.597363 C.3        1 MOL1        -0.1437
      12    H8      17.350185   19.328664   22.852266 H          1 MOL1         0.0947
      13    H9      18.732157   20.392950   22.653714 H          1 MOL1         0.0947
      14    C5      19.175339   18.494289   23.649735 C.3        1 MOL1        -0.1437
      15    H10     18.806990   17.459693   23.616048 H          1 MOL1         0.0947
      16    H11     20.244595   18.452870   23.410982 H          1 MOL1         0.0947
      17    C6      18.993258   19.057847   25.076989 C.3        1 MOL1        -0.1437
      18    H12     17.923430   19.087586   25.326369 H          1 MOL1         0.0947
      19    H13     19.356458   20.093839   25.105027 H          1 MOL1         0.0947
      20    C7      19.744145   18.208634   26.129621 C.3        1 MOL1        -0.1477
      21    H14     19.401591   17.167083   26.068084 H          1 MOL1         0.0947
      22    H15     20.819605   18.198565   25.907630 H          1 MOL1         0.0947
      23    C8      19.520657   18.711107   27.568886 C.3        1 MOL1         0.0145
      24    H16     20.004107   18.026748   28.271360 H          1 MOL1         0.0921
      25    H17     18.450225   18.728035   27.790876 H          1 MOL1         0.0921
      26    N1      20.075833   20.098691   27.823240 N.4        1 MOL1        -0.5969
      27    H18     19.636540   20.799480   27.218134 H          1 MOL1         0.3603
      28    H19     21.086083   20.141257   27.653343 H          1 MOL1         0.3603
      29    H20     19.921565   20.398736   28.792146 H          1 MOL1         0.3603
@<TRIPOS>BOND
    1     1     2    1
    2     1     3    1
    3     1     4    1
    4     1     5    1
    5     5     6    1
    6     5     7    1
    7     5     8    1
    8     8     9    1
    9     8    10    1
   10     8    11    1
   11    11    12    1
   12    11    13    1
   13    11    14    1
   14    14    15    1
   15    14    16    1
   16    14    17    1
   17    17    18    1
   18    17    19    1
   19    17    20    1
   20    20    21    1
   21    20    22    1
   22    20    23    1
   23    23    24    1
   24    23    25    1
   25    23    26    1
   26    26    27    1
   27    26    28    1
   28    26    29    1
@<TRIPOS>SUBSTRUCTURE
       1 MOL1            1 RESIDUE      1      MOL     
@<SCITEGIC>MOL_PROPERTY
VM2 Rank
SciTegic.value.IntegerValue
244

@<SCITEGIC>MOL_PROPERTY
Conf_Id
SciTegic.value.IntegerValue
2931

@<SCITEGIC>MOL_PROPERTY
Probability
SciTegic.value.DoubleValue
0.01

@<SCITEGIC>MOL_PROPERTY
Sum Probability
SciTegic.value.DoubleValue
99.21

@<SCITEGIC>MOL_PROPERTY
Delta G
SciTegic.value.DoubleValue
3.652

@<SCITEGIC>MOL_PROPERTY
G
SciTegic.value.DoubleValue
61.799

@<SCITEGIC>MOL_PROPERTY
E
SciTegic.value.DoubleValue
24.157

@<SCITEGIC>MOL_PROPERTY
-TS
SciTegic.value.DoubleValue
37.642

@<SCITEGIC>MOL_PROPERTY
U+W
SciTegic.value.DoubleValue
0.012

@<SCITEGIC>MOL_PROPERTY
U
SciTegic.value.DoubleValue
51.733

@<SCITEGIC>MOL_PROPERTY
W
SciTegic.value.DoubleValue
-51.721

@<SCITEGIC>MOL_PROPERTY
W(PB)
SciTegic.value.DoubleValue
-54.199

@<SCITEGIC>MOL_PROPERTY
W(SA)
SciTegic.value.DoubleValue
2.477

@<SCITEGIC>MOL_PROPERTY
Valence
SciTegic.value.DoubleValue
5.652

@<SCITEGIC>MOL_PROPERTY
Coulomb
SciTegic.value.DoubleValue
45.148

@<SCITEGIC>MOL_PROPERTY
VdW
SciTegic.value.DoubleValue
0.934

@<SCITEGIC>MOL_PROPERTY
VdW6
SciTegic.value.DoubleValue
-9.018

@<SCITEGIC>MOL_PROPERTY
VdW12
SciTegic.value.DoubleValue
9.952

@<SCITEGIC>MOL_PROPERTY
Bond
SciTegic.value.DoubleValue
0.249

@<SCITEGIC>MOL_PROPERTY
Angle
SciTegic.value.DoubleValue
1.192

@<SCITEGIC>MOL_PROPERTY
Pdih
SciTegic.value.DoubleValue
4.211

@<SCITEGIC>MOL_PROPERTY
Idih
SciTegic.value.DoubleValue
0.000

@<SCITEGIC>MOL_PROPERTY
Tether
SciTegic.value.DoubleValue
0.000

@<TRIPOS>MOLECULE
guest-3_vm2.mol2 : vm2 ligand conformer 245
          29          28           1
SMALL
USER_CHARGES
 
@<TRIPOS>ATOM
       1    C1      19.126951   17.659563   20.175458 C.3        1 MOL1        -0.2427
       2    H1      18.689731   16.659666   20.294011 H          1 MOL1         0.0958
       3    H2      18.537593   18.197512   19.421478 H          1 MOL1         0.0958
       4    H3      20.147336   17.537843   19.789130 H          1 MOL1         0.0958
       5    C2      19.130359   18.415639   21.520917 C.3        1 MOL1        -0.1412
       6    H4      19.696578   17.827641   22.255167 H          1 MOL1         0.0947
       7    H5      18.100487   18.498882   21.894970 H          1 MOL1         0.0947
       8    C3      19.752794   19.823561   21.382065 C.3        1 MOL1        -0.1437
       9    H6      20.808539   19.728393   21.093021 H          1 MOL1         0.0947
      10    H7      19.256966   20.352676   20.556556 H          1 MOL1         0.0947
      11    C4      19.644651   20.701442   22.655624 C.3        1 MOL1        -0.1437
      12    H8      18.589330   20.893712   22.893164 H          1 MOL1         0.0947
      13    H9      20.077133   21.683000   22.417139 H          1 MOL1         0.0947
      14    C5      20.383092   20.137858   23.897625 C.3        1 MOL1        -0.1437
      15    H10     21.234387   19.519498   23.581243 H          1 MOL1         0.0947
      16    H11     20.812010   20.979879   24.458431 H          1 MOL1         0.0947
      17    C6      19.460816   19.342690   24.853974 C.3        1 MOL1        -0.1437
      18    H12     18.982661   18.511174   24.322776 H          1 MOL1         0.0947
      19    H13     18.652257   20.000040   25.200288 H          1 MOL1         0.0947
      20    C7      20.240446   18.788352   26.069561 C.3        1 MOL1        -0.1477
      21    H14     21.070208   18.162848   25.714331 H          1 MOL1         0.0947
      22    H15     20.690660   19.613864   26.636848 H          1 MOL1         0.0947
      23    C8      19.358151   17.941231   27.006513 C.3        1 MOL1         0.0145
      24    H16     19.978386   17.509125   27.796536 H          1 MOL1         0.0921
      25    H17     18.903356   17.121976   26.443159 H          1 MOL1         0.0921
      26    N1      18.246739   18.727664   27.673262 N.4        1 MOL1        -0.5969
      27    H18     18.613887   19.500536   28.238213 H          1 MOL1         0.3603
      28    H19     17.685970   18.138768   28.298822 H          1 MOL1         0.3603
      29    H20     17.603958   19.133113   26.985783 H          1 MOL1         0.3603
@<TRIPOS>BOND
    1     1     2    1
    2     1     3    1
    3     1     4    1
    4     1     5    1
    5     5     6    1
    6     5     7    1
    7     5     8    1
    8     8     9    1
    9     8    10    1
   10     8    11    1
   11    11    12    1
   12    11    13    1
   13    11    14    1
   14    14    15    1
   15    14    16    1
   16    14    17    1
   17    17    18    1
   18    17    19    1
   19    17    20    1
   20    20    21    1
   21    20    22    1
   22    20    23    1
   23    23    24    1
   24    23    25    1
   25    23    26    1
   26    26    27    1
   27    26    28    1
   28    26    29    1
@<TRIPOS>SUBSTRUCTURE
       1 MOL1            1 RESIDUE      1      MOL     
@<SCITEGIC>MOL_PROPERTY
VM2 Rank
SciTegic.value.IntegerValue
245

@<SCITEGIC>MOL_PROPERTY
Conf_Id
SciTegic.value.IntegerValue
284

@<SCITEGIC>MOL_PROPERTY
Probability
SciTegic.value.DoubleValue
0.01

@<SCITEGIC>MOL_PROPERTY
Sum Probability
SciTegic.value.DoubleValue
99.22

@<SCITEGIC>MOL_PROPERTY
Delta G
SciTegic.value.DoubleValue
3.672

@<SCITEGIC>MOL_PROPERTY
G
SciTegic.value.DoubleValue
61.818

@<SCITEGIC>MOL_PROPERTY
E
SciTegic.value.DoubleValue
24.149

@<SCITEGIC>MOL_PROPERTY
-TS
SciTegic.value.DoubleValue
37.669

@<SCITEGIC>MOL_PROPERTY
U+W
SciTegic.value.DoubleValue
0.005

@<SCITEGIC>MOL_PROPERTY
U
SciTegic.value.DoubleValue
52.020

@<SCITEGIC>MOL_PROPERTY
W
SciTegic.value.DoubleValue
-52.016

@<SCITEGIC>MOL_PROPERTY
W(PB)
SciTegic.value.DoubleValue
-54.501

@<SCITEGIC>MOL_PROPERTY
W(SA)
SciTegic.value.DoubleValue
2.485

@<SCITEGIC>MOL_PROPERTY
Valence
SciTegic.value.DoubleValue
5.715

@<SCITEGIC>MOL_PROPERTY
Coulomb
SciTegic.value.DoubleValue
45.417

@<SCITEGIC>MOL_PROPERTY
VdW
SciTegic.value.DoubleValue
0.888

@<SCITEGIC>MOL_PROPERTY
VdW6
SciTegic.value.DoubleValue
-9.127

@<SCITEGIC>MOL_PROPERTY
VdW12
SciTegic.value.DoubleValue
10.016

@<SCITEGIC>MOL_PROPERTY
Bond
SciTegic.value.DoubleValue
0.252

@<SCITEGIC>MOL_PROPERTY
Angle
SciTegic.value.DoubleValue
1.209

@<SCITEGIC>MOL_PROPERTY
Pdih
SciTegic.value.DoubleValue
4.254

@<SCITEGIC>MOL_PROPERTY
Idih
SciTegic.value.DoubleValue
0.000

@<SCITEGIC>MOL_PROPERTY
Tether
SciTegic.value.DoubleValue
0.000

@<TRIPOS>MOLECULE
guest-3_vm2.mol2 : vm2 ligand conformer 246
          29          28           1
SMALL
USER_CHARGES
 
@<TRIPOS>ATOM
       1    C1      20.143738   20.516976   20.239314 C.3        1 MOL1        -0.2427
       2    H1      19.357674   20.502486   19.473080 H          1 MOL1         0.0958
       3    H2      20.434531   21.562666   20.403577 H          1 MOL1         0.0958
       4    H3      21.017076   19.982216   19.843636 H          1 MOL1         0.0958
       5    C2      19.650105   19.875940   21.553591 C.3        1 MOL1        -0.1412
       6    H4      18.793866   20.446962   21.938650 H          1 MOL1         0.0947
       7    H5      20.450104   19.944600   22.302426 H          1 MOL1         0.0947
       8    C3      19.245563   18.398121   21.350257 C.3        1 MOL1        -0.1437
       9    H6      18.538713   18.334211   20.511477 H          1 MOL1         0.0947
      10    H7      20.128234   17.816607   21.050370 H          1 MOL1         0.0947
      11    C4      18.589346   17.736094   22.589379 C.3        1 MOL1        -0.1437
      12    H8      18.308162   16.712359   22.306053 H          1 MOL1         0.0947
      13    H9      17.646424   18.244205   22.833953 H          1 MOL1         0.0947
      14    C5      19.500139   17.656913   23.842244 C.3        1 MOL1        -0.1437
      15    H10     19.292859   16.711846   24.363165 H          1 MOL1         0.0947
      16    H11     20.555070   17.610544   23.538695 H          1 MOL1         0.0947
      17    C6      19.273904   18.817243   24.842213 C.3        1 MOL1        -0.1437
      18    H12     18.227005   18.805368   25.173382 H          1 MOL1         0.0947
      19    H13     19.436150   19.784098   24.351207 H          1 MOL1         0.0947
      20    C7      20.210968   18.705761   26.067872 C.3        1 MOL1        -0.1477
      21    H14     20.030225   17.759846   26.595657 H          1 MOL1         0.0947
      22    H15     21.254307   18.679776   25.726235 H          1 MOL1         0.0947
      23    C8      20.048988   19.881950   27.049849 C.3        1 MOL1         0.0145
      24    H16     20.222157   20.825748   26.525787 H          1 MOL1         0.0921
      25    H17     20.791391   19.793384   27.847680 H          1 MOL1         0.0921
      26    N1      18.681249   19.949002   27.700282 N.4        1 MOL1        -0.5969
      27    H18     17.936745   20.068364   27.006271 H          1 MOL1         0.3603
      28    H19     18.609763   20.734489   28.356397 H          1 MOL1         0.3603
      29    H20     18.469442   19.096441   28.229031 H          1 MOL1         0.3603
@<TRIPOS>BOND
    1     1     2    1
    2     1     3    1
    3     1     4    1
    4     1     5    1
    5     5     6    1
    6     5     7    1
    7     5     8    1
    8     8     9    1
    9     8    10    1
   10     8    11    1
   11    11    12    1
   12    11    13    1
   13    11    14    1
   14    14    15    1
   15    14    16    1
   16    14    17    1
   17    17    18    1
   18    17    19    1
   19    17    20    1
   20    20    21    1
   21    20    22    1
   22    20    23    1
   23    23    24    1
   24    23    25    1
   25    23    26    1
   26    26    27    1
   27    26    28    1
   28    26    29    1
@<TRIPOS>SUBSTRUCTURE
       1 MOL1            1 RESIDUE      1      MOL     
@<SCITEGIC>MOL_PROPERTY
VM2 Rank
SciTegic.value.IntegerValue
246

@<SCITEGIC>MOL_PROPERTY
Conf_Id
SciTegic.value.IntegerValue
1619

@<SCITEGIC>MOL_PROPERTY
Probability
SciTegic.value.DoubleValue
0.01

@<SCITEGIC>MOL_PROPERTY
Sum Probability
SciTegic.value.DoubleValue
99.24

@<SCITEGIC>MOL_PROPERTY
Delta G
SciTegic.value.DoubleValue
3.675

@<SCITEGIC>MOL_PROPERTY
G
SciTegic.value.DoubleValue
61.821

@<SCITEGIC>MOL_PROPERTY
E
SciTegic.value.DoubleValue
24.152

@<SCITEGIC>MOL_PROPERTY
-TS
SciTegic.value.DoubleValue
37.669

@<SCITEGIC>MOL_PROPERTY
U+W
SciTegic.value.DoubleValue
0.008

@<SCITEGIC>MOL_PROPERTY
U
SciTegic.value.DoubleValue
52.021

@<SCITEGIC>MOL_PROPERTY
W
SciTegic.value.DoubleValue
-52.013

@<SCITEGIC>MOL_PROPERTY
W(PB)
SciTegic.value.DoubleValue
-54.474

@<SCITEGIC>MOL_PROPERTY
W(SA)
SciTegic.value.DoubleValue
2.462

@<SCITEGIC>MOL_PROPERTY
Valence
SciTegic.value.DoubleValue
5.715

@<SCITEGIC>MOL_PROPERTY
Coulomb
SciTegic.value.DoubleValue
45.417

@<SCITEGIC>MOL_PROPERTY
VdW
SciTegic.value.DoubleValue
0.888

@<SCITEGIC>MOL_PROPERTY
VdW6
SciTegic.value.DoubleValue
-9.127

@<SCITEGIC>MOL_PROPERTY
VdW12
SciTegic.value.DoubleValue
10.015

@<SCITEGIC>MOL_PROPERTY
Bond
SciTegic.value.DoubleValue
0.252

@<SCITEGIC>MOL_PROPERTY
Angle
SciTegic.value.DoubleValue
1.209

@<SCITEGIC>MOL_PROPERTY
Pdih
SciTegic.value.DoubleValue
4.254

@<SCITEGIC>MOL_PROPERTY
Idih
SciTegic.value.DoubleValue
0.000

@<SCITEGIC>MOL_PROPERTY
Tether
SciTegic.value.DoubleValue
0.000

@<TRIPOS>MOLECULE
guest-3_vm2.mol2 : vm2 ligand conformer 247
          29          28           1
SMALL
USER_CHARGES
 
@<TRIPOS>ATOM
       1    C1      19.202163   18.336377   19.564736 C.3        1 MOL1        -0.2427
       2    H1      20.025670   17.610765   19.540794 H          1 MOL1         0.0958
       3    H2      18.379679   17.932952   18.959916 H          1 MOL1         0.0958
       4    H3      19.548500   19.262602   19.087860 H          1 MOL1         0.0958
       5    C2      18.736192   18.598716   21.012431 C.3        1 MOL1        -0.1412
       6    H4      18.364563   17.662008   21.451016 H          1 MOL1         0.0947
       7    H5      17.891078   19.301242   21.001726 H          1 MOL1         0.0947
       8    C3      19.876265   19.167573   21.885775 C.3        1 MOL1        -0.1437
       9    H6      20.719277   18.462797   21.891969 H          1 MOL1         0.0947
      10    H7      20.246257   20.101888   21.441309 H          1 MOL1         0.0947
      11    C4      19.413568   19.431645   23.336318 C.3        1 MOL1        -0.1437
      12    H8      19.035087   18.496166   23.762149 H          1 MOL1         0.0947
      13    H9      18.574277   20.140489   23.325852 H          1 MOL1         0.0947
      14    C5      20.560061   20.001652   24.207026 C.3        1 MOL1        -0.1437
      15    H10     21.405039   19.299865   24.232087 H          1 MOL1         0.0947
      16    H11     20.936621   20.911352   23.718986 H          1 MOL1         0.0947
      17    C6      20.135179   20.373369   25.651826 C.3        1 MOL1        -0.1437
      18    H12     19.122058   20.796898   25.656243 H          1 MOL1         0.0947
      19    H13     20.791237   21.185326   25.994951 H          1 MOL1         0.0947
      20    C7      20.253587   19.221347   26.685173 C.3        1 MOL1        -0.1477
      21    H14     21.290418   18.860449   26.706545 H          1 MOL1         0.0947
      22    H15     20.053352   19.622008   27.687767 H          1 MOL1         0.0947
      23    C8      19.319115   18.021198   26.441253 C.3        1 MOL1         0.0145
      24    H16     19.479818   17.273853   27.222978 H          1 MOL1         0.0921
      25    H17     19.554159   17.557318   25.480828 H          1 MOL1         0.0921
      26    N1      17.847869   18.386124   26.450462 N.4        1 MOL1        -0.5969
      27    H18     17.626964   19.073412   25.723358 H          1 MOL1         0.3603
      28    H19     17.564181   18.791973   27.348265 H          1 MOL1         0.3603
      29    H20     17.250681   17.567835   26.288717 H          1 MOL1         0.3603
@<TRIPOS>BOND
    1     1     2    1
    2     1     3    1
    3     1     4    1
    4     1     5    1
    5     5     6    1
    6     5     7    1
    7     5     8    1
    8     8     9    1
    9     8    10    1
   10     8    11    1
   11    11    12    1
   12    11    13    1
   13    11    14    1
   14    14    15    1
   15    14    16    1
   16    14    17    1
   17    17    18    1
   18    17    19    1
   19    17    20    1
   20    20    21    1
   21    20    22    1
   22    20    23    1
   23    23    24    1
   24    23    25    1
   25    23    26    1
   26    26    27    1
   27    26    28    1
   28    26    29    1
@<TRIPOS>SUBSTRUCTURE
       1 MOL1            1 RESIDUE      1      MOL     
@<SCITEGIC>MOL_PROPERTY
VM2 Rank
SciTegic.value.IntegerValue
247

@<SCITEGIC>MOL_PROPERTY
Conf_Id
SciTegic.value.IntegerValue
2335

@<SCITEGIC>MOL_PROPERTY
Probability
SciTegic.value.DoubleValue
0.01

@<SCITEGIC>MOL_PROPERTY
Sum Probability
SciTegic.value.DoubleValue
99.25

@<SCITEGIC>MOL_PROPERTY
Delta G
SciTegic.value.DoubleValue
3.690

@<SCITEGIC>MOL_PROPERTY
G
SciTegic.value.DoubleValue
61.836

@<SCITEGIC>MOL_PROPERTY
E
SciTegic.value.DoubleValue
24.130

@<SCITEGIC>MOL_PROPERTY
-TS
SciTegic.value.DoubleValue
37.706

@<SCITEGIC>MOL_PROPERTY
U+W
SciTegic.value.DoubleValue
-0.015

@<SCITEGIC>MOL_PROPERTY
U
SciTegic.value.DoubleValue
52.436

@<SCITEGIC>MOL_PROPERTY
W
SciTegic.value.DoubleValue
-52.451

@<SCITEGIC>MOL_PROPERTY
W(PB)
SciTegic.value.DoubleValue
-54.918

@<SCITEGIC>MOL_PROPERTY
W(SA)
SciTegic.value.DoubleValue
2.466

@<SCITEGIC>MOL_PROPERTY
Valence
SciTegic.value.DoubleValue
5.286

@<SCITEGIC>MOL_PROPERTY
Coulomb
SciTegic.value.DoubleValue
46.570

@<SCITEGIC>MOL_PROPERTY
VdW
SciTegic.value.DoubleValue
0.581

@<SCITEGIC>MOL_PROPERTY
VdW6
SciTegic.value.DoubleValue
-9.434

@<SCITEGIC>MOL_PROPERTY
VdW12
SciTegic.value.DoubleValue
10.015

@<SCITEGIC>MOL_PROPERTY
Bond
SciTegic.value.DoubleValue
0.255

@<SCITEGIC>MOL_PROPERTY
Angle
SciTegic.value.DoubleValue
1.437

@<SCITEGIC>MOL_PROPERTY
Pdih
SciTegic.value.DoubleValue
3.594

@<SCITEGIC>MOL_PROPERTY
Idih
SciTegic.value.DoubleValue
0.000

@<SCITEGIC>MOL_PROPERTY
Tether
SciTegic.value.DoubleValue
0.000

@<TRIPOS>MOLECULE
guest-3_vm2.mol2 : vm2 ligand conformer 248
          29          28           1
SMALL
USER_CHARGES
 
@<TRIPOS>ATOM
       1    C1      19.675385   18.612395   19.406184 C.3        1 MOL1        -0.2427
       2    H1      19.635162   17.521737   19.287543 H          1 MOL1         0.0958
       3    H2      19.052323   19.059740   18.620869 H          1 MOL1         0.0958
       4    H3      20.711106   18.936558   19.240492 H          1 MOL1         0.0958
       5    C2      19.178635   19.037716   20.804195 C.3        1 MOL1        -0.1412
       6    H4      18.132417   18.725465   20.928971 H          1 MOL1         0.0947
       7    H5      19.193700   20.133477   20.867762 H          1 MOL1         0.0947
       8    C3      20.045323   18.421447   21.928009 C.3        1 MOL1        -0.1437
       9    H6      20.079142   17.331798   21.790685 H          1 MOL1         0.0947
      10    H7      21.081387   18.775401   21.835751 H          1 MOL1         0.0947
      11    C4      19.519242   18.716901   23.354320 C.3        1 MOL1        -0.1437
      12    H8      20.097319   18.101641   24.055040 H          1 MOL1         0.0947
      13    H9      18.472737   18.392595   23.435607 H          1 MOL1         0.0947
      14    C5      19.646093   20.204819   23.766045 C.3        1 MOL1        -0.1437
      15    H10     20.706226   20.493224   23.764110 H          1 MOL1         0.0947
      16    H11     19.156594   20.837670   23.015365 H          1 MOL1         0.0947
      17    C6      19.022518   20.545549   25.144569 C.3        1 MOL1        -0.1437
      18    H12     17.938568   20.366182   25.122855 H          1 MOL1         0.0947
      19    H13     19.141330   21.626397   25.303032 H          1 MOL1         0.0947
      20    C7      19.658024   19.809340   26.350799 C.3        1 MOL1        -0.1477
      21    H14     20.736511   19.680129   26.189380 H          1 MOL1         0.0947
      22    H15     19.551507   20.441828   27.242215 H          1 MOL1         0.0947
      23    C8      18.992323   18.451228   26.646764 C.3        1 MOL1         0.0145
      24    H16     19.075837   17.790968   25.781577 H          1 MOL1         0.0921
      25    H17     17.930469   18.602934   26.858424 H          1 MOL1         0.0921
      26    N1      19.606457   17.738605   27.834116 N.4        1 MOL1        -0.5969
      27    H18     20.602099   17.541658   27.688191 H          1 MOL1         0.3603
      28    H19     19.147359   16.839776   28.018401 H          1 MOL1         0.3603
      29    H20     19.531302   18.293832   28.692918 H          1 MOL1         0.3603
@<TRIPOS>BOND
    1     1     2    1
    2     1     3    1
    3     1     4    1
    4     1     5    1
    5     5     6    1
    6     5     7    1
    7     5     8    1
    8     8     9    1
    9     8    10    1
   10     8    11    1
   11    11    12    1
   12    11    13    1
   13    11    14    1
   14    14    15    1
   15    14    16    1
   16    14    17    1
   17    17    18    1
   18    17    19    1
   19    17    20    1
   20    20    21    1
   21    20    22    1
   22    20    23    1
   23    23    24    1
   24    23    25    1
   25    23    26    1
   26    26    27    1
   27    26    28    1
   28    26    29    1
@<TRIPOS>SUBSTRUCTURE
       1 MOL1            1 RESIDUE      1      MOL     
@<SCITEGIC>MOL_PROPERTY
VM2 Rank
SciTegic.value.IntegerValue
248

@<SCITEGIC>MOL_PROPERTY
Conf_Id
SciTegic.value.IntegerValue
1328

@<SCITEGIC>MOL_PROPERTY
Probability
SciTegic.value.DoubleValue
0.01

@<SCITEGIC>MOL_PROPERTY
Sum Probability
SciTegic.value.DoubleValue
99.26

@<SCITEGIC>MOL_PROPERTY
Delta G
SciTegic.value.DoubleValue
3.717

@<SCITEGIC>MOL_PROPERTY
G
SciTegic.value.DoubleValue
61.863

@<SCITEGIC>MOL_PROPERTY
E
SciTegic.value.DoubleValue
24.303

@<SCITEGIC>MOL_PROPERTY
-TS
SciTegic.value.DoubleValue
37.560

@<SCITEGIC>MOL_PROPERTY
U+W
SciTegic.value.DoubleValue
0.159

@<SCITEGIC>MOL_PROPERTY
U
SciTegic.value.DoubleValue
52.229

@<SCITEGIC>MOL_PROPERTY
W
SciTegic.value.DoubleValue
-52.071

@<SCITEGIC>MOL_PROPERTY
W(PB)
SciTegic.value.DoubleValue
-54.579

@<SCITEGIC>MOL_PROPERTY
W(SA)
SciTegic.value.DoubleValue
2.509

@<SCITEGIC>MOL_PROPERTY
Valence
SciTegic.value.DoubleValue
5.678

@<SCITEGIC>MOL_PROPERTY
Coulomb
SciTegic.value.DoubleValue
45.657

@<SCITEGIC>MOL_PROPERTY
VdW
SciTegic.value.DoubleValue
0.895

@<SCITEGIC>MOL_PROPERTY
VdW6
SciTegic.value.DoubleValue
-9.188

@<SCITEGIC>MOL_PROPERTY
VdW12
SciTegic.value.DoubleValue
10.082

@<SCITEGIC>MOL_PROPERTY
Bond
SciTegic.value.DoubleValue
0.260

@<SCITEGIC>MOL_PROPERTY
Angle
SciTegic.value.DoubleValue
1.481

@<SCITEGIC>MOL_PROPERTY
Pdih
SciTegic.value.DoubleValue
3.936

@<SCITEGIC>MOL_PROPERTY
Idih
SciTegic.value.DoubleValue
0.000

@<SCITEGIC>MOL_PROPERTY
Tether
SciTegic.value.DoubleValue
0.000

@<TRIPOS>MOLECULE
guest-3_vm2.mol2 : vm2 ligand conformer 249
          29          28           1
SMALL
USER_CHARGES
 
@<TRIPOS>ATOM
       1    C1      20.254481   18.666348   19.508001 C.3        1 MOL1        -0.2427
       2    H1      19.790475   17.722630   19.192849 H          1 MOL1         0.0958
       3    H2      20.183651   19.372577   18.670588 H          1 MOL1         0.0958
       4    H3      21.318613   18.476886   19.700283 H          1 MOL1         0.0958
       5    C2      19.557760   19.236218   20.761726 C.3        1 MOL1        -0.1412
       6    H4      18.503438   19.442517   20.530403 H          1 MOL1         0.0947
       7    H5      20.021745   20.197159   21.020555 H          1 MOL1         0.0947
       8    C3      19.648883   18.259279   21.957691 C.3        1 MOL1        -0.1437
       9    H6      19.255025   17.280943   21.649394 H          1 MOL1         0.0947
      10    H7      20.702504   18.097022   22.223706 H          1 MOL1         0.0947
      11    C4      18.865439   18.731002   23.207276 C.3        1 MOL1        -0.1437
      12    H8      18.883928   17.921693   23.946016 H          1 MOL1         0.0947
      13    H9      17.808898   18.875393   22.942686 H          1 MOL1         0.0947
      14    C5      19.426074   20.035065   23.831557 C.3        1 MOL1        -0.1437
      15    H10     20.509218   19.947512   23.993494 H          1 MOL1         0.0947
      16    H11     19.290305   20.852713   23.111644 H          1 MOL1         0.0947
      17    C6      18.722687   20.442162   25.152529 C.3        1 MOL1        -0.1437
      18    H12     17.667601   20.135883   25.132239 H          1 MOL1         0.0947
      19    H13     18.712865   21.539394   25.211478 H          1 MOL1         0.0947
      20    C7      19.409355   19.912032   26.436368 C.3        1 MOL1        -0.1477
      21    H14     20.437166   20.295426   26.486714 H          1 MOL1         0.0947
      22    H15     18.882738   20.319355   27.309690 H          1 MOL1         0.0947
      23    C8      19.431981   18.376988   26.539468 C.3        1 MOL1         0.0145
      24    H16     20.025613   17.962721   25.720660 H          1 MOL1         0.0921
      25    H17     18.413422   17.987188   26.462606 H          1 MOL1         0.0921
      26    N1      20.027341   17.878906   27.840383 N.4        1 MOL1        -0.5969
      27    H18     20.996461   18.191474   27.961024 H          1 MOL1         0.3603
      28    H19     20.035388   16.854086   27.888197 H          1 MOL1         0.3603
      29    H20     19.499291   18.211728   28.653925 H          1 MOL1         0.3603
@<TRIPOS>BOND
    1     1     2    1
    2     1     3    1
    3     1     4    1
    4     1     5    1
    5     5     6    1
    6     5     7    1
    7     5     8    1
    8     8     9    1
    9     8    10    1
   10     8    11    1
   11    11    12    1
   12    11    13    1
   13    11    14    1
   14    14    15    1
   15    14    16    1
   16    14    17    1
   17    17    18    1
   18    17    19    1
   19    17    20    1
   20    20    21    1
   21    20    22    1
   22    20    23    1
   23    23    24    1
   24    23    25    1
   25    23    26    1
   26    26    27    1
   27    26    28    1
   28    26    29    1
@<TRIPOS>SUBSTRUCTURE
       1 MOL1            1 RESIDUE      1      MOL     
@<SCITEGIC>MOL_PROPERTY
VM2 Rank
SciTegic.value.IntegerValue
249

@<SCITEGIC>MOL_PROPERTY
Conf_Id
SciTegic.value.IntegerValue
605

@<SCITEGIC>MOL_PROPERTY
Probability
SciTegic.value.DoubleValue
0.01

@<SCITEGIC>MOL_PROPERTY
Sum Probability
SciTegic.value.DoubleValue
99.27

@<SCITEGIC>MOL_PROPERTY
Delta G
SciTegic.value.DoubleValue
3.726

@<SCITEGIC>MOL_PROPERTY
G
SciTegic.value.DoubleValue
61.872

@<SCITEGIC>MOL_PROPERTY
E
SciTegic.value.DoubleValue
24.381

@<SCITEGIC>MOL_PROPERTY
-TS
SciTegic.value.DoubleValue
37.491

@<SCITEGIC>MOL_PROPERTY
U+W
SciTegic.value.DoubleValue
0.237

@<SCITEGIC>MOL_PROPERTY
U
SciTegic.value.DoubleValue
52.135

@<SCITEGIC>MOL_PROPERTY
W
SciTegic.value.DoubleValue
-51.898

@<SCITEGIC>MOL_PROPERTY
W(PB)
SciTegic.value.DoubleValue
-54.405

@<SCITEGIC>MOL_PROPERTY
W(SA)
SciTegic.value.DoubleValue
2.507

@<SCITEGIC>MOL_PROPERTY
Valence
SciTegic.value.DoubleValue
5.744

@<SCITEGIC>MOL_PROPERTY
Coulomb
SciTegic.value.DoubleValue
45.466

@<SCITEGIC>MOL_PROPERTY
VdW
SciTegic.value.DoubleValue
0.925

@<SCITEGIC>MOL_PROPERTY
VdW6
SciTegic.value.DoubleValue
-9.090

@<SCITEGIC>MOL_PROPERTY
VdW12
SciTegic.value.DoubleValue
10.015

@<SCITEGIC>MOL_PROPERTY
Bond
SciTegic.value.DoubleValue
0.268

@<SCITEGIC>MOL_PROPERTY
Angle
SciTegic.value.DoubleValue
1.306

@<SCITEGIC>MOL_PROPERTY
Pdih
SciTegic.value.DoubleValue
4.170

@<SCITEGIC>MOL_PROPERTY
Idih
SciTegic.value.DoubleValue
0.000

@<SCITEGIC>MOL_PROPERTY
Tether
SciTegic.value.DoubleValue
0.000

@<TRIPOS>MOLECULE
guest-3_vm2.mol2 : vm2 ligand conformer 250
          29          28           1
SMALL
USER_CHARGES
 
@<TRIPOS>ATOM
       1    C1      21.153452   20.158435   20.797137 C.3        1 MOL1        -0.2427
       2    H1      21.114520   19.755002   19.776861 H          1 MOL1         0.0958
       3    H2      21.379166   21.230439   20.727252 H          1 MOL1         0.0958
       4    H3      21.984170   19.672700   21.325496 H          1 MOL1         0.0958
       5    C2      19.817797   19.929732   21.535523 C.3        1 MOL1        -0.1412
       6    H4      19.014337   20.455950   21.001416 H          1 MOL1         0.0947
       7    H5      19.876328   20.382279   22.532590 H          1 MOL1         0.0947
       8    C3      19.472374   18.424329   21.635816 C.3        1 MOL1        -0.1437
       9    H6      19.383373   18.026336   20.615484 H          1 MOL1         0.0947
      10    H7      20.297588   17.871412   22.105263 H          1 MOL1         0.0947
      11    C4      18.146003   18.144635   22.389545 C.3        1 MOL1        -0.1437
      12    H8      17.648289   17.294837   21.902208 H          1 MOL1         0.0947
      13    H9      17.457566   18.993606   22.277960 H          1 MOL1         0.0947
      14    C5      18.314389   17.788423   23.889229 C.3        1 MOL1        -0.1437
      15    H10     17.323459   17.547922   24.298495 H          1 MOL1         0.0947
      16    H11     18.913467   16.871892   23.980757 H          1 MOL1         0.0947
      17    C6      18.954678   18.907544   24.742771 C.3        1 MOL1        -0.1437
      18    H12     18.408099   19.847851   24.586782 H          1 MOL1         0.0947
      19    H13     19.987575   19.070956   24.411364 H          1 MOL1         0.0947
      20    C7      18.950836   18.553230   26.248564 C.3        1 MOL1        -0.1477
      21    H14     17.920481   18.357410   26.574043 H          1 MOL1         0.0947
      22    H15     19.514893   17.626446   26.418583 H          1 MOL1         0.0947
      23    C8      19.532754   19.678367   27.125787 C.3        1 MOL1         0.0145
      24    H16     19.424494   19.409036   28.179959 H          1 MOL1         0.0921
      25    H17     18.978836   20.604793   26.951739 H          1 MOL1         0.0921
      26    N1      21.001717   19.953305   26.870627 N.4        1 MOL1        -0.5969
      27    H18     21.578867   19.123026   27.040509 H          1 MOL1         0.3603
      28    H19     21.360594   20.697510   27.478904 H          1 MOL1         0.3603
      29    H20     21.170184   20.247818   25.903714 H          1 MOL1         0.3603
@<TRIPOS>BOND
    1     1     2    1
    2     1     3    1
    3     1     4    1
    4     1     5    1
    5     5     6    1
    6     5     7    1
    7     5     8    1
    8     8     9    1
    9     8    10    1
   10     8    11    1
   11    11    12    1
   12    11    13    1
   13    11    14    1
   14    14    15    1
   15    14    16    1
   16    14    17    1
   17    17    18    1
   18    17    19    1
   19    17    20    1
   20    20    21    1
   21    20    22    1
   22    20    23    1
   23    23    24    1
   24    23    25    1
   25    23    26    1
   26    26    27    1
   27    26    28    1
   28    26    29    1
@<TRIPOS>SUBSTRUCTURE
       1 MOL1            1 RESIDUE      1      MOL     
@<SCITEGIC>MOL_PROPERTY
VM2 Rank
SciTegic.value.IntegerValue
250

@<SCITEGIC>MOL_PROPERTY
Conf_Id
SciTegic.value.IntegerValue
313

@<SCITEGIC>MOL_PROPERTY
Probability
SciTegic.value.DoubleValue
0.01

@<SCITEGIC>MOL_PROPERTY
Sum Probability
SciTegic.value.DoubleValue
99.28

@<SCITEGIC>MOL_PROPERTY
Delta G
SciTegic.value.DoubleValue
3.742

@<SCITEGIC>MOL_PROPERTY
G
SciTegic.value.DoubleValue
61.888

@<SCITEGIC>MOL_PROPERTY
E
SciTegic.value.DoubleValue
24.204

@<SCITEGIC>MOL_PROPERTY
-TS
SciTegic.value.DoubleValue
37.684

@<SCITEGIC>MOL_PROPERTY
U+W
SciTegic.value.DoubleValue
0.059

@<SCITEGIC>MOL_PROPERTY
U
SciTegic.value.DoubleValue
52.464

@<SCITEGIC>MOL_PROPERTY
W
SciTegic.value.DoubleValue
-52.405

@<SCITEGIC>MOL_PROPERTY
W(PB)
SciTegic.value.DoubleValue
-54.872

@<SCITEGIC>MOL_PROPERTY
W(SA)
SciTegic.value.DoubleValue
2.467

@<SCITEGIC>MOL_PROPERTY
Valence
SciTegic.value.DoubleValue
5.708

@<SCITEGIC>MOL_PROPERTY
Coulomb
SciTegic.value.DoubleValue
45.914

@<SCITEGIC>MOL_PROPERTY
VdW
SciTegic.value.DoubleValue
0.842

@<SCITEGIC>MOL_PROPERTY
VdW6
SciTegic.value.DoubleValue
-9.209

@<SCITEGIC>MOL_PROPERTY
VdW12
SciTegic.value.DoubleValue
10.051

@<SCITEGIC>MOL_PROPERTY
Bond
SciTegic.value.DoubleValue
0.252

@<SCITEGIC>MOL_PROPERTY
Angle
SciTegic.value.DoubleValue
1.191

@<SCITEGIC>MOL_PROPERTY
Pdih
SciTegic.value.DoubleValue
4.265

@<SCITEGIC>MOL_PROPERTY
Idih
SciTegic.value.DoubleValue
0.000

@<SCITEGIC>MOL_PROPERTY
Tether
SciTegic.value.DoubleValue
0.000

@<TRIPOS>MOLECULE
guest-3_vm2.mol2 : vm2 ligand conformer 251
          29          28           1
SMALL
USER_CHARGES
 
@<TRIPOS>ATOM
       1    C1      20.382263   17.851289   19.980762 C.3        1 MOL1        -0.2427
       2    H1      19.923898   18.341945   19.112201 H          1 MOL1         0.0958
       3    H2      21.435091   18.158355   20.030945 H          1 MOL1         0.0958
       4    H3      20.354922   16.767483   19.808554 H          1 MOL1         0.0958
       5    C2      19.636261   18.215277   21.281880 C.3        1 MOL1        -0.1412
       6    H4      20.097188   17.674515   22.118747 H          1 MOL1         0.0947
       7    H5      18.595113   17.870310   21.213309 H          1 MOL1         0.0947
       8    C3      19.665361   19.738952   21.547862 C.3        1 MOL1        -0.1437
       9    H6      20.704522   20.074054   21.670607 H          1 MOL1         0.0947
      10    H7      19.275613   20.262232   20.663788 H          1 MOL1         0.0947
      11    C4      18.831526   20.170724   22.779179 C.3        1 MOL1        -0.1437
      12    H8      17.789898   19.845489   22.650531 H          1 MOL1         0.0947
      13    H9      18.809663   21.268700   22.814455 H          1 MOL1         0.0947
      14    C5      19.385040   19.633458   24.120810 C.3        1 MOL1        -0.1437
      15    H10     19.341712   18.538536   24.114853 H          1 MOL1         0.0947
      16    H11     20.439854   19.923382   24.223147 H          1 MOL1         0.0947
      17    C6      18.578691   20.170461   25.327000 C.3        1 MOL1        -0.1437
      18    H12     17.550175   19.786625   25.279390 H          1 MOL1         0.0947
      19    H13     18.501465   21.263583   25.246654 H          1 MOL1         0.0947
      20    C7      19.191696   19.832374   26.710041 C.3        1 MOL1        -0.1477
      21    H14     20.195130   20.269220   26.800453 H          1 MOL1         0.0947
      22    H15     18.579252   20.322862   27.478275 H          1 MOL1         0.0947
      23    C8      19.239858   18.325807   27.038485 C.3        1 MOL1         0.0145
      24    H16     18.326566   17.839331   26.685610 H          1 MOL1         0.0921
      25    H17     19.294445   18.199318   28.123149 H          1 MOL1         0.0921
      26    N1      20.433304   17.599657   26.448981 N.4        1 MOL1        -0.5969
      27    H18     21.318728   17.982032   26.797170 H          1 MOL1         0.3603
      28    H19     20.453813   17.670133   25.427762 H          1 MOL1         0.3603
      29    H20     20.425364   16.601232   26.685217 H          1 MOL1         0.3603
@<TRIPOS>BOND
    1     1     2    1
    2     1     3    1
    3     1     4    1
    4     1     5    1
    5     5     6    1
    6     5     7    1
    7     5     8    1
    8     8     9    1
    9     8    10    1
   10     8    11    1
   11    11    12    1
   12    11    13    1
   13    11    14    1
   14    14    15    1
   15    14    16    1
   16    14    17    1
   17    17    18    1
   18    17    19    1
   19    17    20    1
   20    20    21    1
   21    20    22    1
   22    20    23    1
   23    23    24    1
   24    23    25    1
   25    23    26    1
   26    26    27    1
   27    26    28    1
   28    26    29    1
@<TRIPOS>SUBSTRUCTURE
       1 MOL1            1 RESIDUE      1      MOL     
@<SCITEGIC>MOL_PROPERTY
VM2 Rank
SciTegic.value.IntegerValue
251

@<SCITEGIC>MOL_PROPERTY
Conf_Id
SciTegic.value.IntegerValue
2331

@<SCITEGIC>MOL_PROPERTY
Probability
SciTegic.value.DoubleValue
0.01

@<SCITEGIC>MOL_PROPERTY
Sum Probability
SciTegic.value.DoubleValue
99.29

@<SCITEGIC>MOL_PROPERTY
Delta G
SciTegic.value.DoubleValue
3.742

@<SCITEGIC>MOL_PROPERTY
G
SciTegic.value.DoubleValue
61.888

@<SCITEGIC>MOL_PROPERTY
E
SciTegic.value.DoubleValue
24.454

@<SCITEGIC>MOL_PROPERTY
-TS
SciTegic.value.DoubleValue
37.434

@<SCITEGIC>MOL_PROPERTY
U+W
SciTegic.value.DoubleValue
0.309

@<SCITEGIC>MOL_PROPERTY
U
SciTegic.value.DoubleValue
52.481

@<SCITEGIC>MOL_PROPERTY
W
SciTegic.value.DoubleValue
-52.171

@<SCITEGIC>MOL_PROPERTY
W(PB)
SciTegic.value.DoubleValue
-54.661

@<SCITEGIC>MOL_PROPERTY
W(SA)
SciTegic.value.DoubleValue
2.490

@<SCITEGIC>MOL_PROPERTY
Valence
SciTegic.value.DoubleValue
4.726

@<SCITEGIC>MOL_PROPERTY
Coulomb
SciTegic.value.DoubleValue
46.978

@<SCITEGIC>MOL_PROPERTY
VdW
SciTegic.value.DoubleValue
0.777

@<SCITEGIC>MOL_PROPERTY
VdW6
SciTegic.value.DoubleValue
-9.165

@<SCITEGIC>MOL_PROPERTY
VdW12
SciTegic.value.DoubleValue
9.942

@<SCITEGIC>MOL_PROPERTY
Bond
SciTegic.value.DoubleValue
0.244

@<SCITEGIC>MOL_PROPERTY
Angle
SciTegic.value.DoubleValue
1.215

@<SCITEGIC>MOL_PROPERTY
Pdih
SciTegic.value.DoubleValue
3.267

@<SCITEGIC>MOL_PROPERTY
Idih
SciTegic.value.DoubleValue
0.000

@<SCITEGIC>MOL_PROPERTY
Tether
SciTegic.value.DoubleValue
0.000

@<TRIPOS>MOLECULE
guest-3_vm2.mol2 : vm2 ligand conformer 252
          29          28           1
SMALL
USER_CHARGES
 
@<TRIPOS>ATOM
       1    C1      19.978186   19.462943   19.425128 C.3        1 MOL1        -0.2427
       2    H1      20.578991   18.564549   19.232320 H          1 MOL1         0.0958
       3    H2      19.223760   19.540785   18.631514 H          1 MOL1         0.0958
       4    H3      20.637209   20.337764   19.350256 H          1 MOL1         0.0958
       5    C2      19.304719   19.391958   20.812029 C.3        1 MOL1        -0.1412
       6    H4      18.623746   18.531241   20.832013 H          1 MOL1         0.0947
       7    H5      18.688829   20.289365   20.963638 H          1 MOL1         0.0947
       8    C3      20.349912   19.277787   21.947120 C.3        1 MOL1        -0.1437
       9    H6      20.931201   18.353253   21.826438 H          1 MOL1         0.0947
      10    H7      21.065919   20.105876   21.852571 H          1 MOL1         0.0947
      11    C4      19.735286   19.324642   23.367845 C.3        1 MOL1        -0.1437
      12    H8      19.127326   20.233225   23.476553 H          1 MOL1         0.0947
      13    H9      20.562032   19.408602   24.084199 H          1 MOL1         0.0947
      14    C5      18.888608   18.075779   23.718536 C.3        1 MOL1        -0.1437
      15    H10     18.120154   17.924268   22.950323 H          1 MOL1         0.0947
      16    H11     19.528670   17.183261   23.690329 H          1 MOL1         0.0947
      17    C6      18.170473   18.150976   25.091087 C.3        1 MOL1        -0.1437
      18    H12     17.577929   17.232603   25.204855 H          1 MOL1         0.0947
      19    H13     17.443593   18.975134   25.091753 H          1 MOL1         0.0947
      20    C7      19.110960   18.272059   26.316522 C.3        1 MOL1        -0.1477
      21    H14     18.616373   17.814199   27.183561 H          1 MOL1         0.0947
      22    H15     20.030983   17.697515   26.145224 H          1 MOL1         0.0947
      23    C8      19.448219   19.732419   26.675444 C.3        1 MOL1         0.0145
      24    H16     18.526188   20.277024   26.895922 H          1 MOL1         0.0921
      25    H17     19.942043   20.225313   25.836006 H          1 MOL1         0.0921
      26    N1      20.357637   19.849437   27.881290 N.4        1 MOL1        -0.5969
      27    H18     19.936697   19.432888   28.718405 H          1 MOL1         0.3603
      28    H19     20.566673   20.828090   28.107497 H          1 MOL1         0.3603
      29    H20     21.255964   19.379042   27.729222 H          1 MOL1         0.3603
@<TRIPOS>BOND
    1     1     2    1
    2     1     3    1
    3     1     4    1
    4     1     5    1
    5     5     6    1
    6     5     7    1
    7     5     8    1
    8     8     9    1
    9     8    10    1
   10     8    11    1
   11    11    12    1
   12    11    13    1
   13    11    14    1
   14    14    15    1
   15    14    16    1
   16    14    17    1
   17    17    18    1
   18    17    19    1
   19    17    20    1
   20    20    21    1
   21    20    22    1
   22    20    23    1
   23    23    24    1
   24    23    25    1
   25    23    26    1
   26    26    27    1
   27    26    28    1
   28    26    29    1
@<TRIPOS>SUBSTRUCTURE
       1 MOL1            1 RESIDUE      1      MOL     
@<SCITEGIC>MOL_PROPERTY
VM2 Rank
SciTegic.value.IntegerValue
252

@<SCITEGIC>MOL_PROPERTY
Conf_Id
SciTegic.value.IntegerValue
132

@<SCITEGIC>MOL_PROPERTY
Probability
SciTegic.value.DoubleValue
0.01

@<SCITEGIC>MOL_PROPERTY
Sum Probability
SciTegic.value.DoubleValue
99.30

@<SCITEGIC>MOL_PROPERTY
Delta G
SciTegic.value.DoubleValue
3.743

@<SCITEGIC>MOL_PROPERTY
G
SciTegic.value.DoubleValue
61.889

@<SCITEGIC>MOL_PROPERTY
E
SciTegic.value.DoubleValue
24.329

@<SCITEGIC>MOL_PROPERTY
-TS
SciTegic.value.DoubleValue
37.560

@<SCITEGIC>MOL_PROPERTY
U+W
SciTegic.value.DoubleValue
0.185

@<SCITEGIC>MOL_PROPERTY
U
SciTegic.value.DoubleValue
52.229

@<SCITEGIC>MOL_PROPERTY
W
SciTegic.value.DoubleValue
-52.044

@<SCITEGIC>MOL_PROPERTY
W(PB)
SciTegic.value.DoubleValue
-54.537

@<SCITEGIC>MOL_PROPERTY
W(SA)
SciTegic.value.DoubleValue
2.492

@<SCITEGIC>MOL_PROPERTY
Valence
SciTegic.value.DoubleValue
5.678

@<SCITEGIC>MOL_PROPERTY
Coulomb
SciTegic.value.DoubleValue
45.657

@<SCITEGIC>MOL_PROPERTY
VdW
SciTegic.value.DoubleValue
0.895

@<SCITEGIC>MOL_PROPERTY
VdW6
SciTegic.value.DoubleValue
-9.187

@<SCITEGIC>MOL_PROPERTY
VdW12
SciTegic.value.DoubleValue
10.082

@<SCITEGIC>MOL_PROPERTY
Bond
SciTegic.value.DoubleValue
0.260

@<SCITEGIC>MOL_PROPERTY
Angle
SciTegic.value.DoubleValue
1.481

@<SCITEGIC>MOL_PROPERTY
Pdih
SciTegic.value.DoubleValue
3.936

@<SCITEGIC>MOL_PROPERTY
Idih
SciTegic.value.DoubleValue
0.000

@<SCITEGIC>MOL_PROPERTY
Tether
SciTegic.value.DoubleValue
0.000

@<TRIPOS>MOLECULE
guest-3_vm2.mol2 : vm2 ligand conformer 253
          29          28           1
SMALL
USER_CHARGES
 
@<TRIPOS>ATOM
       1    C1      20.280285   17.468322   20.556536 C.3        1 MOL1        -0.2427
       2    H1      20.243147   17.879840   19.539429 H          1 MOL1         0.0958
       3    H2      21.311318   17.555565   20.923376 H          1 MOL1         0.0958
       4    H3      20.032770   16.400499   20.497302 H          1 MOL1         0.0958
       5    C2      19.296137   18.204926   21.489498 C.3        1 MOL1        -0.1412
       6    H4      19.327495   17.741041   22.482560 H          1 MOL1         0.0947
       7    H5      18.272074   18.069796   21.114346 H          1 MOL1         0.0947
       8    C3      19.618989   19.715956   21.579723 C.3        1 MOL1        -0.1437
       9    H6      20.660995   19.867690   21.893236 H          1 MOL1         0.0947
      10    H7      19.541715   20.141817   20.569738 H          1 MOL1         0.0947
      11    C4      18.660974   20.497485   22.516203 C.3        1 MOL1        -0.1437
      12    H8      17.674920   20.013649   22.543117 H          1 MOL1         0.0947
      13    H9      18.490493   21.490911   22.078692 H          1 MOL1         0.0947
      14    C5      19.191172   20.708523   23.957928 C.3        1 MOL1        -0.1437
      15    H10     20.123253   21.289206   23.921681 H          1 MOL1         0.0947
      16    H11     18.466114   21.328173   24.503516 H          1 MOL1         0.0947
      17    C6      19.430348   19.401017   24.747813 C.3        1 MOL1        -0.1437
      18    H12     20.243519   18.830866   24.279830 H          1 MOL1         0.0947
      19    H13     18.526407   18.779372   24.702543 H          1 MOL1         0.0947
      20    C7      19.801951   19.683084   26.222658 C.3        1 MOL1        -0.1477
      21    H14     20.680761   20.340758   26.256513 H          1 MOL1         0.0947
      22    H15     18.986048   20.223977   26.720353 H          1 MOL1         0.0947
      23    C8      20.122960   18.398728   27.010864 C.3        1 MOL1         0.0145
      24    H16     20.458485   18.664735   28.016946 H          1 MOL1         0.0921
      25    H17     20.930780   17.854248   26.514522 H          1 MOL1         0.0921
      26    N1      18.941185   17.459960   27.153777 N.4        1 MOL1        -0.5969
      27    H18     18.596963   17.142127   26.242423 H          1 MOL1         0.3603
      28    H19     18.155254   17.908869   27.635553 H          1 MOL1         0.3603
      29    H20     19.184146   16.621584   27.692937 H          1 MOL1         0.3603
@<TRIPOS>BOND
    1     1     2    1
    2     1     3    1
    3     1     4    1
    4     1     5    1
    5     5     6    1
    6     5     7    1
    7     5     8    1
    8     8     9    1
    9     8    10    1
   10     8    11    1
   11    11    12    1
   12    11    13    1
   13    11    14    1
   14    14    15    1
   15    14    16    1
   16    14    17    1
   17    17    18    1
   18    17    19    1
   19    17    20    1
   20    20    21    1
   21    20    22    1
   22    20    23    1
   23    23    24    1
   24    23    25    1
   25    23    26    1
   26    26    27    1
   27    26    28    1
   28    26    29    1
@<TRIPOS>SUBSTRUCTURE
       1 MOL1            1 RESIDUE      1      MOL     
@<SCITEGIC>MOL_PROPERTY
VM2 Rank
SciTegic.value.IntegerValue
253

@<SCITEGIC>MOL_PROPERTY
Conf_Id
SciTegic.value.IntegerValue
2897

@<SCITEGIC>MOL_PROPERTY
Probability
SciTegic.value.DoubleValue
0.01

@<SCITEGIC>MOL_PROPERTY
Sum Probability
SciTegic.value.DoubleValue
99.31

@<SCITEGIC>MOL_PROPERTY
Delta G
SciTegic.value.DoubleValue
3.751

@<SCITEGIC>MOL_PROPERTY
G
SciTegic.value.DoubleValue
61.898

@<SCITEGIC>MOL_PROPERTY
E
SciTegic.value.DoubleValue
24.225

@<SCITEGIC>MOL_PROPERTY
-TS
SciTegic.value.DoubleValue
37.672

@<SCITEGIC>MOL_PROPERTY
U+W
SciTegic.value.DoubleValue
0.081

@<SCITEGIC>MOL_PROPERTY
U
SciTegic.value.DoubleValue
52.242

@<SCITEGIC>MOL_PROPERTY
W
SciTegic.value.DoubleValue
-52.161

@<SCITEGIC>MOL_PROPERTY
W(PB)
SciTegic.value.DoubleValue
-54.646

@<SCITEGIC>MOL_PROPERTY
W(SA)
SciTegic.value.DoubleValue
2.485

@<SCITEGIC>MOL_PROPERTY
Valence
SciTegic.value.DoubleValue
5.713

@<SCITEGIC>MOL_PROPERTY
Coulomb
SciTegic.value.DoubleValue
45.680

@<SCITEGIC>MOL_PROPERTY
VdW
SciTegic.value.DoubleValue
0.849

@<SCITEGIC>MOL_PROPERTY
VdW6
SciTegic.value.DoubleValue
-9.170

@<SCITEGIC>MOL_PROPERTY
VdW12
SciTegic.value.DoubleValue
10.019

@<SCITEGIC>MOL_PROPERTY
Bond
SciTegic.value.DoubleValue
0.251

@<SCITEGIC>MOL_PROPERTY
Angle
SciTegic.value.DoubleValue
1.206

@<SCITEGIC>MOL_PROPERTY
Pdih
SciTegic.value.DoubleValue
4.257

@<SCITEGIC>MOL_PROPERTY
Idih
SciTegic.value.DoubleValue
0.000

@<SCITEGIC>MOL_PROPERTY
Tether
SciTegic.value.DoubleValue
0.000

@<TRIPOS>MOLECULE
guest-3_vm2.mol2 : vm2 ligand conformer 254
          29          28           1
SMALL
USER_CHARGES
 
@<TRIPOS>ATOM
       1    C1      21.246013   19.767486   20.587153 C.3        1 MOL1        -0.2427
       2    H1      21.589114   18.791070   20.220895 H          1 MOL1         0.0958
       3    H2      20.771991   20.298945   19.751645 H          1 MOL1         0.0958
       4    H3      22.129632   20.342139   20.893746 H          1 MOL1         0.0958
       5    C2      20.266273   19.603201   21.768243 C.3        1 MOL1        -0.1412
       6    H4      19.961362   20.595153   22.129488 H          1 MOL1         0.0947
       7    H5      20.788998   19.102512   22.593791 H          1 MOL1         0.0947
       8    C3      19.017867   18.786437   21.363989 C.3        1 MOL1        -0.1437
       9    H6      18.578703   19.230461   20.459968 H          1 MOL1         0.0947
      10    H7      19.322893   17.768049   21.086413 H          1 MOL1         0.0947
      11    C4      17.917067   18.715115   22.453748 C.3        1 MOL1        -0.1437
      12    H8      17.072521   18.151935   22.033098 H          1 MOL1         0.0947
      13    H9      17.526633   19.720642   22.662592 H          1 MOL1         0.0947
      14    C5      18.351663   18.021178   23.770926 C.3        1 MOL1        -0.1437
      15    H10     17.498384   17.448305   24.159743 H          1 MOL1         0.0947
      16    H11     19.142334   17.286133   23.566598 H          1 MOL1         0.0947
      17    C6      18.806034   19.014402   24.868365 C.3        1 MOL1        -0.1437
      18    H12     17.977318   19.695094   25.107870 H          1 MOL1         0.0947
      19    H13     19.626133   19.638781   24.496973 H          1 MOL1         0.0947
      20    C7      19.252423   18.279782   26.154373 C.3        1 MOL1        -0.1477
      21    H14     18.435726   17.636402   26.507956 H          1 MOL1         0.0947
      22    H15     20.100269   17.617482   25.934170 H          1 MOL1         0.0947
      23    C8      19.637229   19.247442   27.289977 C.3        1 MOL1         0.0145
      24    H16     19.859779   18.674805   28.194462 H          1 MOL1         0.0921
      25    H17     18.797930   19.913974   27.506076 H          1 MOL1         0.0921
      26    N1      20.849432   20.102956   26.978227 N.4        1 MOL1        -0.5969
      27    H18     20.693653   20.696883   26.157843 H          1 MOL1         0.3603
      28    H19     21.679096   19.531601   26.787210 H          1 MOL1         0.3603
      29    H20     21.086840   20.724797   27.758991 H          1 MOL1         0.3603
@<TRIPOS>BOND
    1     1     2    1
    2     1     3    1
    3     1     4    1
    4     1     5    1
    5     5     6    1
    6     5     7    1
    7     5     8    1
    8     8     9    1
    9     8    10    1
   10     8    11    1
   11    11    12    1
   12    11    13    1
   13    11    14    1
   14    14    15    1
   15    14    16    1
   16    14    17    1
   17    17    18    1
   18    17    19    1
   19    17    20    1
   20    20    21    1
   21    20    22    1
   22    20    23    1
   23    23    24    1
   24    23    25    1
   25    23    26    1
   26    26    27    1
   27    26    28    1
   28    26    29    1
@<TRIPOS>SUBSTRUCTURE
       1 MOL1            1 RESIDUE      1      MOL     
@<SCITEGIC>MOL_PROPERTY
VM2 Rank
SciTegic.value.IntegerValue
254

@<SCITEGIC>MOL_PROPERTY
Conf_Id
SciTegic.value.IntegerValue
2801

@<SCITEGIC>MOL_PROPERTY
Probability
SciTegic.value.DoubleValue
0.01

@<SCITEGIC>MOL_PROPERTY
Sum Probability
SciTegic.value.DoubleValue
99.32

@<SCITEGIC>MOL_PROPERTY
Delta G
SciTegic.value.DoubleValue
3.753

@<SCITEGIC>MOL_PROPERTY
G
SciTegic.value.DoubleValue
61.900

@<SCITEGIC>MOL_PROPERTY
E
SciTegic.value.DoubleValue
24.222

@<SCITEGIC>MOL_PROPERTY
-TS
SciTegic.value.DoubleValue
37.678

@<SCITEGIC>MOL_PROPERTY
U+W
SciTegic.value.DoubleValue
0.078

@<SCITEGIC>MOL_PROPERTY
U
SciTegic.value.DoubleValue
52.545

@<SCITEGIC>MOL_PROPERTY
W
SciTegic.value.DoubleValue
-52.467

@<SCITEGIC>MOL_PROPERTY
W(PB)
SciTegic.value.DoubleValue
-54.915

@<SCITEGIC>MOL_PROPERTY
W(SA)
SciTegic.value.DoubleValue
2.448

@<SCITEGIC>MOL_PROPERTY
Valence
SciTegic.value.DoubleValue
5.714

@<SCITEGIC>MOL_PROPERTY
Coulomb
SciTegic.value.DoubleValue
45.984

@<SCITEGIC>MOL_PROPERTY
VdW
SciTegic.value.DoubleValue
0.847

@<SCITEGIC>MOL_PROPERTY
VdW6
SciTegic.value.DoubleValue
-9.182

@<SCITEGIC>MOL_PROPERTY
VdW12
SciTegic.value.DoubleValue
10.029

@<SCITEGIC>MOL_PROPERTY
Bond
SciTegic.value.DoubleValue
0.253

@<SCITEGIC>MOL_PROPERTY
Angle
SciTegic.value.DoubleValue
1.188

@<SCITEGIC>MOL_PROPERTY
Pdih
SciTegic.value.DoubleValue
4.272

@<SCITEGIC>MOL_PROPERTY
Idih
SciTegic.value.DoubleValue
0.000

@<SCITEGIC>MOL_PROPERTY
Tether
SciTegic.value.DoubleValue
0.000

@<TRIPOS>MOLECULE
guest-3_vm2.mol2 : vm2 ligand conformer 255
          29          28           1
SMALL
USER_CHARGES
 
@<TRIPOS>ATOM
       1    C1      20.391885   19.051374   19.516798 C.3        1 MOL1        -0.2427
       2    H1      20.632383   20.087670   19.245727 H          1 MOL1         0.0958
       3    H2      21.333876   18.518687   19.701576 H          1 MOL1         0.0958
       4    H3      19.902970   18.582176   18.653169 H          1 MOL1         0.0958
       5    C2      19.474102   19.000395   20.756585 C.3        1 MOL1        -0.1412
       6    H4      19.223516   17.953000   20.970719 H          1 MOL1         0.0947
       7    H5      18.529639   19.515385   20.531996 H          1 MOL1         0.0947
       8    C3      20.144577   19.652303   21.988870 C.3        1 MOL1        -0.1437
       9    H6      21.060151   19.102220   22.246435 H          1 MOL1         0.0947
      10    H7      20.461302   20.670819   21.725007 H          1 MOL1         0.0947
      11    C4      19.221554   19.732368   23.229588 C.3        1 MOL1        -0.1437
      12    H8      18.315072   20.298258   22.974262 H          1 MOL1         0.0947
      13    H9      19.736476   20.318155   23.999505 H          1 MOL1         0.0947
      14    C5      18.823735   18.343833   23.793793 C.3        1 MOL1        -0.1437
      15    H10     18.212185   17.824997   23.044076 H          1 MOL1         0.0947
      16    H11     19.716381   17.721108   23.943750 H          1 MOL1         0.0947
      17    C6      18.002814   18.420591   25.107430 C.3        1 MOL1        -0.1437
      18    H12     17.301285   17.574954   25.123024 H          1 MOL1         0.0947
      19    H13     17.378756   19.324987   25.114224 H          1 MOL1         0.0947
      20    C7      18.851897   18.346405   26.401397 C.3        1 MOL1        -0.1477
      21    H14     18.174161   18.329212   27.265288 H          1 MOL1         0.0947
      22    H15     19.405575   17.398281   26.422023 H          1 MOL1         0.0947
      23    C8      19.837773   19.516390   26.564763 C.3        1 MOL1         0.0145
      24    H16     19.295697   20.464684   26.517816 H          1 MOL1         0.0921
      25    H17     20.571037   19.494481   25.754634 H          1 MOL1         0.0921
      26    N1      20.595663   19.474342   27.875777 N.4        1 MOL1        -0.5969
      27    H18     21.147599   18.615334   27.970207 H          1 MOL1         0.3603
      28    H19     19.964761   19.518078   28.682937 H          1 MOL1         0.3603
      29    H20     21.248682   20.260724   27.963944 H          1 MOL1         0.3603
@<TRIPOS>BOND
    1     1     2    1
    2     1     3    1
    3     1     4    1
    4     1     5    1
    5     5     6    1
    6     5     7    1
    7     5     8    1
    8     8     9    1
    9     8    10    1
   10     8    11    1
   11    11    12    1
   12    11    13    1
   13    11    14    1
   14    14    15    1
   15    14    16    1
   16    14    17    1
   17    17    18    1
   18    17    19    1
   19    17    20    1
   20    20    21    1
   21    20    22    1
   22    20    23    1
   23    23    24    1
   24    23    25    1
   25    23    26    1
   26    26    27    1
   27    26    28    1
   28    26    29    1
@<TRIPOS>SUBSTRUCTURE
       1 MOL1            1 RESIDUE      1      MOL     
@<SCITEGIC>MOL_PROPERTY
VM2 Rank
SciTegic.value.IntegerValue
255

@<SCITEGIC>MOL_PROPERTY
Conf_Id
SciTegic.value.IntegerValue
692

@<SCITEGIC>MOL_PROPERTY
Probability
SciTegic.value.DoubleValue
0.01

@<SCITEGIC>MOL_PROPERTY
Sum Probability
SciTegic.value.DoubleValue
99.33

@<SCITEGIC>MOL_PROPERTY
Delta G
SciTegic.value.DoubleValue
3.765

@<SCITEGIC>MOL_PROPERTY
G
SciTegic.value.DoubleValue
61.911

@<SCITEGIC>MOL_PROPERTY
E
SciTegic.value.DoubleValue
24.420

@<SCITEGIC>MOL_PROPERTY
-TS
SciTegic.value.DoubleValue
37.492

@<SCITEGIC>MOL_PROPERTY
U+W
SciTegic.value.DoubleValue
0.275

@<SCITEGIC>MOL_PROPERTY
U
SciTegic.value.DoubleValue
52.135

@<SCITEGIC>MOL_PROPERTY
W
SciTegic.value.DoubleValue
-51.860

@<SCITEGIC>MOL_PROPERTY
W(PB)
SciTegic.value.DoubleValue
-54.388

@<SCITEGIC>MOL_PROPERTY
W(SA)
SciTegic.value.DoubleValue
2.528

@<SCITEGIC>MOL_PROPERTY
Valence
SciTegic.value.DoubleValue
5.744

@<SCITEGIC>MOL_PROPERTY
Coulomb
SciTegic.value.DoubleValue
45.466

@<SCITEGIC>MOL_PROPERTY
VdW
SciTegic.value.DoubleValue
0.925

@<SCITEGIC>MOL_PROPERTY
VdW6
SciTegic.value.DoubleValue
-9.090

@<SCITEGIC>MOL_PROPERTY
VdW12
SciTegic.value.DoubleValue
10.016

@<SCITEGIC>MOL_PROPERTY
Bond
SciTegic.value.DoubleValue
0.268

@<SCITEGIC>MOL_PROPERTY
Angle
SciTegic.value.DoubleValue
1.306

@<SCITEGIC>MOL_PROPERTY
Pdih
SciTegic.value.DoubleValue
4.171

@<SCITEGIC>MOL_PROPERTY
Idih
SciTegic.value.DoubleValue
0.000

@<SCITEGIC>MOL_PROPERTY
Tether
SciTegic.value.DoubleValue
0.000

@<TRIPOS>MOLECULE
guest-3_vm2.mol2 : vm2 ligand conformer 256
          29          28           1
SMALL
USER_CHARGES
 
@<TRIPOS>ATOM
       1    C1      20.164213   17.684686   20.021741 C.3        1 MOL1        -0.2427
       2    H1      21.096240   18.183763   19.725948 H          1 MOL1         0.0958
       3    H2      20.421799   16.829687   20.660375 H          1 MOL1         0.0958
       4    H3      19.687437   17.295030   19.112955 H          1 MOL1         0.0958
       5    C2      19.221147   18.661193   20.755847 C.3        1 MOL1        -0.1412
       6    H4      18.285598   18.143098   21.009180 H          1 MOL1         0.0947
       7    H5      18.953971   19.486680   20.081258 H          1 MOL1         0.0947
       8    C3      19.868578   19.225106   22.039772 C.3        1 MOL1        -0.1437
       9    H6      20.144975   18.394450   22.699821 H          1 MOL1         0.0947
      10    H7      20.803074   19.740988   21.779327 H          1 MOL1         0.0947
      11    C4      18.926150   20.210944   22.772908 C.3        1 MOL1        -0.1437
      12    H8      17.958099   19.734861   22.981046 H          1 MOL1         0.0947
      13    H9      18.712140   21.047758   22.093657 H          1 MOL1         0.0947
      14    C5      19.531139   20.783119   24.081351 C.3        1 MOL1        -0.1437
      15    H10     20.627679   20.806844   24.016225 H          1 MOL1         0.0947
      16    H11     19.218218   21.832525   24.172243 H          1 MOL1         0.0947
      17    C6      19.090088   20.051662   25.375527 C.3        1 MOL1        -0.1437
      18    H12     17.999550   20.130386   25.484754 H          1 MOL1         0.0947
      19    H13     19.522191   20.587997   26.230506 H          1 MOL1         0.0947
      20    C7      19.504875   18.561487   25.439033 C.3        1 MOL1        -0.1477
      21    H14     18.995828   18.006234   24.641548 H          1 MOL1         0.0947
      22    H15     20.583859   18.461102   25.261952 H          1 MOL1         0.0947
      23    C8      19.139375   17.899029   26.781347 C.3        1 MOL1         0.0145
      24    H16     19.356260   16.828700   26.727629 H          1 MOL1         0.0921
      25    H17     18.069961   18.021093   26.973287 H          1 MOL1         0.0921
      26    N1      19.898436   18.460774   27.967474 N.4        1 MOL1        -0.5969
      27    H18     19.642013   17.988871   28.841615 H          1 MOL1         0.3603
      28    H19     19.711184   19.459593   28.099447 H          1 MOL1         0.3603
      29    H20     20.912033   18.354382   27.855440 H          1 MOL1         0.3603
@<TRIPOS>BOND
    1     1     2    1
    2     1     3    1
    3     1     4    1
    4     1     5    1
    5     5     6    1
    6     5     7    1
    7     5     8    1
    8     8     9    1
    9     8    10    1
   10     8    11    1
   11    11    12    1
   12    11    13    1
   13    11    14    1
   14    14    15    1
   15    14    16    1
   16    14    17    1
   17    17    18    1
   18    17    19    1
   19    17    20    1
   20    20    21    1
   21    20    22    1
   22    20    23    1
   23    23    24    1
   24    23    25    1
   25    23    26    1
   26    26    27    1
   27    26    28    1
   28    26    29    1
@<TRIPOS>SUBSTRUCTURE
       1 MOL1            1 RESIDUE      1      MOL     
@<SCITEGIC>MOL_PROPERTY
VM2 Rank
SciTegic.value.IntegerValue
256

@<SCITEGIC>MOL_PROPERTY
Conf_Id
SciTegic.value.IntegerValue
2584

@<SCITEGIC>MOL_PROPERTY
Probability
SciTegic.value.DoubleValue
0.01

@<SCITEGIC>MOL_PROPERTY
Sum Probability
SciTegic.value.DoubleValue
99.34

@<SCITEGIC>MOL_PROPERTY
Delta G
SciTegic.value.DoubleValue
3.767

@<SCITEGIC>MOL_PROPERTY
G
SciTegic.value.DoubleValue
61.913

@<SCITEGIC>MOL_PROPERTY
E
SciTegic.value.DoubleValue
24.245

@<SCITEGIC>MOL_PROPERTY
-TS
SciTegic.value.DoubleValue
37.668

@<SCITEGIC>MOL_PROPERTY
U+W
SciTegic.value.DoubleValue
0.100

@<SCITEGIC>MOL_PROPERTY
U
SciTegic.value.DoubleValue
51.913

@<SCITEGIC>MOL_PROPERTY
W
SciTegic.value.DoubleValue
-51.812

@<SCITEGIC>MOL_PROPERTY
W(PB)
SciTegic.value.DoubleValue
-54.299

@<SCITEGIC>MOL_PROPERTY
W(SA)
SciTegic.value.DoubleValue
2.486

@<SCITEGIC>MOL_PROPERTY
Valence
SciTegic.value.DoubleValue
5.756

@<SCITEGIC>MOL_PROPERTY
Coulomb
SciTegic.value.DoubleValue
45.246

@<SCITEGIC>MOL_PROPERTY
VdW
SciTegic.value.DoubleValue
0.911

@<SCITEGIC>MOL_PROPERTY
VdW6
SciTegic.value.DoubleValue
-9.117

@<SCITEGIC>MOL_PROPERTY
VdW12
SciTegic.value.DoubleValue
10.028

@<SCITEGIC>MOL_PROPERTY
Bond
SciTegic.value.DoubleValue
0.256

@<SCITEGIC>MOL_PROPERTY
Angle
SciTegic.value.DoubleValue
1.222

@<SCITEGIC>MOL_PROPERTY
Pdih
SciTegic.value.DoubleValue
4.278

@<SCITEGIC>MOL_PROPERTY
Idih
SciTegic.value.DoubleValue
0.000

@<SCITEGIC>MOL_PROPERTY
Tether
SciTegic.value.DoubleValue
0.000

@<TRIPOS>MOLECULE
guest-3_vm2.mol2 : vm2 ligand conformer 257
          29          28           1
SMALL
USER_CHARGES
 
@<TRIPOS>ATOM
       1    C1      20.448788   17.529546   20.537119 C.3        1 MOL1        -0.2427
       2    H1      19.757426   17.450973   19.687964 H          1 MOL1         0.0958
       3    H2      21.336923   18.082914   20.205083 H          1 MOL1         0.0958
       4    H3      20.765904   16.514171   20.808151 H          1 MOL1         0.0958
       5    C2      19.776790   18.229050   21.737520 C.3        1 MOL1        -0.1412
       6    H4      20.486579   18.253436   22.574817 H          1 MOL1         0.0947
       7    H5      18.908498   17.639719   22.063395 H          1 MOL1         0.0947
       8    C3      19.331423   19.666223   21.383664 C.3        1 MOL1        -0.1437
       9    H6      20.215337   20.272655   21.142541 H          1 MOL1         0.0947
      10    H7      18.723398   19.636009   20.468968 H          1 MOL1         0.0947
      11    C4      18.508013   20.373846   22.490769 C.3        1 MOL1        -0.1437
      12    H8      17.567077   19.834009   22.664992 H          1 MOL1         0.0947
      13    H9      18.215450   21.360130   22.104732 H          1 MOL1         0.0947
      14    C5      19.264582   20.584090   23.828221 C.3        1 MOL1        -0.1437
      15    H10     20.344664   20.661545   23.642140 H          1 MOL1         0.0947
      16    H11     18.959813   21.551267   24.251461 H          1 MOL1         0.0947
      17    C6      18.973510   19.484632   24.878836 C.3        1 MOL1        -0.1437
      18    H12     19.219995   18.497887   24.471503 H          1 MOL1         0.0947
      19    H13     17.897763   19.471729   25.102604 H          1 MOL1         0.0947
      20    C7      19.765132   19.720355   26.186703 C.3        1 MOL1        -0.1477
      21    H14     20.843806   19.706385   25.981188 H          1 MOL1         0.0947
      22    H15     19.533376   20.720290   26.577053 H          1 MOL1         0.0947
      23    C8      19.435996   18.682955   27.277351 C.3        1 MOL1         0.0145
      24    H16     18.361333   18.688402   27.478485 H          1 MOL1         0.0921
      25    H17     19.957259   18.949830   28.200714 H          1 MOL1         0.0921
      26    N1      19.839766   17.267302   26.914816 N.4        1 MOL1        -0.5969
      27    H18     20.846474   17.193268   26.734999 H          1 MOL1         0.3603
      28    H19     19.355547   16.938384   26.073750 H          1 MOL1         0.3603
      29    H20     19.619963   16.604880   27.666829 H          1 MOL1         0.3603
@<TRIPOS>BOND
    1     1     2    1
    2     1     3    1
    3     1     4    1
    4     1     5    1
    5     5     6    1
    6     5     7    1
    7     5     8    1
    8     8     9    1
    9     8    10    1
   10     8    11    1
   11    11    12    1
   12    11    13    1
   13    11    14    1
   14    14    15    1
   15    14    16    1
   16    14    17    1
   17    17    18    1
   18    17    19    1
   19    17    20    1
   20    20    21    1
   21    20    22    1
   22    20    23    1
   23    23    24    1
   24    23    25    1
   25    23    26    1
   26    26    27    1
   27    26    28    1
   28    26    29    1
@<TRIPOS>SUBSTRUCTURE
       1 MOL1            1 RESIDUE      1      MOL     
@<SCITEGIC>MOL_PROPERTY
VM2 Rank
SciTegic.value.IntegerValue
257

@<SCITEGIC>MOL_PROPERTY
Conf_Id
SciTegic.value.IntegerValue
1841

@<SCITEGIC>MOL_PROPERTY
Probability
SciTegic.value.DoubleValue
0.01

@<SCITEGIC>MOL_PROPERTY
Sum Probability
SciTegic.value.DoubleValue
99.34

@<SCITEGIC>MOL_PROPERTY
Delta G
SciTegic.value.DoubleValue
3.774

@<SCITEGIC>MOL_PROPERTY
G
SciTegic.value.DoubleValue
61.920

@<SCITEGIC>MOL_PROPERTY
E
SciTegic.value.DoubleValue
24.242

@<SCITEGIC>MOL_PROPERTY
-TS
SciTegic.value.DoubleValue
37.678

@<SCITEGIC>MOL_PROPERTY
U+W
SciTegic.value.DoubleValue
0.098

@<SCITEGIC>MOL_PROPERTY
U
SciTegic.value.DoubleValue
52.545

@<SCITEGIC>MOL_PROPERTY
W
SciTegic.value.DoubleValue
-52.447

@<SCITEGIC>MOL_PROPERTY
W(PB)
SciTegic.value.DoubleValue
-54.905

@<SCITEGIC>MOL_PROPERTY
W(SA)
SciTegic.value.DoubleValue
2.458

@<SCITEGIC>MOL_PROPERTY
Valence
SciTegic.value.DoubleValue
5.714

@<SCITEGIC>MOL_PROPERTY
Coulomb
SciTegic.value.DoubleValue
45.984

@<SCITEGIC>MOL_PROPERTY
VdW
SciTegic.value.DoubleValue
0.847

@<SCITEGIC>MOL_PROPERTY
VdW6
SciTegic.value.DoubleValue
-9.182

@<SCITEGIC>MOL_PROPERTY
VdW12
SciTegic.value.DoubleValue
10.029

@<SCITEGIC>MOL_PROPERTY
Bond
SciTegic.value.DoubleValue
0.253

@<SCITEGIC>MOL_PROPERTY
Angle
SciTegic.value.DoubleValue
1.188

@<SCITEGIC>MOL_PROPERTY
Pdih
SciTegic.value.DoubleValue
4.272

@<SCITEGIC>MOL_PROPERTY
Idih
SciTegic.value.DoubleValue
0.000

@<SCITEGIC>MOL_PROPERTY
Tether
SciTegic.value.DoubleValue
0.000

@<TRIPOS>MOLECULE
guest-3_vm2.mol2 : vm2 ligand conformer 258
          29          28           1
SMALL
USER_CHARGES
 
@<TRIPOS>ATOM
       1    C1      20.152674   17.461866   21.355052 C.3        1 MOL1        -0.2427
       2    H1      21.130985   17.640123   21.819791 H          1 MOL1         0.0958
       3    H2      19.424870   17.238391   22.144784 H          1 MOL1         0.0958
       4    H3      20.237767   16.566814   20.725374 H          1 MOL1         0.0958
       5    C2      19.707710   18.675342   20.510046 C.3        1 MOL1        -0.1412
       6    H4      18.699410   18.492521   20.113062 H          1 MOL1         0.0947
       7    H5      20.368586   18.756914   19.635802 H          1 MOL1         0.0947
       8    C3      19.729553   20.026142   21.270051 C.3        1 MOL1        -0.1437
       9    H6      20.755092   20.267685   21.581505 H          1 MOL1         0.0947
      10    H7      19.444499   20.811215   20.556080 H          1 MOL1         0.0947
      11    C4      18.765867   20.103597   22.482786 C.3        1 MOL1        -0.1437
      12    H8      17.900784   19.446554   22.318380 H          1 MOL1         0.0947
      13    H9      18.364728   21.124767   22.543142 H          1 MOL1         0.0947
      14    C5      19.447502   19.772332   23.832817 C.3        1 MOL1        -0.1437
      15    H10     19.899888   18.775431   23.790767 H          1 MOL1         0.0947
      16    H11     20.267931   20.481624   24.008708 H          1 MOL1         0.0947
      17    C6      18.446561   19.842836   25.010741 C.3        1 MOL1        -0.1437
      18    H12     17.638123   19.115222   24.853955 H          1 MOL1         0.0947
      19    H13     17.973749   20.834613   25.024487 H          1 MOL1         0.0947
      20    C7      19.108265   19.589393   26.385587 C.3        1 MOL1        -0.1477
      21    H14     19.902067   20.329068   26.555144 H          1 MOL1         0.0947
      22    H15     18.360415   19.744039   27.174724 H          1 MOL1         0.0947
      23    C8      19.688242   18.168355   26.513781 C.3        1 MOL1         0.0145
      24    H16     20.466821   18.016613   25.761830 H          1 MOL1         0.0921
      25    H17     18.897907   17.431833   26.345611 H          1 MOL1         0.0921
      26    N1      20.297626   17.898137   27.874139 N.4        1 MOL1        -0.5969
      27    H18     21.067247   18.542886   28.082597 H          1 MOL1         0.3603
      28    H19     20.677831   16.947433   27.939374 H          1 MOL1         0.3603
      29    H20     19.608804   17.996683   28.627334 H          1 MOL1         0.3603
@<TRIPOS>BOND
    1     1     2    1
    2     1     3    1
    3     1     4    1
    4     1     5    1
    5     5     6    1
    6     5     7    1
    7     5     8    1
    8     8     9    1
    9     8    10    1
   10     8    11    1
   11    11    12    1
   12    11    13    1
   13    11    14    1
   14    14    15    1
   15    14    16    1
   16    14    17    1
   17    17    18    1
   18    17    19    1
   19    17    20    1
   20    20    21    1
   21    20    22    1
   22    20    23    1
   23    23    24    1
   24    23    25    1
   25    23    26    1
   26    26    27    1
   27    26    28    1
   28    26    29    1
@<TRIPOS>SUBSTRUCTURE
       1 MOL1            1 RESIDUE      1      MOL     
@<SCITEGIC>MOL_PROPERTY
VM2 Rank
SciTegic.value.IntegerValue
258

@<SCITEGIC>MOL_PROPERTY
Conf_Id
SciTegic.value.IntegerValue
296

@<SCITEGIC>MOL_PROPERTY
Probability
SciTegic.value.DoubleValue
0.01

@<SCITEGIC>MOL_PROPERTY
Sum Probability
SciTegic.value.DoubleValue
99.35

@<SCITEGIC>MOL_PROPERTY
Delta G
SciTegic.value.DoubleValue
3.784

@<SCITEGIC>MOL_PROPERTY
G
SciTegic.value.DoubleValue
61.930

@<SCITEGIC>MOL_PROPERTY
E
SciTegic.value.DoubleValue
24.283

@<SCITEGIC>MOL_PROPERTY
-TS
SciTegic.value.DoubleValue
37.647

@<SCITEGIC>MOL_PROPERTY
U+W
SciTegic.value.DoubleValue
0.138

@<SCITEGIC>MOL_PROPERTY
U
SciTegic.value.DoubleValue
52.045

@<SCITEGIC>MOL_PROPERTY
W
SciTegic.value.DoubleValue
-51.906

@<SCITEGIC>MOL_PROPERTY
W(PB)
SciTegic.value.DoubleValue
-54.363

@<SCITEGIC>MOL_PROPERTY
W(SA)
SciTegic.value.DoubleValue
2.456

@<SCITEGIC>MOL_PROPERTY
Valence
SciTegic.value.DoubleValue
5.849

@<SCITEGIC>MOL_PROPERTY
Coulomb
SciTegic.value.DoubleValue
45.357

@<SCITEGIC>MOL_PROPERTY
VdW
SciTegic.value.DoubleValue
0.839

@<SCITEGIC>MOL_PROPERTY
VdW6
SciTegic.value.DoubleValue
-9.170

@<SCITEGIC>MOL_PROPERTY
VdW12
SciTegic.value.DoubleValue
10.009

@<SCITEGIC>MOL_PROPERTY
Bond
SciTegic.value.DoubleValue
0.253

@<SCITEGIC>MOL_PROPERTY
Angle
SciTegic.value.DoubleValue
1.262

@<SCITEGIC>MOL_PROPERTY
Pdih
SciTegic.value.DoubleValue
4.334

@<SCITEGIC>MOL_PROPERTY
Idih
SciTegic.value.DoubleValue
0.000

@<SCITEGIC>MOL_PROPERTY
Tether
SciTegic.value.DoubleValue
0.000

@<TRIPOS>MOLECULE
guest-3_vm2.mol2 : vm2 ligand conformer 259
          29          28           1
SMALL
USER_CHARGES
 
@<TRIPOS>ATOM
       1    C1      19.784712   19.969483   19.601373 C.3        1 MOL1        -0.2427
       2    H1      20.881715   20.011829   19.595025 H          1 MOL1         0.0958
       3    H2      19.474856   19.052584   19.083167 H          1 MOL1         0.0958
       4    H3      19.410953   20.825423   19.024561 H          1 MOL1         0.0958
       5    C2      19.236825   20.003397   21.043748 C.3        1 MOL1        -0.1412
       6    H4      18.138164   19.993986   21.016696 H          1 MOL1         0.0947
       7    H5      19.534289   20.945896   21.524472 H          1 MOL1         0.0947
       8    C3      19.748246   18.808065   21.877850 C.3        1 MOL1        -0.1437
       9    H6      19.451051   17.868684   21.391407 H          1 MOL1         0.0947
      10    H7      20.846767   18.820682   21.900470 H          1 MOL1         0.0947
      11    C4      19.201834   18.838523   23.322981 C.3        1 MOL1        -0.1437
      12    H8      18.103685   18.820739   23.295902 H          1 MOL1         0.0947
      13    H9      19.493597   19.784839   23.791025 H          1 MOL1         0.0947
      14    C5      19.717354   17.638224   24.154248 C.3        1 MOL1        -0.1437
      15    H10     19.440954   16.715536   23.625300 H          1 MOL1         0.0947
      16    H11     20.815251   17.646147   24.195263 H          1 MOL1         0.0947
      17    C6      19.132676   17.562035   25.588992 C.3        1 MOL1        -0.1437
      18    H12     19.122418   16.505386   25.890333 H          1 MOL1         0.0947
      19    H13     18.080111   17.874950   25.590882 H          1 MOL1         0.0947
      20    C7      19.938287   18.337392   26.665460 C.3        1 MOL1        -0.1477
      21    H14     19.515519   18.114451   27.654087 H          1 MOL1         0.0947
      22    H15     20.969204   17.959918   26.686602 H          1 MOL1         0.0947
      23    C8      19.977185   19.866463   26.482388 C.3        1 MOL1         0.0145
      24    H16     20.466131   20.114587   25.537814 H          1 MOL1         0.0921
      25    H17     20.563349   20.311996   27.290693 H          1 MOL1         0.0921
      26    N1      18.606881   20.514418   26.497960 N.4        1 MOL1        -0.5969
      27    H18     18.117852   20.344427   27.382943 H          1 MOL1         0.3603
      28    H19     18.011307   20.151261   25.747458 H          1 MOL1         0.3603
      29    H20     18.664282   21.531520   26.377126 H          1 MOL1         0.3603
@<TRIPOS>BOND
    1     1     2    1
    2     1     3    1
    3     1     4    1
    4     1     5    1
    5     5     6    1
    6     5     7    1
    7     5     8    1
    8     8     9    1
    9     8    10    1
   10     8    11    1
   11    11    12    1
   12    11    13    1
   13    11    14    1
   14    14    15    1
   15    14    16    1
   16    14    17    1
   17    17    18    1
   18    17    19    1
   19    17    20    1
   20    20    21    1
   21    20    22    1
   22    20    23    1
   23    23    24    1
   24    23    25    1
   25    23    26    1
   26    26    27    1
   27    26    28    1
   28    26    29    1
@<TRIPOS>SUBSTRUCTURE
       1 MOL1            1 RESIDUE      1      MOL     
@<SCITEGIC>MOL_PROPERTY
VM2 Rank
SciTegic.value.IntegerValue
259

@<SCITEGIC>MOL_PROPERTY
Conf_Id
SciTegic.value.IntegerValue
2926

@<SCITEGIC>MOL_PROPERTY
Probability
SciTegic.value.DoubleValue
0.01

@<SCITEGIC>MOL_PROPERTY
Sum Probability
SciTegic.value.DoubleValue
99.36

@<SCITEGIC>MOL_PROPERTY
Delta G
SciTegic.value.DoubleValue
3.785

@<SCITEGIC>MOL_PROPERTY
G
SciTegic.value.DoubleValue
61.931

@<SCITEGIC>MOL_PROPERTY
E
SciTegic.value.DoubleValue
24.224

@<SCITEGIC>MOL_PROPERTY
-TS
SciTegic.value.DoubleValue
37.707

@<SCITEGIC>MOL_PROPERTY
U+W
SciTegic.value.DoubleValue
0.080

@<SCITEGIC>MOL_PROPERTY
U
SciTegic.value.DoubleValue
52.436

@<SCITEGIC>MOL_PROPERTY
W
SciTegic.value.DoubleValue
-52.356

@<SCITEGIC>MOL_PROPERTY
W(PB)
SciTegic.value.DoubleValue
-54.832

@<SCITEGIC>MOL_PROPERTY
W(SA)
SciTegic.value.DoubleValue
2.476

@<SCITEGIC>MOL_PROPERTY
Valence
SciTegic.value.DoubleValue
5.286

@<SCITEGIC>MOL_PROPERTY
Coulomb
SciTegic.value.DoubleValue
46.570

@<SCITEGIC>MOL_PROPERTY
VdW
SciTegic.value.DoubleValue
0.581

@<SCITEGIC>MOL_PROPERTY
VdW6
SciTegic.value.DoubleValue
-9.434

@<SCITEGIC>MOL_PROPERTY
VdW12
SciTegic.value.DoubleValue
10.015

@<SCITEGIC>MOL_PROPERTY
Bond
SciTegic.value.DoubleValue
0.255

@<SCITEGIC>MOL_PROPERTY
Angle
SciTegic.value.DoubleValue
1.436

@<SCITEGIC>MOL_PROPERTY
Pdih
SciTegic.value.DoubleValue
3.595

@<SCITEGIC>MOL_PROPERTY
Idih
SciTegic.value.DoubleValue
0.000

@<SCITEGIC>MOL_PROPERTY
Tether
SciTegic.value.DoubleValue
0.000

@<TRIPOS>MOLECULE
guest-3_vm2.mol2 : vm2 ligand conformer 260
          29          28           1
SMALL
USER_CHARGES
 
@<TRIPOS>ATOM
       1    C1      20.934640   19.848068   20.070199 C.3        1 MOL1        -0.2427
       2    H1      20.824098   20.486690   19.184208 H          1 MOL1         0.0958
       3    H2      21.665136   20.322315   20.738548 H          1 MOL1         0.0958
       4    H3      21.346241   18.884660   19.742057 H          1 MOL1         0.0958
       5    C2      19.576370   19.658553   20.778038 C.3        1 MOL1        -0.1412
       6    H4      18.857573   19.214668   20.075059 H          1 MOL1         0.0947
       7    H5      19.174681   20.640581   21.064604 H          1 MOL1         0.0947
       8    C3      19.703808   18.762390   22.029550 C.3        1 MOL1        -0.1437
       9    H6      20.106133   17.783008   21.735963 H          1 MOL1         0.0947
      10    H7      20.433273   19.204999   22.718043 H          1 MOL1         0.0947
      11    C4      18.340180   18.565340   22.736106 C.3        1 MOL1        -0.1437
      12    H8      17.655425   18.079451   22.027259 H          1 MOL1         0.0947
      13    H9      17.887519   19.537159   22.976450 H          1 MOL1         0.0947
      14    C5      18.429108   17.688436   24.012254 C.3        1 MOL1        -0.1437
      15    H10     17.522340   17.070108   24.065905 H          1 MOL1         0.0947
      16    H11     19.264914   16.979912   23.930841 H          1 MOL1         0.0947
      17    C6      18.531056   18.482115   25.340459 C.3        1 MOL1        -0.1437
      18    H12     18.515121   17.760071   26.167354 H          1 MOL1         0.0947
      19    H13     17.634516   19.105720   25.461847 H          1 MOL1         0.0947
      20    C7      19.792978   19.371302   25.457082 C.3        1 MOL1        -0.1477
      21    H14     20.695197   18.774509   25.268717 H          1 MOL1         0.0947
      22    H15     19.760293   20.154451   24.689601 H          1 MOL1         0.0947
      23    C8      19.909363   20.061676   26.829701 C.3        1 MOL1         0.0145
      24    H16     19.000601   20.634931   27.031987 H          1 MOL1         0.0921
      25    H17     20.754236   20.755588   26.815338 H          1 MOL1         0.0921
      26    N1      20.126497   19.100121   27.981610 N.4        1 MOL1        -0.5969
      27    H18     19.348708   18.439701   28.076534 H          1 MOL1         0.3603
      28    H19     20.213542   19.592676   28.877367 H          1 MOL1         0.3603
      29    H20     20.981014   18.546852   27.859370 H          1 MOL1         0.3603
@<TRIPOS>BOND
    1     1     2    1
    2     1     3    1
    3     1     4    1
    4     1     5    1
    5     5     6    1
    6     5     7    1
    7     5     8    1
    8     8     9    1
    9     8    10    1
   10     8    11    1
   11    11    12    1
   12    11    13    1
   13    11    14    1
   14    14    15    1
   15    14    16    1
   16    14    17    1
   17    17    18    1
   18    17    19    1
   19    17    20    1
   20    20    21    1
   21    20    22    1
   22    20    23    1
   23    23    24    1
   24    23    25    1
   25    23    26    1
   26    26    27    1
   27    26    28    1
   28    26    29    1
@<TRIPOS>SUBSTRUCTURE
       1 MOL1            1 RESIDUE      1      MOL     
@<SCITEGIC>MOL_PROPERTY
VM2 Rank
SciTegic.value.IntegerValue
260

@<SCITEGIC>MOL_PROPERTY
Conf_Id
SciTegic.value.IntegerValue
1646

@<SCITEGIC>MOL_PROPERTY
Probability
SciTegic.value.DoubleValue
0.01

@<SCITEGIC>MOL_PROPERTY
Sum Probability
SciTegic.value.DoubleValue
99.37

@<SCITEGIC>MOL_PROPERTY
Delta G
SciTegic.value.DoubleValue
3.804

@<SCITEGIC>MOL_PROPERTY
G
SciTegic.value.DoubleValue
61.950

@<SCITEGIC>MOL_PROPERTY
E
SciTegic.value.DoubleValue
24.281

@<SCITEGIC>MOL_PROPERTY
-TS
SciTegic.value.DoubleValue
37.669

@<SCITEGIC>MOL_PROPERTY
U+W
SciTegic.value.DoubleValue
0.137

@<SCITEGIC>MOL_PROPERTY
U
SciTegic.value.DoubleValue
51.913

@<SCITEGIC>MOL_PROPERTY
W
SciTegic.value.DoubleValue
-51.776

@<SCITEGIC>MOL_PROPERTY
W(PB)
SciTegic.value.DoubleValue
-54.288

@<SCITEGIC>MOL_PROPERTY
W(SA)
SciTegic.value.DoubleValue
2.511

@<SCITEGIC>MOL_PROPERTY
Valence
SciTegic.value.DoubleValue
5.756

@<SCITEGIC>MOL_PROPERTY
Coulomb
SciTegic.value.DoubleValue
45.246

@<SCITEGIC>MOL_PROPERTY
VdW
SciTegic.value.DoubleValue
0.911

@<SCITEGIC>MOL_PROPERTY
VdW6
SciTegic.value.DoubleValue
-9.117

@<SCITEGIC>MOL_PROPERTY
VdW12
SciTegic.value.DoubleValue
10.028

@<SCITEGIC>MOL_PROPERTY
Bond
SciTegic.value.DoubleValue
0.256

@<SCITEGIC>MOL_PROPERTY
Angle
SciTegic.value.DoubleValue
1.222

@<SCITEGIC>MOL_PROPERTY
Pdih
SciTegic.value.DoubleValue
4.278

@<SCITEGIC>MOL_PROPERTY
Idih
SciTegic.value.DoubleValue
0.000

@<SCITEGIC>MOL_PROPERTY
Tether
SciTegic.value.DoubleValue
0.000

@<TRIPOS>MOLECULE
guest-3_vm2.mol2 : vm2 ligand conformer 261
          29          28           1
SMALL
USER_CHARGES
 
@<TRIPOS>ATOM
       1    C1      21.103972   19.105029   20.938594 C.3        1 MOL1        -0.2427
       2    H1      21.120023   19.951520   21.636066 H          1 MOL1         0.0958
       3    H2      21.454642   18.208849   21.466561 H          1 MOL1         0.0958
       4    H3      21.822010   19.326404   20.138426 H          1 MOL1         0.0958
       5    C2      19.692058   18.889449   20.351773 C.3        1 MOL1        -0.1412
       6    H4      19.757539   18.153471   19.538284 H          1 MOL1         0.0947
       7    H5      19.343228   19.823458   19.889569 H          1 MOL1         0.0947
       8    C3      18.641965   18.394231   21.378731 C.3        1 MOL1        -0.1437
       9    H6      17.700828   18.231001   20.835621 H          1 MOL1         0.0947
      10    H7      18.932045   17.409585   21.770356 H          1 MOL1         0.0947
      11    C4      18.361515   19.377014   22.545366 C.3        1 MOL1        -0.1437
      12    H8      17.296126   19.311387   22.806146 H          1 MOL1         0.0947
      13    H9      18.530140   20.411067   22.214649 H          1 MOL1         0.0947
      14    C5      19.188365   19.074067   23.818844 C.3        1 MOL1        -0.1437
      15    H10     18.963243   18.053718   24.156453 H          1 MOL1         0.0947
      16    H11     20.260862   19.099701   23.593077 H          1 MOL1         0.0947
      17    C6      18.881419   20.081905   24.952193 C.3        1 MOL1        -0.1437
      18    H12     17.816167   20.029753   25.216930 H          1 MOL1         0.0947
      19    H13     19.061173   21.102218   24.586112 H          1 MOL1         0.0947
      20    C7      19.739441   19.851447   26.218272 C.3        1 MOL1        -0.1477
      21    H14     20.804352   19.929484   25.961602 H          1 MOL1         0.0947
      22    H15     19.530553   20.651648   26.940748 H          1 MOL1         0.0947
      23    C8      19.465368   18.489383   26.882770 C.3        1 MOL1         0.0145
      24    H16     19.712092   17.682140   26.188402 H          1 MOL1         0.0921
      25    H17     18.405409   18.411834   27.139362 H          1 MOL1         0.0921
      26    N1      20.269896   18.275475   28.148457 N.4        1 MOL1        -0.5969
      27    H18     20.073096   17.363559   28.575479 H          1 MOL1         0.3603
      28    H19     20.063668   18.987684   28.856781 H          1 MOL1         0.3603
      29    H20     21.279036   18.310446   27.969910 H          1 MOL1         0.3603
@<TRIPOS>BOND
    1     1     2    1
    2     1     3    1
    3     1     4    1
    4     1     5    1
    5     5     6    1
    6     5     7    1
    7     5     8    1
    8     8     9    1
    9     8    10    1
   10     8    11    1
   11    11    12    1
   12    11    13    1
   13    11    14    1
   14    14    15    1
   15    14    16    1
   16    14    17    1
   17    17    18    1
   18    17    19    1
   19    17    20    1
   20    20    21    1
   21    20    22    1
   22    20    23    1
   23    23    24    1
   24    23    25    1
   25    23    26    1
   26    26    27    1
   27    26    28    1
   28    26    29    1
@<TRIPOS>SUBSTRUCTURE
       1 MOL1            1 RESIDUE      1      MOL     
@<SCITEGIC>MOL_PROPERTY
VM2 Rank
SciTegic.value.IntegerValue
261

@<SCITEGIC>MOL_PROPERTY
Conf_Id
SciTegic.value.IntegerValue
1984

@<SCITEGIC>MOL_PROPERTY
Probability
SciTegic.value.DoubleValue
0.01

@<SCITEGIC>MOL_PROPERTY
Sum Probability
SciTegic.value.DoubleValue
99.38

@<SCITEGIC>MOL_PROPERTY
Delta G
SciTegic.value.DoubleValue
3.824

@<SCITEGIC>MOL_PROPERTY
G
SciTegic.value.DoubleValue
61.971

@<SCITEGIC>MOL_PROPERTY
E
SciTegic.value.DoubleValue
24.335

@<SCITEGIC>MOL_PROPERTY
-TS
SciTegic.value.DoubleValue
37.636

@<SCITEGIC>MOL_PROPERTY
U+W
SciTegic.value.DoubleValue
0.190

@<SCITEGIC>MOL_PROPERTY
U
SciTegic.value.DoubleValue
51.875

@<SCITEGIC>MOL_PROPERTY
W
SciTegic.value.DoubleValue
-51.685

@<SCITEGIC>MOL_PROPERTY
W(PB)
SciTegic.value.DoubleValue
-54.171

@<SCITEGIC>MOL_PROPERTY
W(SA)
SciTegic.value.DoubleValue
2.486

@<SCITEGIC>MOL_PROPERTY
Valence
SciTegic.value.DoubleValue
5.854

@<SCITEGIC>MOL_PROPERTY
Coulomb
SciTegic.value.DoubleValue
45.145

@<SCITEGIC>MOL_PROPERTY
VdW
SciTegic.value.DoubleValue
0.877

@<SCITEGIC>MOL_PROPERTY
VdW6
SciTegic.value.DoubleValue
-9.103

@<SCITEGIC>MOL_PROPERTY
VdW12
SciTegic.value.DoubleValue
9.980

@<SCITEGIC>MOL_PROPERTY
Bond
SciTegic.value.DoubleValue
0.252

@<SCITEGIC>MOL_PROPERTY
Angle
SciTegic.value.DoubleValue
1.282

@<SCITEGIC>MOL_PROPERTY
Pdih
SciTegic.value.DoubleValue
4.319

@<SCITEGIC>MOL_PROPERTY
Idih
SciTegic.value.DoubleValue
0.000

@<SCITEGIC>MOL_PROPERTY
Tether
SciTegic.value.DoubleValue
0.000

@<TRIPOS>MOLECULE
guest-3_vm2.mol2 : vm2 ligand conformer 262
          29          28           1
SMALL
USER_CHARGES
 
@<TRIPOS>ATOM
       1    C1      20.508989   17.928137   20.173773 C.3        1 MOL1        -0.2427
       2    H1      21.430663   17.743388   20.740865 H          1 MOL1         0.0958
       3    H2      20.187306   16.975362   19.733583 H          1 MOL1         0.0958
       4    H3      20.745289   18.616413   19.351780 H          1 MOL1         0.0958
       5    C2      19.405607   18.508215   21.083537 C.3        1 MOL1        -0.1412
       6    H4      19.164648   17.778085   21.865301 H          1 MOL1         0.0947
       7    H5      18.488412   18.649301   20.494851 H          1 MOL1         0.0947
       8    C3      19.833102   19.858531   21.707485 C.3        1 MOL1        -0.1437
       9    H6      20.781229   19.746598   22.251183 H          1 MOL1         0.0947
      10    H7      20.034869   20.563271   20.888928 H          1 MOL1         0.0947
      11    C4      18.756473   20.480111   22.634946 C.3        1 MOL1        -0.1437
      12    H8      17.751539   20.177094   22.310273 H          1 MOL1         0.0947
      13    H9      18.789624   21.571590   22.512639 H          1 MOL1         0.0947
      14    C5      18.945422   20.175034   24.143290 C.3        1 MOL1        -0.1437
      15    H10     19.913379   20.577020   24.471500 H          1 MOL1         0.0947
      16    H11     18.178180   20.726424   24.704151 H          1 MOL1         0.0947
      17    C6      18.851016   18.672771   24.505495 C.3        1 MOL1        -0.1437
      18    H12     19.701090   18.130504   24.070992 H          1 MOL1         0.0947
      19    H13     17.940553   18.248501   24.060476 H          1 MOL1         0.0947
      20    C7      18.822716   18.420479   26.031086 C.3        1 MOL1        -0.1477
      21    H14     17.956273   18.929753   26.473685 H          1 MOL1         0.0947
      22    H15     18.682735   17.346533   26.212628 H          1 MOL1         0.0947
      23    C8      20.111643   18.886797   26.733192 C.3        1 MOL1         0.0145
      24    H16     20.240149   19.963284   26.593730 H          1 MOL1         0.0921
      25    H17     20.974144   18.376921   26.295615 H          1 MOL1         0.0921
      26    N1      20.109032   18.607925   28.222197 N.4        1 MOL1        -0.5969
      27    H18     20.975223   18.925749   28.670921 H          1 MOL1         0.3603
      28    H19     20.018690   17.606404   28.422858 H          1 MOL1         0.3603
      29    H20     19.334405   19.082298   28.698009 H          1 MOL1         0.3603
@<TRIPOS>BOND
    1     1     2    1
    2     1     3    1
    3     1     4    1
    4     1     5    1
    5     5     6    1
    6     5     7    1
    7     5     8    1
    8     8     9    1
    9     8    10    1
   10     8    11    1
   11    11    12    1
   12    11    13    1
   13    11    14    1
   14    14    15    1
   15    14    16    1
   16    14    17    1
   17    17    18    1
   18    17    19    1
   19    17    20    1
   20    20    21    1
   21    20    22    1
   22    20    23    1
   23    23    24    1
   24    23    25    1
   25    23    26    1
   26    26    27    1
   27    26    28    1
   28    26    29    1
@<TRIPOS>SUBSTRUCTURE
       1 MOL1            1 RESIDUE      1      MOL     
@<SCITEGIC>MOL_PROPERTY
VM2 Rank
SciTegic.value.IntegerValue
262

@<SCITEGIC>MOL_PROPERTY
Conf_Id
SciTegic.value.IntegerValue
264

@<SCITEGIC>MOL_PROPERTY
Probability
SciTegic.value.DoubleValue
0.01

@<SCITEGIC>MOL_PROPERTY
Sum Probability
SciTegic.value.DoubleValue
99.39

@<SCITEGIC>MOL_PROPERTY
Delta G
SciTegic.value.DoubleValue
3.829

@<SCITEGIC>MOL_PROPERTY
G
SciTegic.value.DoubleValue
61.975

@<SCITEGIC>MOL_PROPERTY
E
SciTegic.value.DoubleValue
24.308

@<SCITEGIC>MOL_PROPERTY
-TS
SciTegic.value.DoubleValue
37.667

@<SCITEGIC>MOL_PROPERTY
U+W
SciTegic.value.DoubleValue
0.164

@<SCITEGIC>MOL_PROPERTY
U
SciTegic.value.DoubleValue
51.913

@<SCITEGIC>MOL_PROPERTY
W
SciTegic.value.DoubleValue
-51.750

@<SCITEGIC>MOL_PROPERTY
W(PB)
SciTegic.value.DoubleValue
-54.233

@<SCITEGIC>MOL_PROPERTY
W(SA)
SciTegic.value.DoubleValue
2.484

@<SCITEGIC>MOL_PROPERTY
Valence
SciTegic.value.DoubleValue
5.891

@<SCITEGIC>MOL_PROPERTY
Coulomb
SciTegic.value.DoubleValue
45.203

@<SCITEGIC>MOL_PROPERTY
VdW
SciTegic.value.DoubleValue
0.819

@<SCITEGIC>MOL_PROPERTY
VdW6
SciTegic.value.DoubleValue
-9.200

@<SCITEGIC>MOL_PROPERTY
VdW12
SciTegic.value.DoubleValue
10.019

@<SCITEGIC>MOL_PROPERTY
Bond
SciTegic.value.DoubleValue
0.252

@<SCITEGIC>MOL_PROPERTY
Angle
SciTegic.value.DoubleValue
1.265

@<SCITEGIC>MOL_PROPERTY
Pdih
SciTegic.value.DoubleValue
4.374

@<SCITEGIC>MOL_PROPERTY
Idih
SciTegic.value.DoubleValue
0.000

@<SCITEGIC>MOL_PROPERTY
Tether
SciTegic.value.DoubleValue
0.000

@<TRIPOS>MOLECULE
guest-3_vm2.mol2 : vm2 ligand conformer 263
          29          28           1
SMALL
USER_CHARGES
 
@<TRIPOS>ATOM
       1    C1      21.046139   19.434951   20.207659 C.3        1 MOL1        -0.2427
       2    H1      21.405368   20.393029   19.810082 H          1 MOL1         0.0958
       3    H2      21.868938   18.972991   20.768732 H          1 MOL1         0.0958
       4    H3      20.805927   18.785393   19.355833 H          1 MOL1         0.0958
       5    C2      19.811629   19.647479   21.109008 C.3        1 MOL1        -0.1412
       6    H4      19.020213   20.141266   20.528028 H          1 MOL1         0.0947
       7    H5      20.075261   20.333957   21.922368 H          1 MOL1         0.0947
       8    C3      19.280478   18.307603   21.672952 C.3        1 MOL1        -0.1437
       9    H6      19.003018   17.667014   20.824388 H          1 MOL1         0.0947
      10    H7      20.078084   17.773462   22.207370 H          1 MOL1         0.0947
      11    C4      18.040246   18.470427   22.590007 C.3        1 MOL1        -0.1437
      12    H8      17.377739   17.609654   22.424053 H          1 MOL1         0.0947
      13    H9      17.457830   19.353001   22.291711 H          1 MOL1         0.0947
      14    C5      18.358012   18.527379   24.106469 C.3        1 MOL1        -0.1437
      15    H10     17.407084   18.563532   24.655727 H          1 MOL1         0.0947
      16    H11     18.849109   17.591417   24.404887 H          1 MOL1         0.0947
      17    C6      19.229402   19.735210   24.529228 C.3        1 MOL1        -0.1437
      18    H12     18.798498   20.656715   24.114330 H          1 MOL1         0.0947
      19    H13     20.236883   19.634721   24.104543 H          1 MOL1         0.0947
      20    C7      19.345518   19.887810   26.063862 C.3        1 MOL1        -0.1477
      21    H14     19.913447   20.800135   26.289766 H          1 MOL1         0.0947
      22    H15     18.346118   20.023912   26.498208 H          1 MOL1         0.0947
      23    C8      20.039398   18.684292   26.728554 C.3        1 MOL1         0.0145
      24    H16     21.035925   18.550762   26.299068 H          1 MOL1         0.0921
      25    H17     19.460212   17.775643   26.545020 H          1 MOL1         0.0921
      26    N1      20.193178   18.842848   28.227260 N.4        1 MOL1        -0.5969
      27    H18     20.753696   19.666941   28.468432 H          1 MOL1         0.3603
      28    H19     20.656995   18.031522   28.650670 H          1 MOL1         0.3603
      29    H20     19.286650   18.946785   28.695102 H          1 MOL1         0.3603
@<TRIPOS>BOND
    1     1     2    1
    2     1     3    1
    3     1     4    1
    4     1     5    1
    5     5     6    1
    6     5     7    1
    7     5     8    1
    8     8     9    1
    9     8    10    1
   10     8    11    1
   11    11    12    1
   12    11    13    1
   13    11    14    1
   14    14    15    1
   15    14    16    1
   16    14    17    1
   17    17    18    1
   18    17    19    1
   19    17    20    1
   20    20    21    1
   21    20    22    1
   22    20    23    1
   23    23    24    1
   24    23    25    1
   25    23    26    1
   26    26    27    1
   27    26    28    1
   28    26    29    1
@<TRIPOS>SUBSTRUCTURE
       1 MOL1            1 RESIDUE      1      MOL     
@<SCITEGIC>MOL_PROPERTY
VM2 Rank
SciTegic.value.IntegerValue
263

@<SCITEGIC>MOL_PROPERTY
Conf_Id
SciTegic.value.IntegerValue
1548

@<SCITEGIC>MOL_PROPERTY
Probability
SciTegic.value.DoubleValue
0.01

@<SCITEGIC>MOL_PROPERTY
Sum Probability
SciTegic.value.DoubleValue
99.40

@<SCITEGIC>MOL_PROPERTY
Delta G
SciTegic.value.DoubleValue
3.834

@<SCITEGIC>MOL_PROPERTY
G
SciTegic.value.DoubleValue
61.981

@<SCITEGIC>MOL_PROPERTY
E
SciTegic.value.DoubleValue
24.314

@<SCITEGIC>MOL_PROPERTY
-TS
SciTegic.value.DoubleValue
37.667

@<SCITEGIC>MOL_PROPERTY
U+W
SciTegic.value.DoubleValue
0.169

@<SCITEGIC>MOL_PROPERTY
U
SciTegic.value.DoubleValue
51.913

@<SCITEGIC>MOL_PROPERTY
W
SciTegic.value.DoubleValue
-51.744

@<SCITEGIC>MOL_PROPERTY
W(PB)
SciTegic.value.DoubleValue
-54.215

@<SCITEGIC>MOL_PROPERTY
W(SA)
SciTegic.value.DoubleValue
2.471

@<SCITEGIC>MOL_PROPERTY
Valence
SciTegic.value.DoubleValue
5.891

@<SCITEGIC>MOL_PROPERTY
Coulomb
SciTegic.value.DoubleValue
45.203

@<SCITEGIC>MOL_PROPERTY
VdW
SciTegic.value.DoubleValue
0.819

@<SCITEGIC>MOL_PROPERTY
VdW6
SciTegic.value.DoubleValue
-9.201

@<SCITEGIC>MOL_PROPERTY
VdW12
SciTegic.value.DoubleValue
10.020

@<SCITEGIC>MOL_PROPERTY
Bond
SciTegic.value.DoubleValue
0.252

@<SCITEGIC>MOL_PROPERTY
Angle
SciTegic.value.DoubleValue
1.264

@<SCITEGIC>MOL_PROPERTY
Pdih
SciTegic.value.DoubleValue
4.374

@<SCITEGIC>MOL_PROPERTY
Idih
SciTegic.value.DoubleValue
0.000

@<SCITEGIC>MOL_PROPERTY
Tether
SciTegic.value.DoubleValue
0.000

@<TRIPOS>MOLECULE
guest-3_vm2.mol2 : vm2 ligand conformer 264
          29          28           1
SMALL
USER_CHARGES
 
@<TRIPOS>ATOM
       1    C1      20.127610   17.277295   20.732782 C.3        1 MOL1        -0.2427
       2    H1      20.366728   17.654662   19.729960 H          1 MOL1         0.0958
       3    H2      21.070849   17.107601   21.268223 H          1 MOL1         0.0958
       4    H3      19.626316   16.307563   20.617260 H          1 MOL1         0.0958
       5    C2      19.226436   18.268856   21.498411 C.3        1 MOL1        -0.1412
       6    H4      18.971825   17.842013   22.475829 H          1 MOL1         0.0947
       7    H5      18.278825   18.390205   20.955244 H          1 MOL1         0.0947
       8    C3      19.908293   19.648543   21.663171 C.3        1 MOL1        -0.1437
       9    H6      20.890538   19.536687   22.142502 H          1 MOL1         0.0947
      10    H7      20.105161   20.053323   20.660778 H          1 MOL1         0.0947
      11    C4      19.046296   20.673102   22.446010 C.3        1 MOL1        -0.1437
      12    H8      17.977978   20.455167   22.310552 H          1 MOL1         0.0947
      13    H9      19.204262   21.664730   21.999813 H          1 MOL1         0.0947
      14    C5      19.380618   20.783075   23.956118 C.3        1 MOL1        -0.1437
      15    H10     20.422629   21.110595   24.075467 H          1 MOL1         0.0947
      16    H11     18.758694   21.579017   24.388516 H          1 MOL1         0.0947
      17    C6      19.157894   19.478358   24.755523 C.3        1 MOL1        -0.1437
      18    H12     19.859938   18.712502   24.403375 H          1 MOL1         0.0947
      19    H13     18.142466   19.101815   24.570101 H          1 MOL1         0.0947
      20    C7      19.357456   19.695436   26.274082 C.3        1 MOL1        -0.1477
      21    H14     20.377682   20.049942   26.472733 H          1 MOL1         0.0947
      22    H15     18.677908   20.484986   26.621560 H          1 MOL1         0.0947
      23    C8      19.085421   18.421984   27.097729 C.3        1 MOL1         0.0145
      24    H16     18.073340   18.061500   26.894934 H          1 MOL1         0.0921
      25    H17     19.156755   18.657110   28.163169 H          1 MOL1         0.0921
      26    N1      20.053976   17.291351   26.811172 N.4        1 MOL1        -0.5969
      27    H18     20.012132   16.995206   25.831077 H          1 MOL1         0.3603
      28    H19     19.853517   16.464383   27.384388 H          1 MOL1         0.3603
      29    H20     21.023395   17.562915   27.005612 H          1 MOL1         0.3603
@<TRIPOS>BOND
    1     1     2    1
    2     1     3    1
    3     1     4    1
    4     1     5    1
    5     5     6    1
    6     5     7    1
    7     5     8    1
    8     8     9    1
    9     8    10    1
   10     8    11    1
   11    11    12    1
   12    11    13    1
   13    11    14    1
   14    14    15    1
   15    14    16    1
   16    14    17    1
   17    17    18    1
   18    17    19    1
   19    17    20    1
   20    20    21    1
   21    20    22    1
   22    20    23    1
   23    23    24    1
   24    23    25    1
   25    23    26    1
   26    26    27    1
   27    26    28    1
   28    26    29    1
@<TRIPOS>SUBSTRUCTURE
       1 MOL1            1 RESIDUE      1      MOL     
@<SCITEGIC>MOL_PROPERTY
VM2 Rank
SciTegic.value.IntegerValue
264

@<SCITEGIC>MOL_PROPERTY
Conf_Id
SciTegic.value.IntegerValue
2957

@<SCITEGIC>MOL_PROPERTY
Probability
SciTegic.value.DoubleValue
0.01

@<SCITEGIC>MOL_PROPERTY
Sum Probability
SciTegic.value.DoubleValue
99.41

@<SCITEGIC>MOL_PROPERTY
Delta G
SciTegic.value.DoubleValue
3.845

@<SCITEGIC>MOL_PROPERTY
G
SciTegic.value.DoubleValue
61.991

@<SCITEGIC>MOL_PROPERTY
E
SciTegic.value.DoubleValue
24.306

@<SCITEGIC>MOL_PROPERTY
-TS
SciTegic.value.DoubleValue
37.684

@<SCITEGIC>MOL_PROPERTY
U+W
SciTegic.value.DoubleValue
0.162

@<SCITEGIC>MOL_PROPERTY
U
SciTegic.value.DoubleValue
52.464

@<SCITEGIC>MOL_PROPERTY
W
SciTegic.value.DoubleValue
-52.302

@<SCITEGIC>MOL_PROPERTY
W(PB)
SciTegic.value.DoubleValue
-54.765

@<SCITEGIC>MOL_PROPERTY
W(SA)
SciTegic.value.DoubleValue
2.463

@<SCITEGIC>MOL_PROPERTY
Valence
SciTegic.value.DoubleValue
5.708

@<SCITEGIC>MOL_PROPERTY
Coulomb
SciTegic.value.DoubleValue
45.914

@<SCITEGIC>MOL_PROPERTY
VdW
SciTegic.value.DoubleValue
0.842

@<SCITEGIC>MOL_PROPERTY
VdW6
SciTegic.value.DoubleValue
-9.209

@<SCITEGIC>MOL_PROPERTY
VdW12
SciTegic.value.DoubleValue
10.051

@<SCITEGIC>MOL_PROPERTY
Bond
SciTegic.value.DoubleValue
0.252

@<SCITEGIC>MOL_PROPERTY
Angle
SciTegic.value.DoubleValue
1.191

@<SCITEGIC>MOL_PROPERTY
Pdih
SciTegic.value.DoubleValue
4.265

@<SCITEGIC>MOL_PROPERTY
Idih
SciTegic.value.DoubleValue
0.000

@<SCITEGIC>MOL_PROPERTY
Tether
SciTegic.value.DoubleValue
0.000

@<TRIPOS>MOLECULE
guest-3_vm2.mol2 : vm2 ligand conformer 265
          29          28           1
SMALL
USER_CHARGES
 
@<TRIPOS>ATOM
       1    C1      21.216943   18.431949   21.167593 C.3        1 MOL1        -0.2427
       2    H1      21.271350   18.303248   22.254117 H          1 MOL1         0.0958
       3    H2      21.628030   17.525567   20.704603 H          1 MOL1         0.0958
       4    H3      21.869847   19.270885   20.893854 H          1 MOL1         0.0958
       5    C2      19.769603   18.678342   20.681478 C.3        1 MOL1        -0.1412
       6    H4      19.139584   17.804493   20.898332 H          1 MOL1         0.0947
       7    H5      19.791892   18.770562   19.586553 H          1 MOL1         0.0947
       8    C3      19.131801   19.962309   21.271796 C.3        1 MOL1        -0.1437
       9    H6      19.907920   20.712615   21.476256 H          1 MOL1         0.0947
      10    H7      18.485770   20.407526   20.502524 H          1 MOL1         0.0947
      11    C4      18.262559   19.736422   22.535785 C.3        1 MOL1        -0.1437
      12    H8      17.426150   19.068289   22.288366 H          1 MOL1         0.0947
      13    H9      17.812447   20.697890   22.819064 H          1 MOL1         0.0947
      14    C5      19.034842   19.166308   23.747696 C.3        1 MOL1        -0.1437
      15    H10     19.374442   18.147567   23.520533 H          1 MOL1         0.0947
      16    H11     19.929743   19.777058   23.926137 H          1 MOL1         0.0947
      17    C6      18.156487   19.130003   25.021125 C.3        1 MOL1        -0.1437
      18    H12     17.237972   18.564941   24.810297 H          1 MOL1         0.0947
      19    H13     17.841190   20.149352   25.283950 H          1 MOL1         0.0947
      20    C7      18.870311   18.483497   26.231384 C.3        1 MOL1        -0.1477
      21    H14     18.162732   18.416598   27.068512 H          1 MOL1         0.0947
      22    H15     19.160638   17.454207   25.981837 H          1 MOL1         0.0947
      23    C8      20.111082   19.276265   26.682960 C.3        1 MOL1         0.0145
      24    H16     19.822274   20.300735   26.932801 H          1 MOL1         0.0921
      25    H17     20.842968   19.312280   25.871959 H          1 MOL1         0.0921
      26    N1      20.790371   18.672906   27.895183 N.4        1 MOL1        -0.5969
      27    H18     21.110322   17.715239   27.716404 H          1 MOL1         0.3603
      28    H19     20.162680   18.635325   28.705173 H          1 MOL1         0.3603
      29    H20     21.613532   19.215095   28.179950 H          1 MOL1         0.3603
@<TRIPOS>BOND
    1     1     2    1
    2     1     3    1
    3     1     4    1
    4     1     5    1
    5     5     6    1
    6     5     7    1
    7     5     8    1
    8     8     9    1
    9     8    10    1
   10     8    11    1
   11    11    12    1
   12    11    13    1
   13    11    14    1
   14    14    15    1
   15    14    16    1
   16    14    17    1
   17    17    18    1
   18    17    19    1
   19    17    20    1
   20    20    21    1
   21    20    22    1
   22    20    23    1
   23    23    24    1
   24    23    25    1
   25    23    26    1
   26    26    27    1
   27    26    28    1
   28    26    29    1
@<TRIPOS>SUBSTRUCTURE
       1 MOL1            1 RESIDUE      1      MOL     
@<SCITEGIC>MOL_PROPERTY
VM2 Rank
SciTegic.value.IntegerValue
265

@<SCITEGIC>MOL_PROPERTY
Conf_Id
SciTegic.value.IntegerValue
2327

@<SCITEGIC>MOL_PROPERTY
Probability
SciTegic.value.DoubleValue
0.01

@<SCITEGIC>MOL_PROPERTY
Sum Probability
SciTegic.value.DoubleValue
99.41

@<SCITEGIC>MOL_PROPERTY
Delta G
SciTegic.value.DoubleValue
3.847

@<SCITEGIC>MOL_PROPERTY
G
SciTegic.value.DoubleValue
61.993

@<SCITEGIC>MOL_PROPERTY
E
SciTegic.value.DoubleValue
24.358

@<SCITEGIC>MOL_PROPERTY
-TS
SciTegic.value.DoubleValue
37.635

@<SCITEGIC>MOL_PROPERTY
U+W
SciTegic.value.DoubleValue
0.213

@<SCITEGIC>MOL_PROPERTY
U
SciTegic.value.DoubleValue
52.035

@<SCITEGIC>MOL_PROPERTY
W
SciTegic.value.DoubleValue
-51.821

@<SCITEGIC>MOL_PROPERTY
W(PB)
SciTegic.value.DoubleValue
-54.285

@<SCITEGIC>MOL_PROPERTY
W(SA)
SciTegic.value.DoubleValue
2.464

@<SCITEGIC>MOL_PROPERTY
Valence
SciTegic.value.DoubleValue
5.871

@<SCITEGIC>MOL_PROPERTY
Coulomb
SciTegic.value.DoubleValue
45.296

@<SCITEGIC>MOL_PROPERTY
VdW
SciTegic.value.DoubleValue
0.868

@<SCITEGIC>MOL_PROPERTY
VdW6
SciTegic.value.DoubleValue
-9.137

@<SCITEGIC>MOL_PROPERTY
VdW12
SciTegic.value.DoubleValue
10.005

@<SCITEGIC>MOL_PROPERTY
Bond
SciTegic.value.DoubleValue
0.251

@<SCITEGIC>MOL_PROPERTY
Angle
SciTegic.value.DoubleValue
1.315

@<SCITEGIC>MOL_PROPERTY
Pdih
SciTegic.value.DoubleValue
4.305

@<SCITEGIC>MOL_PROPERTY
Idih
SciTegic.value.DoubleValue
0.000

@<SCITEGIC>MOL_PROPERTY
Tether
SciTegic.value.DoubleValue
0.000

@<TRIPOS>MOLECULE
guest-3_vm2.mol2 : vm2 ligand conformer 266
          29          28           1
SMALL
USER_CHARGES
 
@<TRIPOS>ATOM
       1    C1      21.262187   18.559048   21.170390 C.3        1 MOL1        -0.2427
       2    H1      22.159923   19.019350   20.737870 H          1 MOL1         0.0958
       3    H2      21.370370   18.581308   22.260279 H          1 MOL1         0.0958
       4    H3      21.242066   17.507939   20.854484 H          1 MOL1         0.0958
       5    C2      19.991625   19.301907   20.695370 C.3        1 MOL1        -0.1412
       6    H4      19.966077   19.259792   19.597448 H          1 MOL1         0.0947
       7    H5      20.052324   20.367831   20.955524 H          1 MOL1         0.0947
       8    C3      18.677833   18.687464   21.243316 C.3        1 MOL1        -0.1437
       9    H6      17.906705   18.781425   20.466214 H          1 MOL1         0.0947
      10    H7      18.802460   17.608190   21.406903 H          1 MOL1         0.0947
      11    C4      18.129030   19.361397   22.527413 C.3        1 MOL1        -0.1437
      12    H8      17.168776   18.890198   22.778716 H          1 MOL1         0.0947
      13    H9      17.906350   20.416840   22.318484 H          1 MOL1         0.0947
      14    C5      19.070679   19.266861   23.749929 C.3        1 MOL1        -0.1437
      15    H10     19.375924   18.221625   23.891388 H          1 MOL1         0.0947
      16    H11     19.980666   19.850001   23.558524 H          1 MOL1         0.0947
      17    C6      18.394896   19.799411   25.036067 C.3        1 MOL1        -0.1437
      18    H12     17.502835   19.199061   25.262710 H          1 MOL1         0.0947
      19    H13     18.042976   20.825490   24.860779 H          1 MOL1         0.0947
      20    C7      19.339485   19.800979   26.260807 C.3        1 MOL1        -0.1477
      21    H14     20.218305   20.424243   26.048165 H          1 MOL1         0.0947
      22    H15     18.821544   20.266657   27.109812 H          1 MOL1         0.0947
      23    C8      19.793865   18.385493   26.663114 C.3        1 MOL1         0.0145
      24    H16     20.349785   17.927320   25.841099 H          1 MOL1         0.0921
      25    H17     18.919265   17.764992   26.876240 H          1 MOL1         0.0921
      26    N1      20.684400   18.375442   27.888595 N.4        1 MOL1        -0.5969
      27    H18     21.539930   18.921736   27.743376 H          1 MOL1         0.3603
      28    H19     20.975793   17.424389   28.140076 H          1 MOL1         0.3603
      29    H20     20.210237   18.769063   28.708182 H          1 MOL1         0.3603
@<TRIPOS>BOND
    1     1     2    1
    2     1     3    1
    3     1     4    1
    4     1     5    1
    5     5     6    1
    6     5     7    1
    7     5     8    1
    8     8     9    1
    9     8    10    1
   10     8    11    1
   11    11    12    1
   12    11    13    1
   13    11    14    1
   14    14    15    1
   15    14    16    1
   16    14    17    1
   17    17    18    1
   18    17    19    1
   19    17    20    1
   20    20    21    1
   21    20    22    1
   22    20    23    1
   23    23    24    1
   24    23    25    1
   25    23    26    1
   26    26    27    1
   27    26    28    1
   28    26    29    1
@<TRIPOS>SUBSTRUCTURE
       1 MOL1            1 RESIDUE      1      MOL     
@<SCITEGIC>MOL_PROPERTY
VM2 Rank
SciTegic.value.IntegerValue
266

@<SCITEGIC>MOL_PROPERTY
Conf_Id
SciTegic.value.IntegerValue
1338

@<SCITEGIC>MOL_PROPERTY
Probability
SciTegic.value.DoubleValue
0.01

@<SCITEGIC>MOL_PROPERTY
Sum Probability
SciTegic.value.DoubleValue
99.42

@<SCITEGIC>MOL_PROPERTY
Delta G
SciTegic.value.DoubleValue
3.850

@<SCITEGIC>MOL_PROPERTY
G
SciTegic.value.DoubleValue
61.996

@<SCITEGIC>MOL_PROPERTY
E
SciTegic.value.DoubleValue
24.360

@<SCITEGIC>MOL_PROPERTY
-TS
SciTegic.value.DoubleValue
37.635

@<SCITEGIC>MOL_PROPERTY
U+W
SciTegic.value.DoubleValue
0.216

@<SCITEGIC>MOL_PROPERTY
U
SciTegic.value.DoubleValue
52.035

@<SCITEGIC>MOL_PROPERTY
W
SciTegic.value.DoubleValue
-51.819

@<SCITEGIC>MOL_PROPERTY
W(PB)
SciTegic.value.DoubleValue
-54.309

@<SCITEGIC>MOL_PROPERTY
W(SA)
SciTegic.value.DoubleValue
2.490

@<SCITEGIC>MOL_PROPERTY
Valence
SciTegic.value.DoubleValue
5.871

@<SCITEGIC>MOL_PROPERTY
Coulomb
SciTegic.value.DoubleValue
45.296

@<SCITEGIC>MOL_PROPERTY
VdW
SciTegic.value.DoubleValue
0.868

@<SCITEGIC>MOL_PROPERTY
VdW6
SciTegic.value.DoubleValue
-9.137

@<SCITEGIC>MOL_PROPERTY
VdW12
SciTegic.value.DoubleValue
10.005

@<SCITEGIC>MOL_PROPERTY
Bond
SciTegic.value.DoubleValue
0.251

@<SCITEGIC>MOL_PROPERTY
Angle
SciTegic.value.DoubleValue
1.315

@<SCITEGIC>MOL_PROPERTY
Pdih
SciTegic.value.DoubleValue
4.305

@<SCITEGIC>MOL_PROPERTY
Idih
SciTegic.value.DoubleValue
0.000

@<SCITEGIC>MOL_PROPERTY
Tether
SciTegic.value.DoubleValue
0.000

@<TRIPOS>MOLECULE
guest-3_vm2.mol2 : vm2 ligand conformer 267
          29          28           1
SMALL
USER_CHARGES
 
@<TRIPOS>ATOM
       1    C1      20.331614   17.586661   20.455051 C.3        1 MOL1        -0.2427
       2    H1      19.942595   17.903852   19.478694 H          1 MOL1         0.0958
       3    H2      21.408819   17.797142   20.478894 H          1 MOL1         0.0958
       4    H3      20.198523   16.499861   20.533560 H          1 MOL1         0.0958
       5    C2      19.600156   18.309579   21.605790 C.3        1 MOL1        -0.1412
       6    H4      19.991252   17.937484   22.561828 H          1 MOL1         0.0947
       7    H5      18.530655   18.059555   21.572085 H          1 MOL1         0.0947
       8    C3      19.782728   19.842184   21.523564 C.3        1 MOL1        -0.1437
       9    H6      20.846260   20.089354   21.646058 H          1 MOL1         0.0947
      10    H7      19.504857   20.180992   20.515958 H          1 MOL1         0.0947
      11    C4      18.945814   20.644185   22.553503 C.3        1 MOL1        -0.1437
      12    H8      17.873519   20.492839   22.368158 H          1 MOL1         0.0947
      13    H9      19.129619   21.711567   22.368346 H          1 MOL1         0.0947
      14    C5      19.284620   20.346167   24.037339 C.3        1 MOL1        -0.1437
      15    H10     20.333966   20.034363   24.121987 H          1 MOL1         0.0947
      16    H11     19.199327   21.281642   24.607398 H          1 MOL1         0.0947
      17    C6      18.340088   19.300504   24.684500 C.3        1 MOL1        -0.1437
      18    H12     18.374820   18.352534   24.134563 H          1 MOL1         0.0947
      19    H13     17.304461   19.659623   24.608936 H          1 MOL1         0.0947
      20    C7      18.662386   19.035629   26.173616 C.3        1 MOL1        -0.1477
      21    H14     18.607750   19.976564   26.737212 H          1 MOL1         0.0947
      22    H15     17.893178   18.373011   26.592178 H          1 MOL1         0.0947
      23    C8      20.045852   18.389479   26.374814 C.3        1 MOL1         0.0145
      24    H16     20.825478   19.058999   26.002712 H          1 MOL1         0.0921
      25    H17     20.099344   17.452443   25.814050 H          1 MOL1         0.0921
      26    N1      20.350742   18.083611   27.826824 N.4        1 MOL1        -0.5969
      27    H18     21.275595   17.654046   27.939765 H          1 MOL1         0.3603
      28    H19     19.668222   17.434167   28.231614 H          1 MOL1         0.3603
      29    H20     20.341728   18.930269   28.405238 H          1 MOL1         0.3603
@<TRIPOS>BOND
    1     1     2    1
    2     1     3    1
    3     1     4    1
    4     1     5    1
    5     5     6    1
    6     5     7    1
    7     5     8    1
    8     8     9    1
    9     8    10    1
   10     8    11    1
   11    11    12    1
   12    11    13    1
   13    11    14    1
   14    14    15    1
   15    14    16    1
   16    14    17    1
   17    17    18    1
   18    17    19    1
   19    17    20    1
   20    20    21    1
   21    20    22    1
   22    20    23    1
   23    23    24    1
   24    23    25    1
   25    23    26    1
   26    26    27    1
   27    26    28    1
   28    26    29    1
@<TRIPOS>SUBSTRUCTURE
       1 MOL1            1 RESIDUE      1      MOL     
@<SCITEGIC>MOL_PROPERTY
VM2 Rank
SciTegic.value.IntegerValue
267

@<SCITEGIC>MOL_PROPERTY
Conf_Id
SciTegic.value.IntegerValue
324

@<SCITEGIC>MOL_PROPERTY
Probability
SciTegic.value.DoubleValue
0.01

@<SCITEGIC>MOL_PROPERTY
Sum Probability
SciTegic.value.DoubleValue
99.43

@<SCITEGIC>MOL_PROPERTY
Delta G
SciTegic.value.DoubleValue
3.853

@<SCITEGIC>MOL_PROPERTY
G
SciTegic.value.DoubleValue
61.999

@<SCITEGIC>MOL_PROPERTY
E
SciTegic.value.DoubleValue
24.348

@<SCITEGIC>MOL_PROPERTY
-TS
SciTegic.value.DoubleValue
37.652

@<SCITEGIC>MOL_PROPERTY
U+W
SciTegic.value.DoubleValue
0.203

@<SCITEGIC>MOL_PROPERTY
U
SciTegic.value.DoubleValue
52.224

@<SCITEGIC>MOL_PROPERTY
W
SciTegic.value.DoubleValue
-52.021

@<SCITEGIC>MOL_PROPERTY
W(PB)
SciTegic.value.DoubleValue
-54.492

@<SCITEGIC>MOL_PROPERTY
W(SA)
SciTegic.value.DoubleValue
2.472

@<SCITEGIC>MOL_PROPERTY
Valence
SciTegic.value.DoubleValue
5.910

@<SCITEGIC>MOL_PROPERTY
Coulomb
SciTegic.value.DoubleValue
45.541

@<SCITEGIC>MOL_PROPERTY
VdW
SciTegic.value.DoubleValue
0.773

@<SCITEGIC>MOL_PROPERTY
VdW6
SciTegic.value.DoubleValue
-9.292

@<SCITEGIC>MOL_PROPERTY
VdW12
SciTegic.value.DoubleValue
10.065

@<SCITEGIC>MOL_PROPERTY
Bond
SciTegic.value.DoubleValue
0.258

@<SCITEGIC>MOL_PROPERTY
Angle
SciTegic.value.DoubleValue
1.296

@<SCITEGIC>MOL_PROPERTY
Pdih
SciTegic.value.DoubleValue
4.356

@<SCITEGIC>MOL_PROPERTY
Idih
SciTegic.value.DoubleValue
0.000

@<SCITEGIC>MOL_PROPERTY
Tether
SciTegic.value.DoubleValue
0.000

@<TRIPOS>MOLECULE
guest-3_vm2.mol2 : vm2 ligand conformer 268
          29          28           1
SMALL
USER_CHARGES
 
@<TRIPOS>ATOM
       1    C1      21.340549   19.446248   21.282246 C.3        1 MOL1        -0.2427
       2    H1      21.693526   18.576819   20.712563 H          1 MOL1         0.0958
       3    H2      22.019075   20.282103   21.068161 H          1 MOL1         0.0958
       4    H3      21.431204   19.209813   22.348066 H          1 MOL1         0.0958
       5    C2      19.890696   19.812145   20.887410 C.3        1 MOL1        -0.1412
       6    H4      19.883765   20.057659   19.816179 H          1 MOL1         0.0947
       7    H5      19.571435   20.725337   21.408664 H          1 MOL1         0.0947
       8    C3      18.876733   18.666205   21.137700 C.3        1 MOL1        -0.1437
       9    H6      18.126111   18.692984   20.335700 H          1 MOL1         0.0947
      10    H7      19.374485   17.691213   21.044077 H          1 MOL1         0.0947
      11    C4      18.118680   18.750043   22.487751 C.3        1 MOL1        -0.1437
      12    H8      17.385840   17.932080   22.520777 H          1 MOL1         0.0947
      13    H9      17.538202   19.682257   22.522804 H          1 MOL1         0.0947
      14    C5      19.027214   18.663631   23.735743 C.3        1 MOL1        -0.1437
      15    H10     19.677080   17.781325   23.656746 H          1 MOL1         0.0947
      16    H11     19.677643   19.546145   23.770612 H          1 MOL1         0.0947
      17    C6      18.201443   18.582764   25.041963 C.3        1 MOL1        -0.1437
      18    H12     17.517504   17.724651   24.985403 H          1 MOL1         0.0947
      19    H13     17.570606   19.477464   25.137637 H          1 MOL1         0.0947
      20    C7      19.079863   18.432990   26.306224 C.3        1 MOL1        -0.1477
      21    H14     18.427659   18.293922   27.178705 H          1 MOL1         0.0947
      22    H15     19.692984   17.525619   26.223995 H          1 MOL1         0.0947
      23    C8      19.989367   19.652342   26.547242 C.3        1 MOL1         0.0145
      24    H16     19.379256   20.555848   26.629783 H          1 MOL1         0.0921
      25    H17     20.675417   19.775095   25.705269 H          1 MOL1         0.0921
      26    N1      20.819455   19.531632   27.808720 N.4        1 MOL1        -0.5969
      27    H18     20.232475   19.440905   28.644611 H          1 MOL1         0.3603
      28    H19     21.417622   20.352915   27.951339 H          1 MOL1         0.3603
      29    H20     21.436561   18.713114   27.782842 H          1 MOL1         0.3603
@<TRIPOS>BOND
    1     1     2    1
    2     1     3    1
    3     1     4    1
    4     1     5    1
    5     5     6    1
    6     5     7    1
    7     5     8    1
    8     8     9    1
    9     8    10    1
   10     8    11    1
   11    11    12    1
   12    11    13    1
   13    11    14    1
   14    14    15    1
   15    14    16    1
   16    14    17    1
   17    17    18    1
   18    17    19    1
   19    17    20    1
   20    20    21    1
   21    20    22    1
   22    20    23    1
   23    23    24    1
   24    23    25    1
   25    23    26    1
   26    26    27    1
   27    26    28    1
   28    26    29    1
@<TRIPOS>SUBSTRUCTURE
       1 MOL1            1 RESIDUE      1      MOL     
@<SCITEGIC>MOL_PROPERTY
VM2 Rank
SciTegic.value.IntegerValue
268

@<SCITEGIC>MOL_PROPERTY
Conf_Id
SciTegic.value.IntegerValue
1990

@<SCITEGIC>MOL_PROPERTY
Probability
SciTegic.value.DoubleValue
0.01

@<SCITEGIC>MOL_PROPERTY
Sum Probability
SciTegic.value.DoubleValue
99.44

@<SCITEGIC>MOL_PROPERTY
Delta G
SciTegic.value.DoubleValue
3.860

@<SCITEGIC>MOL_PROPERTY
G
SciTegic.value.DoubleValue
62.007

@<SCITEGIC>MOL_PROPERTY
E
SciTegic.value.DoubleValue
24.366

@<SCITEGIC>MOL_PROPERTY
-TS
SciTegic.value.DoubleValue
37.640

@<SCITEGIC>MOL_PROPERTY
U+W
SciTegic.value.DoubleValue
0.222

@<SCITEGIC>MOL_PROPERTY
U
SciTegic.value.DoubleValue
52.117

@<SCITEGIC>MOL_PROPERTY
W
SciTegic.value.DoubleValue
-51.895

@<SCITEGIC>MOL_PROPERTY
W(PB)
SciTegic.value.DoubleValue
-54.375

@<SCITEGIC>MOL_PROPERTY
W(SA)
SciTegic.value.DoubleValue
2.480

@<SCITEGIC>MOL_PROPERTY
Valence
SciTegic.value.DoubleValue
5.869

@<SCITEGIC>MOL_PROPERTY
Coulomb
SciTegic.value.DoubleValue
45.382

@<SCITEGIC>MOL_PROPERTY
VdW
SciTegic.value.DoubleValue
0.866

@<SCITEGIC>MOL_PROPERTY
VdW6
SciTegic.value.DoubleValue
-9.162

@<SCITEGIC>MOL_PROPERTY
VdW12
SciTegic.value.DoubleValue
10.028

@<SCITEGIC>MOL_PROPERTY
Bond
SciTegic.value.DoubleValue
0.253

@<SCITEGIC>MOL_PROPERTY
Angle
SciTegic.value.DoubleValue
1.308

@<SCITEGIC>MOL_PROPERTY
Pdih
SciTegic.value.DoubleValue
4.308

@<SCITEGIC>MOL_PROPERTY
Idih
SciTegic.value.DoubleValue
0.000

@<SCITEGIC>MOL_PROPERTY
Tether
SciTegic.value.DoubleValue
0.000

@<TRIPOS>MOLECULE
guest-3_vm2.mol2 : vm2 ligand conformer 269
          29          28           1
SMALL
USER_CHARGES
 
@<TRIPOS>ATOM
       1    C1      19.966922   17.431622   20.821157 C.3        1 MOL1        -0.2427
       2    H1      20.991724   17.757465   20.600637 H          1 MOL1         0.0958
       3    H2      19.961231   16.958572   21.810913 H          1 MOL1         0.0958
       4    H3      19.693741   16.662733   20.086922 H          1 MOL1         0.0958
       5    C2      18.979636   18.618797   20.753224 C.3        1 MOL1        -0.1412
       6    H4      17.968562   18.273614   21.010694 H          1 MOL1         0.0947
       7    H5      18.927397   18.976648   19.715458 H          1 MOL1         0.0947
       8    C3      19.376557   19.803354   21.666976 C.3        1 MOL1        -0.1437
       9    H6      20.378516   20.160127   21.391247 H          1 MOL1         0.0947
      10    H7      18.687343   20.637046   21.474244 H          1 MOL1         0.0947
      11    C4      19.343116   19.456171   23.174609 C.3        1 MOL1        -0.1437
      12    H8      20.080683   18.671245   23.378078 H          1 MOL1         0.0947
      13    H9      18.354191   19.056276   23.436974 H          1 MOL1         0.0947
      14    C5      19.657210   20.688870   24.053978 C.3        1 MOL1        -0.1437
      15    H10     20.694373   21.006422   23.878821 H          1 MOL1         0.0947
      16    H11     19.023668   21.527287   23.733115 H          1 MOL1         0.0947
      17    C6      19.432360   20.472193   25.572937 C.3        1 MOL1        -0.1437
      18    H12     18.372205   20.266118   25.768812 H          1 MOL1         0.0947
      19    H13     19.642599   21.426722   26.074935 H          1 MOL1         0.0947
      20    C7      20.330432   19.384777   26.221481 C.3        1 MOL1        -0.1477
      21    H14     21.335478   19.425458   25.781096 H          1 MOL1         0.0947
      22    H15     20.459360   19.619270   27.286509 H          1 MOL1         0.0947
      23    C8      19.779771   17.947099   26.111592 C.3        1 MOL1         0.0145
      24    H16     20.512832   17.249126   26.525034 H          1 MOL1         0.0921
      25    H17     19.613470   17.681417   25.066362 H          1 MOL1         0.0921
      26    N1      18.477995   17.735117   26.859046 N.4        1 MOL1        -0.5969
      27    H18     18.576473   17.939431   27.858929 H          1 MOL1         0.3603
      28    H19     18.147750   16.766915   26.781958 H          1 MOL1         0.3603
      29    H20     17.731524   18.337506   26.498802 H          1 MOL1         0.3603
@<TRIPOS>BOND
    1     1     2    1
    2     1     3    1
    3     1     4    1
    4     1     5    1
    5     5     6    1
    6     5     7    1
    7     5     8    1
    8     8     9    1
    9     8    10    1
   10     8    11    1
   11    11    12    1
   12    11    13    1
   13    11    14    1
   14    14    15    1
   15    14    16    1
   16    14    17    1
   17    17    18    1
   18    17    19    1
   19    17    20    1
   20    20    21    1
   21    20    22    1
   22    20    23    1
   23    23    24    1
   24    23    25    1
   25    23    26    1
   26    26    27    1
   27    26    28    1
   28    26    29    1
@<TRIPOS>SUBSTRUCTURE
       1 MOL1            1 RESIDUE      1      MOL     
@<SCITEGIC>MOL_PROPERTY
VM2 Rank
SciTegic.value.IntegerValue
269

@<SCITEGIC>MOL_PROPERTY
Conf_Id
SciTegic.value.IntegerValue
835

@<SCITEGIC>MOL_PROPERTY
Probability
SciTegic.value.DoubleValue
0.01

@<SCITEGIC>MOL_PROPERTY
Sum Probability
SciTegic.value.DoubleValue
99.45

@<SCITEGIC>MOL_PROPERTY
Delta G
SciTegic.value.DoubleValue
3.872

@<SCITEGIC>MOL_PROPERTY
G
SciTegic.value.DoubleValue
62.019

@<SCITEGIC>MOL_PROPERTY
E
SciTegic.value.DoubleValue
24.311

@<SCITEGIC>MOL_PROPERTY
-TS
SciTegic.value.DoubleValue
37.708

@<SCITEGIC>MOL_PROPERTY
U+W
SciTegic.value.DoubleValue
0.166

@<SCITEGIC>MOL_PROPERTY
U
SciTegic.value.DoubleValue
52.635

@<SCITEGIC>MOL_PROPERTY
W
SciTegic.value.DoubleValue
-52.469

@<SCITEGIC>MOL_PROPERTY
W(PB)
SciTegic.value.DoubleValue
-54.906

@<SCITEGIC>MOL_PROPERTY
W(SA)
SciTegic.value.DoubleValue
2.437

@<SCITEGIC>MOL_PROPERTY
Valence
SciTegic.value.DoubleValue
5.624

@<SCITEGIC>MOL_PROPERTY
Coulomb
SciTegic.value.DoubleValue
46.167

@<SCITEGIC>MOL_PROPERTY
VdW
SciTegic.value.DoubleValue
0.844

@<SCITEGIC>MOL_PROPERTY
VdW6
SciTegic.value.DoubleValue
-9.932

@<SCITEGIC>MOL_PROPERTY
VdW12
SciTegic.value.DoubleValue
10.776

@<SCITEGIC>MOL_PROPERTY
Bond
SciTegic.value.DoubleValue
0.284

@<SCITEGIC>MOL_PROPERTY
Angle
SciTegic.value.DoubleValue
1.571

@<SCITEGIC>MOL_PROPERTY
Pdih
SciTegic.value.DoubleValue
3.769

@<SCITEGIC>MOL_PROPERTY
Idih
SciTegic.value.DoubleValue
0.000

@<SCITEGIC>MOL_PROPERTY
Tether
SciTegic.value.DoubleValue
0.000

@<TRIPOS>MOLECULE
guest-3_vm2.mol2 : vm2 ligand conformer 270
          29          28           1
SMALL
USER_CHARGES
 
@<TRIPOS>ATOM
       1    C1      21.047160   19.975408   21.411052 C.3        1 MOL1        -0.2427
       2    H1      21.686587   19.201379   21.854743 H          1 MOL1         0.0958
       3    H2      21.687153   20.639718   20.816110 H          1 MOL1         0.0958
       4    H3      20.612728   20.576853   22.219046 H          1 MOL1         0.0958
       5    C2      19.948014   19.349800   20.525021 C.3        1 MOL1        -0.1412
       6    H4      20.421351   18.903662   19.639229 H          1 MOL1         0.0947
       7    H5      19.287367   20.143649   20.149475 H          1 MOL1         0.0947
       8    C3      19.101180   18.260071   21.230785 C.3        1 MOL1        -0.1437
       9    H6      18.394533   17.860200   20.490445 H          1 MOL1         0.0947
      10    H7      19.739304   17.413164   21.518229 H          1 MOL1         0.0947
      11    C4      18.288027   18.761001   22.452776 C.3        1 MOL1        -0.1437
      12    H8      17.331179   18.221430   22.478254 H          1 MOL1         0.0947
      13    H9      18.034910   19.822650   22.326548 H          1 MOL1         0.0947
      14    C5      19.006422   18.533608   23.805233 C.3        1 MOL1        -0.1437
      15    H10     19.191417   17.459223   23.941655 H          1 MOL1         0.0947
      16    H11     19.987561   19.020977   23.796214 H          1 MOL1         0.0947
      17    C6      18.169572   19.065341   24.993214 C.3        1 MOL1        -0.1437
      18    H12     17.176142   18.596195   24.974271 H          1 MOL1         0.0947
      19    H13     18.005436   20.145631   24.876552 H          1 MOL1         0.0947
      20    C7      18.822784   18.788991   26.367707 C.3        1 MOL1        -0.1477
      21    H14     18.134455   19.111149   27.160391 H          1 MOL1         0.0947
      22    H15     18.967578   17.708099   26.496929 H          1 MOL1         0.0947
      23    C8      20.168708   19.516732   26.543883 C.3        1 MOL1         0.0145
      24    H16     20.024619   20.592934   26.415816 H          1 MOL1         0.0921
      25    H17     20.878491   19.171374   25.787855 H          1 MOL1         0.0921
      26    N1      20.792133   19.287049   27.905327 N.4        1 MOL1        -0.5969
      27    H18     20.185496   19.616780   28.663456 H          1 MOL1         0.3603
      28    H19     21.686839   19.779643   28.002792 H          1 MOL1         0.3603
      29    H20     20.977602   18.293364   28.077563 H          1 MOL1         0.3603
@<TRIPOS>BOND
    1     1     2    1
    2     1     3    1
    3     1     4    1
    4     1     5    1
    5     5     6    1
    6     5     7    1
    7     5     8    1
    8     8     9    1
    9     8    10    1
   10     8    11    1
   11    11    12    1
   12    11    13    1
   13    11    14    1
   14    14    15    1
   15    14    16    1
   16    14    17    1
   17    17    18    1
   18    17    19    1
   19    17    20    1
   20    20    21    1
   21    20    22    1
   22    20    23    1
   23    23    24    1
   24    23    25    1
   25    23    26    1
   26    26    27    1
   27    26    28    1
   28    26    29    1
@<TRIPOS>SUBSTRUCTURE
       1 MOL1            1 RESIDUE      1      MOL     
@<SCITEGIC>MOL_PROPERTY
VM2 Rank
SciTegic.value.IntegerValue
270

@<SCITEGIC>MOL_PROPERTY
Conf_Id
SciTegic.value.IntegerValue
274

@<SCITEGIC>MOL_PROPERTY
Probability
SciTegic.value.DoubleValue
0.01

@<SCITEGIC>MOL_PROPERTY
Sum Probability
SciTegic.value.DoubleValue
99.46

@<SCITEGIC>MOL_PROPERTY
Delta G
SciTegic.value.DoubleValue
3.890

@<SCITEGIC>MOL_PROPERTY
G
SciTegic.value.DoubleValue
62.037

@<SCITEGIC>MOL_PROPERTY
E
SciTegic.value.DoubleValue
24.389

@<SCITEGIC>MOL_PROPERTY
-TS
SciTegic.value.DoubleValue
37.647

@<SCITEGIC>MOL_PROPERTY
U+W
SciTegic.value.DoubleValue
0.245

@<SCITEGIC>MOL_PROPERTY
U
SciTegic.value.DoubleValue
52.045

@<SCITEGIC>MOL_PROPERTY
W
SciTegic.value.DoubleValue
-51.800

@<SCITEGIC>MOL_PROPERTY
W(PB)
SciTegic.value.DoubleValue
-54.288

@<SCITEGIC>MOL_PROPERTY
W(SA)
SciTegic.value.DoubleValue
2.488

@<SCITEGIC>MOL_PROPERTY
Valence
SciTegic.value.DoubleValue
5.850

@<SCITEGIC>MOL_PROPERTY
Coulomb
SciTegic.value.DoubleValue
45.356

@<SCITEGIC>MOL_PROPERTY
VdW
SciTegic.value.DoubleValue
0.839

@<SCITEGIC>MOL_PROPERTY
VdW6
SciTegic.value.DoubleValue
-9.171

@<SCITEGIC>MOL_PROPERTY
VdW12
SciTegic.value.DoubleValue
10.009

@<SCITEGIC>MOL_PROPERTY
Bond
SciTegic.value.DoubleValue
0.253

@<SCITEGIC>MOL_PROPERTY
Angle
SciTegic.value.DoubleValue
1.262

@<SCITEGIC>MOL_PROPERTY
Pdih
SciTegic.value.DoubleValue
4.335

@<SCITEGIC>MOL_PROPERTY
Idih
SciTegic.value.DoubleValue
0.000

@<SCITEGIC>MOL_PROPERTY
Tether
SciTegic.value.DoubleValue
0.000

@<TRIPOS>MOLECULE
guest-3_vm2.mol2 : vm2 ligand conformer 271
          29          28           1
SMALL
USER_CHARGES
 
@<TRIPOS>ATOM
       1    C1      20.302316   17.455774   21.038750 C.3        1 MOL1        -0.2427
       2    H1      19.274717   17.114292   21.213708 H          1 MOL1         0.0958
       3    H2      20.670153   16.946175   20.138796 H          1 MOL1         0.0958
       4    H3      20.921723   17.131433   21.884978 H          1 MOL1         0.0958
       5    C2      20.369063   18.989118   20.856789 C.3        1 MOL1        -0.1412
       6    H4      19.718981   19.292506   20.024294 H          1 MOL1         0.0947
       7    H5      21.391821   19.265817   20.564988 H          1 MOL1         0.0947
       8    C3      19.987915   19.775006   22.134184 C.3        1 MOL1        -0.1437
       9    H6      20.649271   19.471590   22.954105 H          1 MOL1         0.0947
      10    H7      20.190457   20.840492   21.958703 H          1 MOL1         0.0947
      11    C4      18.499744   19.608838   22.537207 C.3        1 MOL1        -0.1437
      12    H8      18.254510   18.552806   22.708218 H          1 MOL1         0.0947
      13    H9      17.879198   19.931463   21.689871 H          1 MOL1         0.0947
      14    C5      18.103305   20.444699   23.782173 C.3        1 MOL1        -0.1437
      15    H10     18.726364   21.346995   23.851008 H          1 MOL1         0.0947
      16    H11     17.075581   20.806017   23.638527 H          1 MOL1         0.0947
      17    C6      18.140824   19.667589   25.123506 C.3        1 MOL1        -0.1437
      18    H12     17.424688   18.835111   25.082880 H          1 MOL1         0.0947
      19    H13     17.786236   20.336838   25.919765 H          1 MOL1         0.0947
      20    C7      19.535537   19.124760   25.508612 C.3        1 MOL1        -0.1477
      21    H14     19.847890   18.357328   24.789324 H          1 MOL1         0.0947
      22    H15     20.273833   19.936537   25.467873 H          1 MOL1         0.0947
      23    C8      19.527730   18.510172   26.919122 C.3        1 MOL1         0.0145
      24    H16     18.803914   17.691730   26.960119 H          1 MOL1         0.0921
      25    H17     19.232167   19.268196   27.649512 H          1 MOL1         0.0921
      26    N1      20.877566   17.962044   27.334658 N.4        1 MOL1        -0.5969
      27    H18     21.599236   18.690451   27.342891 H          1 MOL1         0.3603
      28    H19     21.200933   17.222858   26.701868 H          1 MOL1         0.3603
      29    H20     20.850266   17.557833   28.277301 H          1 MOL1         0.3603
@<TRIPOS>BOND
    1     1     2    1
    2     1     3    1
    3     1     4    1
    4     1     5    1
    5     5     6    1
    6     5     7    1
    7     5     8    1
    8     8     9    1
    9     8    10    1
   10     8    11    1
   11    11    12    1
   12    11    13    1
   13    11    14    1
   14    14    15    1
   15    14    16    1
   16    14    17    1
   17    17    18    1
   18    17    19    1
   19    17    20    1
   20    20    21    1
   21    20    22    1
   22    20    23    1
   23    23    24    1
   24    23    25    1
   25    23    26    1
   26    26    27    1
   27    26    28    1
   28    26    29    1
@<TRIPOS>SUBSTRUCTURE
       1 MOL1            1 RESIDUE      1      MOL     
@<SCITEGIC>MOL_PROPERTY
VM2 Rank
SciTegic.value.IntegerValue
271

@<SCITEGIC>MOL_PROPERTY
Conf_Id
SciTegic.value.IntegerValue
1691

@<SCITEGIC>MOL_PROPERTY
Probability
SciTegic.value.DoubleValue
0.01

@<SCITEGIC>MOL_PROPERTY
Sum Probability
SciTegic.value.DoubleValue
99.46

@<SCITEGIC>MOL_PROPERTY
Delta G
SciTegic.value.DoubleValue
3.902

@<SCITEGIC>MOL_PROPERTY
G
SciTegic.value.DoubleValue
62.048

@<SCITEGIC>MOL_PROPERTY
E
SciTegic.value.DoubleValue
24.403

@<SCITEGIC>MOL_PROPERTY
-TS
SciTegic.value.DoubleValue
37.646

@<SCITEGIC>MOL_PROPERTY
U+W
SciTegic.value.DoubleValue
0.258

@<SCITEGIC>MOL_PROPERTY
U
SciTegic.value.DoubleValue
52.527

@<SCITEGIC>MOL_PROPERTY
W
SciTegic.value.DoubleValue
-52.269

@<SCITEGIC>MOL_PROPERTY
W(PB)
SciTegic.value.DoubleValue
-54.752

@<SCITEGIC>MOL_PROPERTY
W(SA)
SciTegic.value.DoubleValue
2.483

@<SCITEGIC>MOL_PROPERTY
Valence
SciTegic.value.DoubleValue
6.102

@<SCITEGIC>MOL_PROPERTY
Coulomb
SciTegic.value.DoubleValue
45.609

@<SCITEGIC>MOL_PROPERTY
VdW
SciTegic.value.DoubleValue
0.817

@<SCITEGIC>MOL_PROPERTY
VdW6
SciTegic.value.DoubleValue
-9.371

@<SCITEGIC>MOL_PROPERTY
VdW12
SciTegic.value.DoubleValue
10.188

@<SCITEGIC>MOL_PROPERTY
Bond
SciTegic.value.DoubleValue
0.273

@<SCITEGIC>MOL_PROPERTY
Angle
SciTegic.value.DoubleValue
1.408

@<SCITEGIC>MOL_PROPERTY
Pdih
SciTegic.value.DoubleValue
4.421

@<SCITEGIC>MOL_PROPERTY
Idih
SciTegic.value.DoubleValue
0.000

@<SCITEGIC>MOL_PROPERTY
Tether
SciTegic.value.DoubleValue
0.000

@<TRIPOS>MOLECULE
guest-3_vm2.mol2 : vm2 ligand conformer 272
          29          28           1
SMALL
USER_CHARGES
 
@<TRIPOS>ATOM
       1    C1      19.908424   19.575943   19.789559 C.3        1 MOL1        -0.2427
       2    H1      20.944908   19.416782   20.111950 H          1 MOL1         0.0958
       3    H2      19.873720   19.424954   18.702862 H          1 MOL1         0.0958
       4    H3      19.641440   20.621248   19.992227 H          1 MOL1         0.0958
       5    C2      18.937954   18.606671   20.501645 C.3        1 MOL1        -0.1412
       6    H4      19.241815   17.568970   20.305325 H          1 MOL1         0.0947
       7    H5      17.936646   18.722016   20.063686 H          1 MOL1         0.0947
       8    C3      18.843489   18.844904   22.027864 C.3        1 MOL1        -0.1437
       9    H6      18.511418   19.875430   22.210529 H          1 MOL1         0.0947
      10    H7      18.062264   18.189061   22.436039 H          1 MOL1         0.0947
      11    C4      20.173924   18.574184   22.774680 C.3        1 MOL1        -0.1437
      12    H8      20.936278   19.299343   22.460769 H          1 MOL1         0.0947
      13    H9      20.551592   17.583296   22.487355 H          1 MOL1         0.0947
      14    C5      20.032462   18.619911   24.315693 C.3        1 MOL1        -0.1437
      15    H10     19.297051   17.866930   24.625084 H          1 MOL1         0.0947
      16    H11     20.993974   18.331103   24.762098 H          1 MOL1         0.0947
      17    C6      19.619899   20.014019   24.850256 C.3        1 MOL1        -0.1437
      18    H12     18.586462   20.236534   24.552669 H          1 MOL1         0.0947
      19    H13     20.249263   20.777862   24.373092 H          1 MOL1         0.0947
      20    C7      19.749529   20.172854   26.386644 C.3        1 MOL1        -0.1477
      21    H14     20.787704   20.005161   26.702748 H          1 MOL1         0.0947
      22    H15     19.523269   21.217767   26.637234 H          1 MOL1         0.0947
      23    C8      18.796218   19.277157   27.204505 C.3        1 MOL1         0.0145
      24    H16     17.811961   19.251640   26.729264 H          1 MOL1         0.0921
      25    H17     18.679006   19.702269   28.205009 H          1 MOL1         0.0921
      26    N1      19.282102   17.852356   27.384154 N.4        1 MOL1        -0.5969
      27    H18     19.410323   17.379550   26.485051 H          1 MOL1         0.3603
      28    H19     18.619990   17.290893   27.930958 H          1 MOL1         0.3603
      29    H20     20.181098   17.817818   27.875997 H          1 MOL1         0.3603
@<TRIPOS>BOND
    1     1     2    1
    2     1     3    1
    3     1     4    1
    4     1     5    1
    5     5     6    1
    6     5     7    1
    7     5     8    1
    8     8     9    1
    9     8    10    1
   10     8    11    1
   11    11    12    1
   12    11    13    1
   13    11    14    1
   14    14    15    1
   15    14    16    1
   16    14    17    1
   17    17    18    1
   18    17    19    1
   19    17    20    1
   20    20    21    1
   21    20    22    1
   22    20    23    1
   23    23    24    1
   24    23    25    1
   25    23    26    1
   26    26    27    1
   27    26    28    1
   28    26    29    1
@<TRIPOS>SUBSTRUCTURE
       1 MOL1            1 RESIDUE      1      MOL     
@<SCITEGIC>MOL_PROPERTY
VM2 Rank
SciTegic.value.IntegerValue
272

@<SCITEGIC>MOL_PROPERTY
Conf_Id
SciTegic.value.IntegerValue
968

@<SCITEGIC>MOL_PROPERTY
Probability
SciTegic.value.DoubleValue
0.01

@<SCITEGIC>MOL_PROPERTY
Sum Probability
SciTegic.value.DoubleValue
99.47

@<SCITEGIC>MOL_PROPERTY
Delta G
SciTegic.value.DoubleValue
3.910

@<SCITEGIC>MOL_PROPERTY
G
SciTegic.value.DoubleValue
62.056

@<SCITEGIC>MOL_PROPERTY
E
SciTegic.value.DoubleValue
24.445

@<SCITEGIC>MOL_PROPERTY
-TS
SciTegic.value.DoubleValue
37.611

@<SCITEGIC>MOL_PROPERTY
U+W
SciTegic.value.DoubleValue
0.300

@<SCITEGIC>MOL_PROPERTY
U
SciTegic.value.DoubleValue
52.339

@<SCITEGIC>MOL_PROPERTY
W
SciTegic.value.DoubleValue
-52.039

@<SCITEGIC>MOL_PROPERTY
W(PB)
SciTegic.value.DoubleValue
-54.496

@<SCITEGIC>MOL_PROPERTY
W(SA)
SciTegic.value.DoubleValue
2.457

@<SCITEGIC>MOL_PROPERTY
Valence
SciTegic.value.DoubleValue
5.123

@<SCITEGIC>MOL_PROPERTY
Coulomb
SciTegic.value.DoubleValue
46.319

@<SCITEGIC>MOL_PROPERTY
VdW
SciTegic.value.DoubleValue
0.897

@<SCITEGIC>MOL_PROPERTY
VdW6
SciTegic.value.DoubleValue
-9.792

@<SCITEGIC>MOL_PROPERTY
VdW12
SciTegic.value.DoubleValue
10.689

@<SCITEGIC>MOL_PROPERTY
Bond
SciTegic.value.DoubleValue
0.276

@<SCITEGIC>MOL_PROPERTY
Angle
SciTegic.value.DoubleValue
1.343

@<SCITEGIC>MOL_PROPERTY
Pdih
SciTegic.value.DoubleValue
3.505

@<SCITEGIC>MOL_PROPERTY
Idih
SciTegic.value.DoubleValue
0.000

@<SCITEGIC>MOL_PROPERTY
Tether
SciTegic.value.DoubleValue
0.000

@<TRIPOS>MOLECULE
guest-3_vm2.mol2 : vm2 ligand conformer 273
          29          28           1
SMALL
USER_CHARGES
 
@<TRIPOS>ATOM
       1    C1      19.319072   18.756789   19.508063 C.3        1 MOL1        -0.2427
       2    H1      20.320754   19.077976   19.193878 H          1 MOL1         0.0958
       3    H2      19.233599   17.677324   19.327310 H          1 MOL1         0.0958
       4    H3      18.585914   19.264587   18.868025 H          1 MOL1         0.0958
       5    C2      19.070230   19.092315   20.993790 C.3        1 MOL1        -0.1412
       6    H4      18.051510   18.786939   21.270574 H          1 MOL1         0.0947
       7    H5      19.124092   20.180975   21.127707 H          1 MOL1         0.0947
       8    C3      20.094654   18.390350   21.916043 C.3        1 MOL1        -0.1437
       9    H6      20.075265   17.310164   21.715824 H          1 MOL1         0.0947
      10    H7      21.109573   18.731169   21.669093 H          1 MOL1         0.0947
      11    C4      19.823479   18.616055   23.423559 C.3        1 MOL1        -0.1437
      12    H8      20.533868   18.008624   24.000766 H          1 MOL1         0.0947
      13    H9      18.818955   18.243807   23.661102 H          1 MOL1         0.0947
      14    C5      19.950172   20.097855   23.854616 C.3        1 MOL1        -0.1437
      15    H10     20.867502   20.517273   23.418958 H          1 MOL1         0.0947
      16    H11     19.118169   20.678860   23.435025 H          1 MOL1         0.0947
      17    C6      20.001565   20.320143   25.388365 C.3        1 MOL1        -0.1437
      18    H12     20.161390   21.393845   25.558514 H          1 MOL1         0.0947
      19    H13     20.884335   19.823030   25.810683 H          1 MOL1         0.0947
      20    C7      18.717910   19.903889   26.155595 C.3        1 MOL1        -0.1477
      21    H14     18.657713   20.483340   27.086453 H          1 MOL1         0.0947
      22    H15     17.831825   20.182836   25.570172 H          1 MOL1         0.0947
      23    C8      18.640404   18.406126   26.519321 C.3        1 MOL1         0.0145
      24    H16     18.707734   17.791760   25.620172 H          1 MOL1         0.0921
      25    H17     17.677800   18.201810   26.995892 H          1 MOL1         0.0921
      26    N1      19.726515   17.954478   27.475646 N.4        1 MOL1        -0.5969
      27    H18     19.696508   18.475740   28.358026 H          1 MOL1         0.3603
      28    H19     20.661229   18.086581   27.077263 H          1 MOL1         0.3603
      29    H20     19.637000   16.960116   27.711585 H          1 MOL1         0.3603
@<TRIPOS>BOND
    1     1     2    1
    2     1     3    1
    3     1     4    1
    4     1     5    1
    5     5     6    1
    6     5     7    1
    7     5     8    1
    8     8     9    1
    9     8    10    1
   10     8    11    1
   11    11    12    1
   12    11    13    1
   13    11    14    1
   14    14    15    1
   15    14    16    1
   16    14    17    1
   17    17    18    1
   18    17    19    1
   19    17    20    1
   20    20    21    1
   21    20    22    1
   22    20    23    1
   23    23    24    1
   24    23    25    1
   25    23    26    1
   26    26    27    1
   27    26    28    1
   28    26    29    1
@<TRIPOS>SUBSTRUCTURE
       1 MOL1            1 RESIDUE      1      MOL     
@<SCITEGIC>MOL_PROPERTY
VM2 Rank
SciTegic.value.IntegerValue
273

@<SCITEGIC>MOL_PROPERTY
Conf_Id
SciTegic.value.IntegerValue
2472

@<SCITEGIC>MOL_PROPERTY
Probability
SciTegic.value.DoubleValue
0.01

@<SCITEGIC>MOL_PROPERTY
Sum Probability
SciTegic.value.DoubleValue
99.48

@<SCITEGIC>MOL_PROPERTY
Delta G
SciTegic.value.DoubleValue
3.911

@<SCITEGIC>MOL_PROPERTY
G
SciTegic.value.DoubleValue
62.057

@<SCITEGIC>MOL_PROPERTY
E
SciTegic.value.DoubleValue
24.354

@<SCITEGIC>MOL_PROPERTY
-TS
SciTegic.value.DoubleValue
37.703

@<SCITEGIC>MOL_PROPERTY
U+W
SciTegic.value.DoubleValue
0.210

@<SCITEGIC>MOL_PROPERTY
U
SciTegic.value.DoubleValue
52.451

@<SCITEGIC>MOL_PROPERTY
W
SciTegic.value.DoubleValue
-52.241

@<SCITEGIC>MOL_PROPERTY
W(PB)
SciTegic.value.DoubleValue
-54.686

@<SCITEGIC>MOL_PROPERTY
W(SA)
SciTegic.value.DoubleValue
2.445

@<SCITEGIC>MOL_PROPERTY
Valence
SciTegic.value.DoubleValue
5.609

@<SCITEGIC>MOL_PROPERTY
Coulomb
SciTegic.value.DoubleValue
46.005

@<SCITEGIC>MOL_PROPERTY
VdW
SciTegic.value.DoubleValue
0.837

@<SCITEGIC>MOL_PROPERTY
VdW6
SciTegic.value.DoubleValue
-9.912

@<SCITEGIC>MOL_PROPERTY
VdW12
SciTegic.value.DoubleValue
10.749

@<SCITEGIC>MOL_PROPERTY
Bond
SciTegic.value.DoubleValue
0.284

@<SCITEGIC>MOL_PROPERTY
Angle
SciTegic.value.DoubleValue
1.564

@<SCITEGIC>MOL_PROPERTY
Pdih
SciTegic.value.DoubleValue
3.761

@<SCITEGIC>MOL_PROPERTY
Idih
SciTegic.value.DoubleValue
0.000

@<SCITEGIC>MOL_PROPERTY
Tether
SciTegic.value.DoubleValue
0.000

@<TRIPOS>MOLECULE
guest-3_vm2.mol2 : vm2 ligand conformer 274
          29          28           1
SMALL
USER_CHARGES
 
@<TRIPOS>ATOM
       1    C1      19.546166   18.554792   19.766612 C.3        1 MOL1        -0.2427
       2    H1      19.629876   18.736915   18.687383 H          1 MOL1         0.0958
       3    H2      20.446361   18.011940   20.080505 H          1 MOL1         0.0958
       4    H3      18.677091   17.904696   19.931228 H          1 MOL1         0.0958
       5    C2      19.393897   19.889707   20.530275 C.3        1 MOL1        -0.1412
       6    H4      18.550293   20.448970   20.102153 H          1 MOL1         0.0947
       7    H5      20.286731   20.510382   20.371193 H          1 MOL1         0.0947
       8    C3      19.148669   19.703929   22.046975 C.3        1 MOL1        -0.1437
       9    H6      18.950288   20.688683   22.491896 H          1 MOL1         0.0947
      10    H7      18.238510   19.107372   22.193109 H          1 MOL1         0.0947
      11    C4      20.341109   19.044980   22.785189 C.3        1 MOL1        -0.1437
      12    H8      21.263206   19.585995   22.532030 H          1 MOL1         0.0947
      13    H9      20.479555   18.014551   22.432161 H          1 MOL1         0.0947
      14    C5      20.180820   19.037823   24.325021 C.3        1 MOL1        -0.1437
      15    H10     21.102552   18.637149   24.768940 H          1 MOL1         0.0947
      16    H11     20.081225   20.073016   24.674293 H          1 MOL1         0.0947
      17    C6      18.973548   18.196965   24.809742 C.3        1 MOL1        -0.1437
      18    H12     18.986323   17.226939   24.293866 H          1 MOL1         0.0947
      19    H13     18.035783   18.688565   24.518208 H          1 MOL1         0.0947
      20    C7      18.952271   17.931253   26.336655 C.3        1 MOL1        -0.1477
      21    H14     18.113730   17.254762   26.548883 H          1 MOL1         0.0947
      22    H15     19.858773   17.393318   26.644436 H          1 MOL1         0.0947
      23    C8      18.766918   19.194421   27.202694 C.3        1 MOL1         0.0145
      24    H16     18.393507   18.899529   28.187107 H          1 MOL1         0.0921
      25    H17     18.026540   19.854356   26.742700 H          1 MOL1         0.0921
      26    N1      20.040602   19.984129   27.431836 N.4        1 MOL1        -0.5969
      27    H18     20.451272   20.304923   26.550466 H          1 MOL1         0.3603
      28    H19     20.752516   19.423902   27.912067 H          1 MOL1         0.3603
      29    H20     19.873882   20.815377   28.009642 H          1 MOL1         0.3603
@<TRIPOS>BOND
    1     1     2    1
    2     1     3    1
    3     1     4    1
    4     1     5    1
    5     5     6    1
    6     5     7    1
    7     5     8    1
    8     8     9    1
    9     8    10    1
   10     8    11    1
   11    11    12    1
   12    11    13    1
   13    11    14    1
   14    14    15    1
   15    14    16    1
   16    14    17    1
   17    17    18    1
   18    17    19    1
   19    17    20    1
   20    20    21    1
   21    20    22    1
   22    20    23    1
   23    23    24    1
   24    23    25    1
   25    23    26    1
   26    26    27    1
   27    26    28    1
   28    26    29    1
@<TRIPOS>SUBSTRUCTURE
       1 MOL1            1 RESIDUE      1      MOL     
@<SCITEGIC>MOL_PROPERTY
VM2 Rank
SciTegic.value.IntegerValue
274

@<SCITEGIC>MOL_PROPERTY
Conf_Id
SciTegic.value.IntegerValue
2321

@<SCITEGIC>MOL_PROPERTY
Probability
SciTegic.value.DoubleValue
0.01

@<SCITEGIC>MOL_PROPERTY
Sum Probability
SciTegic.value.DoubleValue
99.48

@<SCITEGIC>MOL_PROPERTY
Delta G
SciTegic.value.DoubleValue
3.927

@<SCITEGIC>MOL_PROPERTY
G
SciTegic.value.DoubleValue
62.073

@<SCITEGIC>MOL_PROPERTY
E
SciTegic.value.DoubleValue
24.462

@<SCITEGIC>MOL_PROPERTY
-TS
SciTegic.value.DoubleValue
37.612

@<SCITEGIC>MOL_PROPERTY
U+W
SciTegic.value.DoubleValue
0.317

@<SCITEGIC>MOL_PROPERTY
U
SciTegic.value.DoubleValue
52.339

@<SCITEGIC>MOL_PROPERTY
W
SciTegic.value.DoubleValue
-52.022

@<SCITEGIC>MOL_PROPERTY
W(PB)
SciTegic.value.DoubleValue
-54.481

@<SCITEGIC>MOL_PROPERTY
W(SA)
SciTegic.value.DoubleValue
2.459

@<SCITEGIC>MOL_PROPERTY
Valence
SciTegic.value.DoubleValue
5.124

@<SCITEGIC>MOL_PROPERTY
Coulomb
SciTegic.value.DoubleValue
46.319

@<SCITEGIC>MOL_PROPERTY
VdW
SciTegic.value.DoubleValue
0.897

@<SCITEGIC>MOL_PROPERTY
VdW6
SciTegic.value.DoubleValue
-9.793

@<SCITEGIC>MOL_PROPERTY
VdW12
SciTegic.value.DoubleValue
10.689

@<SCITEGIC>MOL_PROPERTY
Bond
SciTegic.value.DoubleValue
0.276

@<SCITEGIC>MOL_PROPERTY
Angle
SciTegic.value.DoubleValue
1.342

@<SCITEGIC>MOL_PROPERTY
Pdih
SciTegic.value.DoubleValue
3.505

@<SCITEGIC>MOL_PROPERTY
Idih
SciTegic.value.DoubleValue
0.000

@<SCITEGIC>MOL_PROPERTY
Tether
SciTegic.value.DoubleValue
0.000

@<TRIPOS>MOLECULE
guest-3_vm2.mol2 : vm2 ligand conformer 275
          29          28           1
SMALL
USER_CHARGES
 
@<TRIPOS>ATOM
       1    C1      19.609102   19.572261   19.526284 C.3        1 MOL1        -0.2427
       2    H1      20.226805   20.469472   19.389623 H          1 MOL1         0.0958
       3    H2      20.187494   18.703590   19.185528 H          1 MOL1         0.0958
       4    H3      18.729023   19.667118   18.877061 H          1 MOL1         0.0958
       5    C2      19.183453   19.410630   21.000929 C.3        1 MOL1        -0.1412
       6    H4      18.536120   18.528086   21.090877 H          1 MOL1         0.0947
       7    H5      18.582362   20.279270   21.303929 H          1 MOL1         0.0947
       8    C3      20.407996   19.271162   21.935699 C.3        1 MOL1        -0.1437
       9    H6      20.983358   18.376297   21.661145 H          1 MOL1         0.0947
      10    H7      21.077633   20.128020   21.778703 H          1 MOL1         0.0947
      11    C4      20.034041   19.207783   23.436773 C.3        1 MOL1        -0.1437
      12    H8      19.486768   20.120829   23.703044 H          1 MOL1         0.0947
      13    H9      20.960239   19.206921   24.027495 H          1 MOL1         0.0947
      14    C5      19.190776   17.963011   23.806958 C.3        1 MOL1        -0.1437
      15    H10     18.184754   18.054855   23.376454 H          1 MOL1         0.0947
      16    H11     19.643465   17.076322   23.342136 H          1 MOL1         0.0947
      17    C6      19.068682   17.697634   25.329818 C.3        1 MOL1        -0.1437
      18    H12     20.061070   17.508689   25.759032 H          1 MOL1         0.0947
      19    H13     18.512433   16.758356   25.455019 H          1 MOL1         0.0947
      20    C7      18.325212   18.799974   26.130929 C.3        1 MOL1        -0.1477
      21    H14     17.470279   19.166454   25.547439 H          1 MOL1         0.0947
      22    H15     17.899607   18.352279   27.038846 H          1 MOL1         0.0947
      23    C8      19.205434   19.994607   26.554785 C.3        1 MOL1         0.0145
      24    H16     18.581233   20.741591   27.052635 H          1 MOL1         0.0921
      25    H17     19.658115   20.463639   25.679835 H          1 MOL1         0.0921
      26    N1      20.319302   19.620938   27.512823 N.4        1 MOL1        -0.5969
      27    H18     20.966437   18.944491   27.096305 H          1 MOL1         0.3603
      28    H19     19.954573   19.201014   28.374127 H          1 MOL1         0.3603
      29    H20     20.874151   20.438323   27.789339 H          1 MOL1         0.3603
@<TRIPOS>BOND
    1     1     2    1
    2     1     3    1
    3     1     4    1
    4     1     5    1
    5     5     6    1
    6     5     7    1
    7     5     8    1
    8     8     9    1
    9     8    10    1
   10     8    11    1
   11    11    12    1
   12    11    13    1
   13    11    14    1
   14    14    15    1
   15    14    16    1
   16    14    17    1
   17    17    18    1
   18    17    19    1
   19    17    20    1
   20    20    21    1
   21    20    22    1
   22    20    23    1
   23    23    24    1
   24    23    25    1
   25    23    26    1
   26    26    27    1
   27    26    28    1
   28    26    29    1
@<TRIPOS>SUBSTRUCTURE
       1 MOL1            1 RESIDUE      1      MOL     
@<SCITEGIC>MOL_PROPERTY
VM2 Rank
SciTegic.value.IntegerValue
275

@<SCITEGIC>MOL_PROPERTY
Conf_Id
SciTegic.value.IntegerValue
2871

@<SCITEGIC>MOL_PROPERTY
Probability
SciTegic.value.DoubleValue
0.01

@<SCITEGIC>MOL_PROPERTY
Sum Probability
SciTegic.value.DoubleValue
99.49

@<SCITEGIC>MOL_PROPERTY
Delta G
SciTegic.value.DoubleValue
3.943

@<SCITEGIC>MOL_PROPERTY
G
SciTegic.value.DoubleValue
62.089

@<SCITEGIC>MOL_PROPERTY
E
SciTegic.value.DoubleValue
24.387

@<SCITEGIC>MOL_PROPERTY
-TS
SciTegic.value.DoubleValue
37.702

@<SCITEGIC>MOL_PROPERTY
U+W
SciTegic.value.DoubleValue
0.242

@<SCITEGIC>MOL_PROPERTY
U
SciTegic.value.DoubleValue
52.451

@<SCITEGIC>MOL_PROPERTY
W
SciTegic.value.DoubleValue
-52.209

@<SCITEGIC>MOL_PROPERTY
W(PB)
SciTegic.value.DoubleValue
-54.696

@<SCITEGIC>MOL_PROPERTY
W(SA)
SciTegic.value.DoubleValue
2.487

@<SCITEGIC>MOL_PROPERTY
Valence
SciTegic.value.DoubleValue
5.608

@<SCITEGIC>MOL_PROPERTY
Coulomb
SciTegic.value.DoubleValue
46.006

@<SCITEGIC>MOL_PROPERTY
VdW
SciTegic.value.DoubleValue
0.837

@<SCITEGIC>MOL_PROPERTY
VdW6
SciTegic.value.DoubleValue
-9.912

@<SCITEGIC>MOL_PROPERTY
VdW12
SciTegic.value.DoubleValue
10.749

@<SCITEGIC>MOL_PROPERTY
Bond
SciTegic.value.DoubleValue
0.283

@<SCITEGIC>MOL_PROPERTY
Angle
SciTegic.value.DoubleValue
1.564

@<SCITEGIC>MOL_PROPERTY
Pdih
SciTegic.value.DoubleValue
3.761

@<SCITEGIC>MOL_PROPERTY
Idih
SciTegic.value.DoubleValue
0.000

@<SCITEGIC>MOL_PROPERTY
Tether
SciTegic.value.DoubleValue
0.000

@<TRIPOS>MOLECULE
guest-3_vm2.mol2 : vm2 ligand conformer 276
          29          28           1
SMALL
USER_CHARGES
 
@<TRIPOS>ATOM
       1    C1      21.043048   19.520731   20.424747 C.3        1 MOL1        -0.2427
       2    H1      21.001222   20.604498   20.594783 H          1 MOL1         0.0958
       3    H2      22.099381   19.231547   20.350356 H          1 MOL1         0.0958
       4    H3      20.566544   19.307292   19.459037 H          1 MOL1         0.0958
       5    C2      20.347373   18.753222   21.568705 C.3        1 MOL1        -0.1412
       6    H4      20.875486   18.960515   22.508887 H          1 MOL1         0.0947
       7    H5      20.430825   17.672711   21.386742 H          1 MOL1         0.0947
       8    C3      18.857136   19.147679   21.695976 C.3        1 MOL1        -0.1437
       9    H6      18.774882   20.219385   21.920402 H          1 MOL1         0.0947
      10    H7      18.366399   19.005143   20.723339 H          1 MOL1         0.0947
      11    C4      18.084086   18.322385   22.757083 C.3        1 MOL1        -0.1437
      12    H8      18.080894   17.266261   22.454211 H          1 MOL1         0.0947
      13    H9      17.031966   18.638875   22.751625 H          1 MOL1         0.0947
      14    C5      18.632175   18.425064   24.203710 C.3        1 MOL1        -0.1437
      15    H10     18.002188   17.805169   24.856353 H          1 MOL1         0.0947
      16    H11     19.638722   17.992506   24.238849 H          1 MOL1         0.0947
      17    C6      18.656361   19.874937   24.747979 C.3        1 MOL1        -0.1437
      18    H12     17.686554   20.347821   24.540574 H          1 MOL1         0.0947
      19    H13     19.408493   20.463652   24.205884 H          1 MOL1         0.0947
      20    C7      18.930963   19.981800   26.269584 C.3        1 MOL1        -0.1477
      21    H14     18.833143   21.037436   26.555730 H          1 MOL1         0.0947
      22    H15     18.160290   19.443114   26.836786 H          1 MOL1         0.0947
      23    C8      20.334205   19.506945   26.700096 C.3        1 MOL1         0.0145
      24    H16     20.581332   19.956231   27.665777 H          1 MOL1         0.0921
      25    H17     21.078247   19.838893   25.971071 H          1 MOL1         0.0921
      26    N1      20.458655   18.005237   26.867119 N.4        1 MOL1        -0.5969
      27    H18     19.817199   17.649625   27.583638 H          1 MOL1         0.3603
      28    H19     21.405778   17.731482   27.151089 H          1 MOL1         0.3603
      29    H20     20.246914   17.508091   25.997492 H          1 MOL1         0.3603
@<TRIPOS>BOND
    1     1     2    1
    2     1     3    1
    3     1     4    1
    4     1     5    1
    5     5     6    1
    6     5     7    1
    7     5     8    1
    8     8     9    1
    9     8    10    1
   10     8    11    1
   11    11    12    1
   12    11    13    1
   13    11    14    1
   14    14    15    1
   15    14    16    1
   16    14    17    1
   17    17    18    1
   18    17    19    1
   19    17    20    1
   20    20    21    1
   21    20    22    1
   22    20    23    1
   23    23    24    1
   24    23    25    1
   25    23    26    1
   26    26    27    1
   27    26    28    1
   28    26    29    1
@<TRIPOS>SUBSTRUCTURE
       1 MOL1            1 RESIDUE      1      MOL     
@<SCITEGIC>MOL_PROPERTY
VM2 Rank
SciTegic.value.IntegerValue
276

@<SCITEGIC>MOL_PROPERTY
Conf_Id
SciTegic.value.IntegerValue
144

@<SCITEGIC>MOL_PROPERTY
Probability
SciTegic.value.DoubleValue
0.01

@<SCITEGIC>MOL_PROPERTY
Sum Probability
SciTegic.value.DoubleValue
99.50

@<SCITEGIC>MOL_PROPERTY
Delta G
SciTegic.value.DoubleValue
3.948

@<SCITEGIC>MOL_PROPERTY
G
SciTegic.value.DoubleValue
62.094

@<SCITEGIC>MOL_PROPERTY
E
SciTegic.value.DoubleValue
24.288

@<SCITEGIC>MOL_PROPERTY
-TS
SciTegic.value.DoubleValue
37.806

@<SCITEGIC>MOL_PROPERTY
U+W
SciTegic.value.DoubleValue
0.143

@<SCITEGIC>MOL_PROPERTY
U
SciTegic.value.DoubleValue
52.644

@<SCITEGIC>MOL_PROPERTY
W
SciTegic.value.DoubleValue
-52.501

@<SCITEGIC>MOL_PROPERTY
W(PB)
SciTegic.value.DoubleValue
-54.934

@<SCITEGIC>MOL_PROPERTY
W(SA)
SciTegic.value.DoubleValue
2.433

@<SCITEGIC>MOL_PROPERTY
Valence
SciTegic.value.DoubleValue
5.097

@<SCITEGIC>MOL_PROPERTY
Coulomb
SciTegic.value.DoubleValue
46.891

@<SCITEGIC>MOL_PROPERTY
VdW
SciTegic.value.DoubleValue
0.657

@<SCITEGIC>MOL_PROPERTY
VdW6
SciTegic.value.DoubleValue
-10.249

@<SCITEGIC>MOL_PROPERTY
VdW12
SciTegic.value.DoubleValue
10.906

@<SCITEGIC>MOL_PROPERTY
Bond
SciTegic.value.DoubleValue
0.285

@<SCITEGIC>MOL_PROPERTY
Angle
SciTegic.value.DoubleValue
1.535

@<SCITEGIC>MOL_PROPERTY
Pdih
SciTegic.value.DoubleValue
3.277

@<SCITEGIC>MOL_PROPERTY
Idih
SciTegic.value.DoubleValue
0.000

@<SCITEGIC>MOL_PROPERTY
Tether
SciTegic.value.DoubleValue
0.000

@<TRIPOS>MOLECULE
guest-3_vm2.mol2 : vm2 ligand conformer 277
          29          28           1
SMALL
USER_CHARGES
 
@<TRIPOS>ATOM
       1    C1      21.280564   18.628016   20.429885 C.3        1 MOL1        -0.2427
       2    H1      21.616651   17.674794   20.858427 H          1 MOL1         0.0958
       3    H2      21.418806   18.575996   19.342126 H          1 MOL1         0.0958
       4    H3      21.931037   19.424301   20.814646 H          1 MOL1         0.0958
       5    C2      19.802376   18.902180   20.778685 C.3        1 MOL1        -0.1412
       6    H4      19.174151   18.108116   20.351314 H          1 MOL1         0.0947
       7    H5      19.485491   19.844397   20.309947 H          1 MOL1         0.0947
       8    C3      19.580563   18.979159   22.305341 C.3        1 MOL1        -0.1437
       9    H6      19.893698   18.033700   22.769138 H          1 MOL1         0.0947
      10    H7      20.218933   19.771609   22.716553 H          1 MOL1         0.0947
      11    C4      18.102820   19.266479   22.657812 C.3        1 MOL1        -0.1437
      12    H8      17.463160   18.546546   22.128815 H          1 MOL1         0.0947
      13    H9      17.823297   20.259177   22.278798 H          1 MOL1         0.0947
      14    C5      17.777422   19.181574   24.171341 C.3        1 MOL1        -0.1437
      15    H10     16.698533   19.356043   24.284984 H          1 MOL1         0.0947
      16    H11     17.947890   18.159136   24.531993 H          1 MOL1         0.0947
      17    C6      18.526055   20.215007   25.056767 C.3        1 MOL1        -0.1437
      18    H12     17.855264   20.536023   25.865867 H          1 MOL1         0.0947
      19    H13     18.735941   21.120518   24.471042 H          1 MOL1         0.0947
      20    C7      19.836050   19.692100   25.698927 C.3        1 MOL1        -0.1477
      21    H14     20.526790   19.328627   24.930006 H          1 MOL1         0.0947
      22    H15     20.340962   20.529166   26.199112 H          1 MOL1         0.0947
      23    C8      19.584532   18.576877   26.731282 C.3        1 MOL1         0.0145
      24    H16     19.118269   17.716822   26.244399 H          1 MOL1         0.0921
      25    H17     18.907512   18.941354   27.508546 H          1 MOL1         0.0921
      26    N1      20.853618   18.096609   27.404960 N.4        1 MOL1        -0.5969
      27    H18     21.328585   18.853515   27.907909 H          1 MOL1         0.3603
      28    H19     21.524014   17.715342   26.729276 H          1 MOL1         0.3603
      29    H20     20.664517   17.355943   28.089289 H          1 MOL1         0.3603
@<TRIPOS>BOND
    1     1     2    1
    2     1     3    1
    3     1     4    1
    4     1     5    1
    5     5     6    1
    6     5     7    1
    7     5     8    1
    8     8     9    1
    9     8    10    1
   10     8    11    1
   11    11    12    1
   12    11    13    1
   13    11    14    1
   14    14    15    1
   15    14    16    1
   16    14    17    1
   17    17    18    1
   18    17    19    1
   19    17    20    1
   20    20    21    1
   21    20    22    1
   22    20    23    1
   23    23    24    1
   24    23    25    1
   25    23    26    1
   26    26    27    1
   27    26    28    1
   28    26    29    1
@<TRIPOS>SUBSTRUCTURE
       1 MOL1            1 RESIDUE      1      MOL     
@<SCITEGIC>MOL_PROPERTY
VM2 Rank
SciTegic.value.IntegerValue
277

@<SCITEGIC>MOL_PROPERTY
Conf_Id
SciTegic.value.IntegerValue
1056

@<SCITEGIC>MOL_PROPERTY
Probability
SciTegic.value.DoubleValue
0.01

@<SCITEGIC>MOL_PROPERTY
Sum Probability
SciTegic.value.DoubleValue
99.51

@<SCITEGIC>MOL_PROPERTY
Delta G
SciTegic.value.DoubleValue
3.952

@<SCITEGIC>MOL_PROPERTY
G
SciTegic.value.DoubleValue
62.099

@<SCITEGIC>MOL_PROPERTY
E
SciTegic.value.DoubleValue
24.475

@<SCITEGIC>MOL_PROPERTY
-TS
SciTegic.value.DoubleValue
37.624

@<SCITEGIC>MOL_PROPERTY
U+W
SciTegic.value.DoubleValue
0.330

@<SCITEGIC>MOL_PROPERTY
U
SciTegic.value.DoubleValue
52.594

@<SCITEGIC>MOL_PROPERTY
W
SciTegic.value.DoubleValue
-52.264

@<SCITEGIC>MOL_PROPERTY
W(PB)
SciTegic.value.DoubleValue
-54.747

@<SCITEGIC>MOL_PROPERTY
W(SA)
SciTegic.value.DoubleValue
2.483

@<SCITEGIC>MOL_PROPERTY
Valence
SciTegic.value.DoubleValue
6.024

@<SCITEGIC>MOL_PROPERTY
Coulomb
SciTegic.value.DoubleValue
45.774

@<SCITEGIC>MOL_PROPERTY
VdW
SciTegic.value.DoubleValue
0.796

@<SCITEGIC>MOL_PROPERTY
VdW6
SciTegic.value.DoubleValue
-9.191

@<SCITEGIC>MOL_PROPERTY
VdW12
SciTegic.value.DoubleValue
9.987

@<SCITEGIC>MOL_PROPERTY
Bond
SciTegic.value.DoubleValue
0.266

@<SCITEGIC>MOL_PROPERTY
Angle
SciTegic.value.DoubleValue
1.394

@<SCITEGIC>MOL_PROPERTY
Pdih
SciTegic.value.DoubleValue
4.364

@<SCITEGIC>MOL_PROPERTY
Idih
SciTegic.value.DoubleValue
0.000

@<SCITEGIC>MOL_PROPERTY
Tether
SciTegic.value.DoubleValue
0.000

@<TRIPOS>MOLECULE
guest-3_vm2.mol2 : vm2 ligand conformer 278
          29          28           1
SMALL
USER_CHARGES
 
@<TRIPOS>ATOM
       1    C1      21.086700   18.564450   21.094442 C.3        1 MOL1        -0.2427
       2    H1      21.791647   17.941684   20.528708 H          1 MOL1         0.0958
       3    H2      21.371630   19.614105   20.946490 H          1 MOL1         0.0958
       4    H3      21.207986   18.314479   22.155587 H          1 MOL1         0.0958
       5    C2      19.639726   18.307679   20.620475 C.3        1 MOL1        -0.1412
       6    H4      19.362127   17.268431   20.845363 H          1 MOL1         0.0947
       7    H5      19.605542   18.401625   19.526074 H          1 MOL1         0.0947
       8    C3      18.587710   19.269700   21.229155 C.3        1 MOL1        -0.1437
       9    H6      18.795580   20.302270   20.916837 H          1 MOL1         0.0947
      10    H7      17.614372   19.017227   20.786207 H          1 MOL1         0.0947
      11    C4      18.451331   19.189286   22.772125 C.3        1 MOL1        -0.1437
      12    H8      18.701367   18.175653   23.110356 H          1 MOL1         0.0947
      13    H9      17.396571   19.347510   23.035877 H          1 MOL1         0.0947
      14    C5      19.299503   20.250257   23.520246 C.3        1 MOL1        -0.1437
      15    H10     20.364548   20.127095   23.291306 H          1 MOL1         0.0947
      16    H11     19.023246   21.247675   23.151587 H          1 MOL1         0.0947
      17    C6      19.101607   20.226924   25.055627 C.3        1 MOL1        -0.1437
      18    H12     18.036868   20.358713   25.293245 H          1 MOL1         0.0947
      19    H13     19.623156   21.092730   25.486945 H          1 MOL1         0.0947
      20    C7      19.631749   18.938103   25.726635 C.3        1 MOL1        -0.1477
      21    H14     19.068170   18.066488   25.371264 H          1 MOL1         0.0947
      22    H15     20.682086   18.781069   25.447313 H          1 MOL1         0.0947
      23    C8      19.516861   19.017369   27.258970 C.3        1 MOL1         0.0145
      24    H16     18.470313   19.157232   27.542908 H          1 MOL1         0.0921
      25    H17     20.090804   19.871846   27.627606 H          1 MOL1         0.0921
      26    N1      20.028812   17.774232   27.957326 N.4        1 MOL1        -0.5969
      27    H18     21.018493   17.601254   27.752146 H          1 MOL1         0.3603
      28    H19     19.510372   16.936128   27.674018 H          1 MOL1         0.3603
      29    H20     19.943454   17.848020   28.977124 H          1 MOL1         0.3603
@<TRIPOS>BOND
    1     1     2    1
    2     1     3    1
    3     1     4    1
    4     1     5    1
    5     5     6    1
    6     5     7    1
    7     5     8    1
    8     8     9    1
    9     8    10    1
   10     8    11    1
   11    11    12    1
   12    11    13    1
   13    11    14    1
   14    14    15    1
   15    14    16    1
   16    14    17    1
   17    17    18    1
   18    17    19    1
   19    17    20    1
   20    20    21    1
   21    20    22    1
   22    20    23    1
   23    23    24    1
   24    23    25    1
   25    23    26    1
   26    26    27    1
   27    26    28    1
   28    26    29    1
@<TRIPOS>SUBSTRUCTURE
       1 MOL1            1 RESIDUE      1      MOL     
@<SCITEGIC>MOL_PROPERTY
VM2 Rank
SciTegic.value.IntegerValue
278

@<SCITEGIC>MOL_PROPERTY
Conf_Id
SciTegic.value.IntegerValue
924

@<SCITEGIC>MOL_PROPERTY
Probability
SciTegic.value.DoubleValue
0.01

@<SCITEGIC>MOL_PROPERTY
Sum Probability
SciTegic.value.DoubleValue
99.51

@<SCITEGIC>MOL_PROPERTY
Delta G
SciTegic.value.DoubleValue
3.955

@<SCITEGIC>MOL_PROPERTY
G
SciTegic.value.DoubleValue
62.101

@<SCITEGIC>MOL_PROPERTY
E
SciTegic.value.DoubleValue
24.503

@<SCITEGIC>MOL_PROPERTY
-TS
SciTegic.value.DoubleValue
37.598

@<SCITEGIC>MOL_PROPERTY
U+W
SciTegic.value.DoubleValue
0.359

@<SCITEGIC>MOL_PROPERTY
U
SciTegic.value.DoubleValue
52.144

@<SCITEGIC>MOL_PROPERTY
W
SciTegic.value.DoubleValue
-51.785

@<SCITEGIC>MOL_PROPERTY
W(PB)
SciTegic.value.DoubleValue
-54.246

@<SCITEGIC>MOL_PROPERTY
W(SA)
SciTegic.value.DoubleValue
2.461

@<SCITEGIC>MOL_PROPERTY
Valence
SciTegic.value.DoubleValue
6.080

@<SCITEGIC>MOL_PROPERTY
Coulomb
SciTegic.value.DoubleValue
45.181

@<SCITEGIC>MOL_PROPERTY
VdW
SciTegic.value.DoubleValue
0.883

@<SCITEGIC>MOL_PROPERTY
VdW6
SciTegic.value.DoubleValue
-9.251

@<SCITEGIC>MOL_PROPERTY
VdW12
SciTegic.value.DoubleValue
10.134

@<SCITEGIC>MOL_PROPERTY
Bond
SciTegic.value.DoubleValue
0.274

@<SCITEGIC>MOL_PROPERTY
Angle
SciTegic.value.DoubleValue
1.423

@<SCITEGIC>MOL_PROPERTY
Pdih
SciTegic.value.DoubleValue
4.382

@<SCITEGIC>MOL_PROPERTY
Idih
SciTegic.value.DoubleValue
0.000

@<SCITEGIC>MOL_PROPERTY
Tether
SciTegic.value.DoubleValue
0.000

@<TRIPOS>MOLECULE
guest-3_vm2.mol2 : vm2 ligand conformer 279
          29          28           1
SMALL
USER_CHARGES
 
@<TRIPOS>ATOM
       1    C1      19.958295   17.414507   20.782328 C.3        1 MOL1        -0.2427
       2    H1      20.980875   17.717132   20.522007 H          1 MOL1         0.0958
       3    H2      19.981622   16.935035   21.768769 H          1 MOL1         0.0958
       4    H3      19.636642   16.657633   20.055284 H          1 MOL1         0.0958
       5    C2      18.998456   18.625634   20.762448 C.3        1 MOL1        -0.1412
       6    H4      17.990069   18.302505   21.056464 H          1 MOL1         0.0947
       7    H5      18.914566   18.994379   19.730591 H          1 MOL1         0.0947
       8    C3      19.459998   19.791123   21.670242 C.3        1 MOL1        -0.1437
       9    H6      20.456582   20.128933   21.354167 H          1 MOL1         0.0947
      10    H7      18.781878   20.642151   21.517793 H          1 MOL1         0.0947
      11    C4      19.484125   19.427509   23.174066 C.3        1 MOL1        -0.1437
      12    H8      20.219609   18.632764   23.354063 H          1 MOL1         0.0947
      13    H9      18.499227   19.035952   23.457538 H          1 MOL1         0.0947
      14    C5      19.829065   20.651939   24.053269 C.3        1 MOL1        -0.1437
      15    H10     20.726116   21.139846   23.647514 H          1 MOL1         0.0947
      16    H11     19.020514   21.392370   23.981051 H          1 MOL1         0.0947
      17    C6      20.095330   20.321425   25.544768 C.3        1 MOL1        -0.1437
      18    H12     20.373962   21.259811   26.043889 H          1 MOL1         0.0947
      19    H13     20.975083   19.671024   25.632952 H          1 MOL1         0.0947
      20    C7      18.887772   19.715543   26.309113 C.3        1 MOL1        -0.1477
      21    H14     18.989050   19.950834   27.376947 H          1 MOL1         0.0947
      22    H15     17.960714   20.203662   25.980473 H          1 MOL1         0.0947
      23    C8      18.739725   18.185691   26.168455 C.3        1 MOL1         0.0145
      24    H16     18.657730   17.905791   25.116962 H          1 MOL1         0.0921
      25    H17     17.825522   17.865246   26.675425 H          1 MOL1         0.0921
      26    N1      19.891234   17.404630   26.770312 N.4        1 MOL1        -0.5969
      27    H18     20.001665   17.601062   27.770529 H          1 MOL1         0.3603
      28    H19     20.781499   17.631769   26.316800 H          1 MOL1         0.3603
      29    H20     19.754780   16.392172   26.676890 H          1 MOL1         0.3603
@<TRIPOS>BOND
    1     1     2    1
    2     1     3    1
    3     1     4    1
    4     1     5    1
    5     5     6    1
    6     5     7    1
    7     5     8    1
    8     8     9    1
    9     8    10    1
   10     8    11    1
   11    11    12    1
   12    11    13    1
   13    11    14    1
   14    14    15    1
   15    14    16    1
   16    14    17    1
   17    17    18    1
   18    17    19    1
   19    17    20    1
   20    20    21    1
   21    20    22    1
   22    20    23    1
   23    23    24    1
   24    23    25    1
   25    23    26    1
   26    26    27    1
   27    26    28    1
   28    26    29    1
@<TRIPOS>SUBSTRUCTURE
       1 MOL1            1 RESIDUE      1      MOL     
@<SCITEGIC>MOL_PROPERTY
VM2 Rank
SciTegic.value.IntegerValue
279

@<SCITEGIC>MOL_PROPERTY
Conf_Id
SciTegic.value.IntegerValue
2922

@<SCITEGIC>MOL_PROPERTY
Probability
SciTegic.value.DoubleValue
0.01

@<SCITEGIC>MOL_PROPERTY
Sum Probability
SciTegic.value.DoubleValue
99.52

@<SCITEGIC>MOL_PROPERTY
Delta G
SciTegic.value.DoubleValue
3.956

@<SCITEGIC>MOL_PROPERTY
G
SciTegic.value.DoubleValue
62.102

@<SCITEGIC>MOL_PROPERTY
E
SciTegic.value.DoubleValue
24.393

@<SCITEGIC>MOL_PROPERTY
-TS
SciTegic.value.DoubleValue
37.709

@<SCITEGIC>MOL_PROPERTY
U+W
SciTegic.value.DoubleValue
0.249

@<SCITEGIC>MOL_PROPERTY
U
SciTegic.value.DoubleValue
52.677

@<SCITEGIC>MOL_PROPERTY
W
SciTegic.value.DoubleValue
-52.429

@<SCITEGIC>MOL_PROPERTY
W(PB)
SciTegic.value.DoubleValue
-54.882

@<SCITEGIC>MOL_PROPERTY
W(SA)
SciTegic.value.DoubleValue
2.453

@<SCITEGIC>MOL_PROPERTY
Valence
SciTegic.value.DoubleValue
5.621

@<SCITEGIC>MOL_PROPERTY
Coulomb
SciTegic.value.DoubleValue
46.222

@<SCITEGIC>MOL_PROPERTY
VdW
SciTegic.value.DoubleValue
0.835

@<SCITEGIC>MOL_PROPERTY
VdW6
SciTegic.value.DoubleValue
-9.923

@<SCITEGIC>MOL_PROPERTY
VdW12
SciTegic.value.DoubleValue
10.758

@<SCITEGIC>MOL_PROPERTY
Bond
SciTegic.value.DoubleValue
0.281

@<SCITEGIC>MOL_PROPERTY
Angle
SciTegic.value.DoubleValue
1.572

@<SCITEGIC>MOL_PROPERTY
Pdih
SciTegic.value.DoubleValue
3.767

@<SCITEGIC>MOL_PROPERTY
Idih
SciTegic.value.DoubleValue
0.000

@<SCITEGIC>MOL_PROPERTY
Tether
SciTegic.value.DoubleValue
0.000

@<TRIPOS>MOLECULE
guest-3_vm2.mol2 : vm2 ligand conformer 280
          29          28           1
SMALL
USER_CHARGES
 
@<TRIPOS>ATOM
       1    C1      20.385562   20.120956   20.311266 C.3        1 MOL1        -0.2427
       2    H1      20.821842   20.892567   20.958790 H          1 MOL1         0.0958
       3    H2      20.896750   20.168088   19.341023 H          1 MOL1         0.0958
       4    H3      19.330806   20.370465   20.141277 H          1 MOL1         0.0958
       5    C2      20.541830   18.716775   20.937530 C.3        1 MOL1        -0.1412
       6    H4      21.610624   18.464984   20.982154 H          1 MOL1         0.0947
       7    H5      20.076260   17.966550   20.283227 H          1 MOL1         0.0947
       8    C3      19.946046   18.611381   22.361924 C.3        1 MOL1        -0.1437
       9    H6      20.183726   17.618562   22.767722 H          1 MOL1         0.0947
      10    H7      20.440670   19.346633   23.009810 H          1 MOL1         0.0947
      11    C4      18.413001   18.823196   22.402195 C.3        1 MOL1        -0.1437
      12    H8      17.946158   18.197201   21.629387 H          1 MOL1         0.0947
      13    H9      18.175077   19.862714   22.140423 H          1 MOL1         0.0947
      14    C5      17.757003   18.482795   23.765234 C.3        1 MOL1        -0.1437
      15    H10     16.672367   18.616844   23.651157 H          1 MOL1         0.0947
      16    H11     17.899900   17.418825   23.999092 H          1 MOL1         0.0947
      17    C6      18.229050   19.364395   24.950855 C.3        1 MOL1        -0.1437
      18    H12     17.374451   19.530839   25.621451 H          1 MOL1         0.0947
      19    H13     18.527201   20.357741   24.587732 H          1 MOL1         0.0947
      20    C7      19.370901   18.727399   25.778557 C.3        1 MOL1        -0.1477
      21    H14     19.037601   17.761196   26.180139 H          1 MOL1         0.0947
      22    H15     20.241350   18.524168   25.144934 H          1 MOL1         0.0947
      23    C8      19.795317   19.641214   26.941379 C.3        1 MOL1         0.0145
      24    H16     18.938322   19.828879   27.593900 H          1 MOL1         0.0921
      25    H17     20.144776   20.599545   26.547781 H          1 MOL1         0.0921
      26    N1      20.905289   19.049889   27.786059 N.4        1 MOL1        -0.5969
      27    H18     20.629305   18.157136   28.208354 H          1 MOL1         0.3603
      28    H19     21.172154   19.674326   28.555198 H          1 MOL1         0.3603
      29    H20     21.752527   18.874882   27.235633 H          1 MOL1         0.3603
@<TRIPOS>BOND
    1     1     2    1
    2     1     3    1
    3     1     4    1
    4     1     5    1
    5     5     6    1
    6     5     7    1
    7     5     8    1
    8     8     9    1
    9     8    10    1
   10     8    11    1
   11    11    12    1
   12    11    13    1
   13    11    14    1
   14    14    15    1
   15    14    16    1
   16    14    17    1
   17    17    18    1
   18    17    19    1
   19    17    20    1
   20    20    21    1
   21    20    22    1
   22    20    23    1
   23    23    24    1
   24    23    25    1
   25    23    26    1
   26    26    27    1
   27    26    28    1
   28    26    29    1
@<TRIPOS>SUBSTRUCTURE
       1 MOL1            1 RESIDUE      1      MOL     
@<SCITEGIC>MOL_PROPERTY
VM2 Rank
SciTegic.value.IntegerValue
280

@<SCITEGIC>MOL_PROPERTY
Conf_Id
SciTegic.value.IntegerValue
1627

@<SCITEGIC>MOL_PROPERTY
Probability
SciTegic.value.DoubleValue
0.01

@<SCITEGIC>MOL_PROPERTY
Sum Probability
SciTegic.value.DoubleValue
99.53

@<SCITEGIC>MOL_PROPERTY
Delta G
SciTegic.value.DoubleValue
3.968

@<SCITEGIC>MOL_PROPERTY
G
SciTegic.value.DoubleValue
62.114

@<SCITEGIC>MOL_PROPERTY
E
SciTegic.value.DoubleValue
24.426

@<SCITEGIC>MOL_PROPERTY
-TS
SciTegic.value.DoubleValue
37.688

@<SCITEGIC>MOL_PROPERTY
U+W
SciTegic.value.DoubleValue
0.282

@<SCITEGIC>MOL_PROPERTY
U
SciTegic.value.DoubleValue
52.336

@<SCITEGIC>MOL_PROPERTY
W
SciTegic.value.DoubleValue
-52.055

@<SCITEGIC>MOL_PROPERTY
W(PB)
SciTegic.value.DoubleValue
-54.553

@<SCITEGIC>MOL_PROPERTY
W(SA)
SciTegic.value.DoubleValue
2.498

@<SCITEGIC>MOL_PROPERTY
Valence
SciTegic.value.DoubleValue
6.070

@<SCITEGIC>MOL_PROPERTY
Coulomb
SciTegic.value.DoubleValue
45.396

@<SCITEGIC>MOL_PROPERTY
VdW
SciTegic.value.DoubleValue
0.870

@<SCITEGIC>MOL_PROPERTY
VdW6
SciTegic.value.DoubleValue
-9.253

@<SCITEGIC>MOL_PROPERTY
VdW12
SciTegic.value.DoubleValue
10.123

@<SCITEGIC>MOL_PROPERTY
Bond
SciTegic.value.DoubleValue
0.266

@<SCITEGIC>MOL_PROPERTY
Angle
SciTegic.value.DoubleValue
1.373

@<SCITEGIC>MOL_PROPERTY
Pdih
SciTegic.value.DoubleValue
4.431

@<SCITEGIC>MOL_PROPERTY
Idih
SciTegic.value.DoubleValue
0.000

@<SCITEGIC>MOL_PROPERTY
Tether
SciTegic.value.DoubleValue
0.000

@<TRIPOS>MOLECULE
guest-3_vm2.mol2 : vm2 ligand conformer 281
          29          28           1
SMALL
USER_CHARGES
 
@<TRIPOS>ATOM
       1    C1      20.448846   17.854932   20.387306 C.3        1 MOL1        -0.2427
       2    H1      19.728527   17.036320   20.514696 H          1 MOL1         0.0958
       3    H2      20.228529   18.359835   19.437705 H          1 MOL1         0.0958
       4    H3      21.450846   17.413411   20.309493 H          1 MOL1         0.0958
       5    C2      20.379363   18.843160   21.570628 C.3        1 MOL1        -0.1412
       6    H4      21.129983   19.633436   21.430585 H          1 MOL1         0.0947
       7    H5      20.643939   18.311397   22.494231 H          1 MOL1         0.0947
       8    C3      18.973973   19.475523   21.703268 C.3        1 MOL1        -0.1437
       9    H6      18.697869   19.934882   20.744146 H          1 MOL1         0.0947
      10    H7      18.229251   18.689596   21.886015 H          1 MOL1         0.0947
      11    C4      18.882220   20.560627   22.807258 C.3        1 MOL1        -0.1437
      12    H8      17.867281   20.981391   22.804212 H          1 MOL1         0.0947
      13    H9      19.551947   21.391718   22.546691 H          1 MOL1         0.0947
      14    C5      19.221338   20.076989   24.240703 C.3        1 MOL1        -0.1437
      15    H10     20.274019   19.773828   24.278709 H          1 MOL1         0.0947
      16    H11     19.116051   20.928938   24.926410 H          1 MOL1         0.0947
      17    C6      18.315637   18.918217   24.726405 C.3        1 MOL1        -0.1437
      18    H12     18.533848   18.008725   24.150760 H          1 MOL1         0.0947
      19    H13     17.268366   19.173683   24.513985 H          1 MOL1         0.0947
      20    C7      18.439040   18.601428   26.238533 C.3        1 MOL1        -0.1477
      21    H14     18.174149   19.482832   26.837532 H          1 MOL1         0.0947
      22    H15     17.692015   17.834827   26.483674 H          1 MOL1         0.0947
      23    C8      19.820281   18.065048   26.667933 C.3        1 MOL1         0.0145
      24    H16     20.197520   17.366924   25.915882 H          1 MOL1         0.0921
      25    H17     19.713989   17.522730   27.611365 H          1 MOL1         0.0921
      26    N1      20.863302   19.142075   26.892966 N.4        1 MOL1        -0.5969
      27    H18     21.025833   19.695285   26.046926 H          1 MOL1         0.3603
      28    H19     21.766151   18.744143   27.174279 H          1 MOL1         0.3603
      29    H20     20.580698   19.794158   27.632052 H          1 MOL1         0.3603
@<TRIPOS>BOND
    1     1     2    1
    2     1     3    1
    3     1     4    1
    4     1     5    1
    5     5     6    1
    6     5     7    1
    7     5     8    1
    8     8     9    1
    9     8    10    1
   10     8    11    1
   11    11    12    1
   12    11    13    1
   13    11    14    1
   14    14    15    1
   15    14    16    1
   16    14    17    1
   17    17    18    1
   18    17    19    1
   19    17    20    1
   20    20    21    1
   21    20    22    1
   22    20    23    1
   23    23    24    1
   24    23    25    1
   25    23    26    1
   26    26    27    1
   27    26    28    1
   28    26    29    1
@<TRIPOS>SUBSTRUCTURE
       1 MOL1            1 RESIDUE      1      MOL     
@<SCITEGIC>MOL_PROPERTY
VM2 Rank
SciTegic.value.IntegerValue
281

@<SCITEGIC>MOL_PROPERTY
Conf_Id
SciTegic.value.IntegerValue
525

@<SCITEGIC>MOL_PROPERTY
Probability
SciTegic.value.DoubleValue
0.01

@<SCITEGIC>MOL_PROPERTY
Sum Probability
SciTegic.value.DoubleValue
99.53

@<SCITEGIC>MOL_PROPERTY
Delta G
SciTegic.value.DoubleValue
3.973

@<SCITEGIC>MOL_PROPERTY
G
SciTegic.value.DoubleValue
62.119

@<SCITEGIC>MOL_PROPERTY
E
SciTegic.value.DoubleValue
24.311

@<SCITEGIC>MOL_PROPERTY
-TS
SciTegic.value.DoubleValue
37.808

@<SCITEGIC>MOL_PROPERTY
U+W
SciTegic.value.DoubleValue
0.166

@<SCITEGIC>MOL_PROPERTY
U
SciTegic.value.DoubleValue
52.644

@<SCITEGIC>MOL_PROPERTY
W
SciTegic.value.DoubleValue
-52.478

@<SCITEGIC>MOL_PROPERTY
W(PB)
SciTegic.value.DoubleValue
-54.891

@<SCITEGIC>MOL_PROPERTY
W(SA)
SciTegic.value.DoubleValue
2.412

@<SCITEGIC>MOL_PROPERTY
Valence
SciTegic.value.DoubleValue
5.097

@<SCITEGIC>MOL_PROPERTY
Coulomb
SciTegic.value.DoubleValue
46.891

@<SCITEGIC>MOL_PROPERTY
VdW
SciTegic.value.DoubleValue
0.657

@<SCITEGIC>MOL_PROPERTY
VdW6
SciTegic.value.DoubleValue
-10.250

@<SCITEGIC>MOL_PROPERTY
VdW12
SciTegic.value.DoubleValue
10.907

@<SCITEGIC>MOL_PROPERTY
Bond
SciTegic.value.DoubleValue
0.285

@<SCITEGIC>MOL_PROPERTY
Angle
SciTegic.value.DoubleValue
1.535

@<SCITEGIC>MOL_PROPERTY
Pdih
SciTegic.value.DoubleValue
3.277

@<SCITEGIC>MOL_PROPERTY
Idih
SciTegic.value.DoubleValue
0.000

@<SCITEGIC>MOL_PROPERTY
Tether
SciTegic.value.DoubleValue
0.000

@<TRIPOS>MOLECULE
guest-3_vm2.mol2 : vm2 ligand conformer 282
          29          28           1
SMALL
USER_CHARGES
 
@<TRIPOS>ATOM
       1    C1      20.930541   20.136592   20.881710 C.3        1 MOL1        -0.2427
       2    H1      21.521929   19.245560   20.634029 H          1 MOL1         0.0958
       3    H2      21.215114   20.933484   20.182496 H          1 MOL1         0.0958
       4    H3      21.210996   20.467101   21.889447 H          1 MOL1         0.0958
       5    C2      19.416269   19.844210   20.780605 C.3        1 MOL1        -0.1412
       6    H4      19.164402   19.641327   19.730299 H          1 MOL1         0.0947
       7    H5      18.847220   20.740090   21.065730 H          1 MOL1         0.0947
       8    C3      18.962371   18.640316   21.641000 C.3        1 MOL1        -0.1437
       9    H6      17.904209   18.438153   21.425062 H          1 MOL1         0.0947
      10    H7      19.517282   17.741942   21.337301 H          1 MOL1         0.0947
      11    C4      19.134470   18.870487   23.161529 C.3        1 MOL1        -0.1437
      12    H8      18.617238   19.794617   23.453384 H          1 MOL1         0.0947
      13    H9      20.199151   19.003774   23.385570 H          1 MOL1         0.0947
      14    C5      18.586285   17.683136   23.986865 C.3        1 MOL1        -0.1437
      15    H10     17.570045   17.447379   23.641974 H          1 MOL1         0.0947
      16    H11     19.191673   16.788787   23.784701 H          1 MOL1         0.0947
      17    C6      18.527506   17.932826   25.516227 C.3        1 MOL1        -0.1437
      18    H12     18.079934   17.041371   25.977004 H          1 MOL1         0.0947
      19    H13     17.833610   18.754661   25.734995 H          1 MOL1         0.0947
      20    C7      19.901453   18.181019   26.194672 C.3        1 MOL1        -0.1477
      21    H14     19.838011   17.875940   27.247666 H          1 MOL1         0.0947
      22    H15     20.660645   17.531652   25.738975 H          1 MOL1         0.0947
      23    C8      20.385165   19.646013   26.149540 C.3        1 MOL1         0.0145
      24    H16     20.439205   19.998046   25.118085 H          1 MOL1         0.0921
      25    H17     21.388387   19.706430   26.580089 H          1 MOL1         0.0921
      26    N1      19.499941   20.603401   26.922853 N.4        1 MOL1        -0.5969
      27    H18     18.546023   20.623431   26.549344 H          1 MOL1         0.3603
      28    H19     19.857279   21.564431   26.888928 H          1 MOL1         0.3603
      29    H20     19.432692   20.343455   27.912355 H          1 MOL1         0.3603
@<TRIPOS>BOND
    1     1     2    1
    2     1     3    1
    3     1     4    1
    4     1     5    1
    5     5     6    1
    6     5     7    1
    7     5     8    1
    8     8     9    1
    9     8    10    1
   10     8    11    1
   11    11    12    1
   12    11    13    1
   13    11    14    1
   14    14    15    1
   15    14    16    1
   16    14    17    1
   17    17    18    1
   18    17    19    1
   19    17    20    1
   20    20    21    1
   21    20    22    1
   22    20    23    1
   23    23    24    1
   24    23    25    1
   25    23    26    1
   26    26    27    1
   27    26    28    1
   28    26    29    1
@<TRIPOS>SUBSTRUCTURE
       1 MOL1            1 RESIDUE      1      MOL     
@<SCITEGIC>MOL_PROPERTY
VM2 Rank
SciTegic.value.IntegerValue
282

@<SCITEGIC>MOL_PROPERTY
Conf_Id
SciTegic.value.IntegerValue
77

@<SCITEGIC>MOL_PROPERTY
Probability
SciTegic.value.DoubleValue
0.01

@<SCITEGIC>MOL_PROPERTY
Sum Probability
SciTegic.value.DoubleValue
99.54

@<SCITEGIC>MOL_PROPERTY
Delta G
SciTegic.value.DoubleValue
3.984

@<SCITEGIC>MOL_PROPERTY
G
SciTegic.value.DoubleValue
62.130

@<SCITEGIC>MOL_PROPERTY
E
SciTegic.value.DoubleValue
24.423

@<SCITEGIC>MOL_PROPERTY
-TS
SciTegic.value.DoubleValue
37.707

@<SCITEGIC>MOL_PROPERTY
U+W
SciTegic.value.DoubleValue
0.279

@<SCITEGIC>MOL_PROPERTY
U
SciTegic.value.DoubleValue
52.635

@<SCITEGIC>MOL_PROPERTY
W
SciTegic.value.DoubleValue
-52.357

@<SCITEGIC>MOL_PROPERTY
W(PB)
SciTegic.value.DoubleValue
-54.801

@<SCITEGIC>MOL_PROPERTY
W(SA)
SciTegic.value.DoubleValue
2.445

@<SCITEGIC>MOL_PROPERTY
Valence
SciTegic.value.DoubleValue
5.624

@<SCITEGIC>MOL_PROPERTY
Coulomb
SciTegic.value.DoubleValue
46.167

@<SCITEGIC>MOL_PROPERTY
VdW
SciTegic.value.DoubleValue
0.845

@<SCITEGIC>MOL_PROPERTY
VdW6
SciTegic.value.DoubleValue
-9.932

@<SCITEGIC>MOL_PROPERTY
VdW12
SciTegic.value.DoubleValue
10.776

@<SCITEGIC>MOL_PROPERTY
Bond
SciTegic.value.DoubleValue
0.284

@<SCITEGIC>MOL_PROPERTY
Angle
SciTegic.value.DoubleValue
1.571

@<SCITEGIC>MOL_PROPERTY
Pdih
SciTegic.value.DoubleValue
3.768

@<SCITEGIC>MOL_PROPERTY
Idih
SciTegic.value.DoubleValue
0.000

@<SCITEGIC>MOL_PROPERTY
Tether
SciTegic.value.DoubleValue
0.000

@<TRIPOS>MOLECULE
guest-3_vm2.mol2 : vm2 ligand conformer 283
          29          28           1
SMALL
USER_CHARGES
 
@<TRIPOS>ATOM
       1    C1      20.356044   18.146441   20.259465 C.3        1 MOL1        -0.2427
       2    H1      19.584967   17.956585   19.501562 H          1 MOL1         0.0958
       3    H2      21.331557   17.939397   19.800783 H          1 MOL1         0.0958
       4    H3      20.213682   17.427268   21.073314 H          1 MOL1         0.0958
       5    C2      20.292649   19.609391   20.756690 C.3        1 MOL1        -0.1412
       6    H4      20.479736   20.266811   19.896078 H          1 MOL1         0.0947
       7    H5      21.105533   19.805917   21.469533 H          1 MOL1         0.0947
       8    C3      18.925369   19.991469   21.380041 C.3        1 MOL1        -0.1437
       9    H6      18.721295   21.043036   21.135278 H          1 MOL1         0.0947
      10    H7      18.117483   19.416022   20.907515 H          1 MOL1         0.0947
      11    C4      18.850835   19.850395   22.922299 C.3        1 MOL1        -0.1437
      12    H8      17.873389   20.225967   23.254874 H          1 MOL1         0.0947
      13    H9      19.604086   20.506895   23.377470 H          1 MOL1         0.0947
      14    C5      19.035552   18.402634   23.438497 C.3        1 MOL1        -0.1437
      15    H10     18.389632   17.729074   22.858764 H          1 MOL1         0.0947
      16    H11     20.069268   18.075796   23.266468 H          1 MOL1         0.0947
      17    C6      18.697764   18.236824   24.940384 C.3        1 MOL1        -0.1437
      18    H12     18.761055   17.170084   25.196697 H          1 MOL1         0.0947
      19    H13     17.655381   18.535300   25.118905 H          1 MOL1         0.0947
      20    C7      19.636006   19.035324   25.875334 C.3        1 MOL1        -0.1477
      21    H14     20.680718   18.770536   25.664716 H          1 MOL1         0.0947
      22    H15     19.529969   20.111252   25.687443 H          1 MOL1         0.0947
      23    C8      19.325136   18.751782   27.355364 C.3        1 MOL1         0.0145
      24    H16     19.445752   17.684359   27.559070 H          1 MOL1         0.0921
      25    H17     18.290401   19.029282   27.573910 H          1 MOL1         0.0921
      26    N1      20.224646   19.513740   28.306925 N.4        1 MOL1        -0.5969
      27    H18     20.137692   20.528151   28.184923 H          1 MOL1         0.3603
      28    H19     21.212893   19.276523   28.170530 H          1 MOL1         0.3603
      29    H20     20.001013   19.310329   29.287403 H          1 MOL1         0.3603
@<TRIPOS>BOND
    1     1     2    1
    2     1     3    1
    3     1     4    1
    4     1     5    1
    5     5     6    1
    6     5     7    1
    7     5     8    1
    8     8     9    1
    9     8    10    1
   10     8    11    1
   11    11    12    1
   12    11    13    1
   13    11    14    1
   14    14    15    1
   15    14    16    1
   16    14    17    1
   17    17    18    1
   18    17    19    1
   19    17    20    1
   20    20    21    1
   21    20    22    1
   22    20    23    1
   23    23    24    1
   24    23    25    1
   25    23    26    1
   26    26    27    1
   27    26    28    1
   28    26    29    1
@<TRIPOS>SUBSTRUCTURE
       1 MOL1            1 RESIDUE      1      MOL     
@<SCITEGIC>MOL_PROPERTY
VM2 Rank
SciTegic.value.IntegerValue
283

@<SCITEGIC>MOL_PROPERTY
Conf_Id
SciTegic.value.IntegerValue
2644

@<SCITEGIC>MOL_PROPERTY
Probability
SciTegic.value.DoubleValue
0.01

@<SCITEGIC>MOL_PROPERTY
Sum Probability
SciTegic.value.DoubleValue
99.55

@<SCITEGIC>MOL_PROPERTY
Delta G
SciTegic.value.DoubleValue
4.017

@<SCITEGIC>MOL_PROPERTY
G
SciTegic.value.DoubleValue
62.163

@<SCITEGIC>MOL_PROPERTY
E
SciTegic.value.DoubleValue
24.519

@<SCITEGIC>MOL_PROPERTY
-TS
SciTegic.value.DoubleValue
37.645

@<SCITEGIC>MOL_PROPERTY
U+W
SciTegic.value.DoubleValue
0.374

@<SCITEGIC>MOL_PROPERTY
U
SciTegic.value.DoubleValue
51.963

@<SCITEGIC>MOL_PROPERTY
W
SciTegic.value.DoubleValue
-51.589

@<SCITEGIC>MOL_PROPERTY
W(PB)
SciTegic.value.DoubleValue
-54.078

@<SCITEGIC>MOL_PROPERTY
W(SA)
SciTegic.value.DoubleValue
2.490

@<SCITEGIC>MOL_PROPERTY
Valence
SciTegic.value.DoubleValue
6.066

@<SCITEGIC>MOL_PROPERTY
Coulomb
SciTegic.value.DoubleValue
44.963

@<SCITEGIC>MOL_PROPERTY
VdW
SciTegic.value.DoubleValue
0.933

@<SCITEGIC>MOL_PROPERTY
VdW6
SciTegic.value.DoubleValue
-9.161

@<SCITEGIC>MOL_PROPERTY
VdW12
SciTegic.value.DoubleValue
10.094

@<SCITEGIC>MOL_PROPERTY
Bond
SciTegic.value.DoubleValue
0.266

@<SCITEGIC>MOL_PROPERTY
Angle
SciTegic.value.DoubleValue
1.416

@<SCITEGIC>MOL_PROPERTY
Pdih
SciTegic.value.DoubleValue
4.385

@<SCITEGIC>MOL_PROPERTY
Idih
SciTegic.value.DoubleValue
0.000

@<SCITEGIC>MOL_PROPERTY
Tether
SciTegic.value.DoubleValue
0.000

@<TRIPOS>MOLECULE
guest-3_vm2.mol2 : vm2 ligand conformer 284
          29          28           1
SMALL
USER_CHARGES
 
@<TRIPOS>ATOM
       1    C1      21.101491   18.378251   21.185163 C.3        1 MOL1        -0.2427
       2    H1      21.001836   17.287762   21.108812 H          1 MOL1         0.0958
       3    H2      21.906561   18.690700   20.507622 H          1 MOL1         0.0958
       4    H3      21.415584   18.624664   22.207078 H          1 MOL1         0.0958
       5    C2      19.777582   19.083965   20.814324 C.3        1 MOL1        -0.1412
       6    H4      19.567581   18.905449   19.750541 H          1 MOL1         0.0947
       7    H5      19.895256   20.170851   20.919321 H          1 MOL1         0.0947
       8    C3      18.564371   18.594273   21.645433 C.3        1 MOL1        -0.1437
       9    H6      17.662055   19.113647   21.294471 H          1 MOL1         0.0947
      10    H7      18.397627   17.528450   21.437384 H          1 MOL1         0.0947
      11    C4      18.693939   18.788332   23.178060 C.3        1 MOL1        -0.1437
      12    H8      19.527449   18.180049   23.549339 H          1 MOL1         0.0947
      13    H9      17.785206   18.397101   23.655493 H          1 MOL1         0.0947
      14    C5      18.891450   20.266420   23.594568 C.3        1 MOL1        -0.1437
      15    H10     19.877746   20.616103   23.261611 H          1 MOL1         0.0947
      16    H11     18.152249   20.885931   23.068373 H          1 MOL1         0.0947
      17    C6      18.748348   20.529481   25.115896 C.3        1 MOL1        -0.1437
      18    H12     17.733596   20.273061   25.450622 H          1 MOL1         0.0947
      19    H13     18.849425   21.611949   25.275409 H          1 MOL1         0.0947
      20    C7      19.797615   19.812450   26.002347 C.3        1 MOL1        -0.1477
      21    H14     20.771104   19.793806   25.494556 H          1 MOL1         0.0947
      22    H15     19.937691   20.398411   26.920504 H          1 MOL1         0.0947
      23    C8      19.376271   18.386056   26.405518 C.3        1 MOL1         0.0145
      24    H16     19.236676   17.766498   25.517921 H          1 MOL1         0.0921
      25    H17     18.427712   18.424304   26.947833 H          1 MOL1         0.0921
      26    N1      20.392933   17.698774   27.293692 N.4        1 MOL1        -0.5969
      27    H18     21.303600   17.606936   26.831540 H          1 MOL1         0.3603
      28    H19     20.093054   16.753093   27.555153 H          1 MOL1         0.3603
      29    H20     20.547781   18.214751   28.166180 H          1 MOL1         0.3603
@<TRIPOS>BOND
    1     1     2    1
    2     1     3    1
    3     1     4    1
    4     1     5    1
    5     5     6    1
    6     5     7    1
    7     5     8    1
    8     8     9    1
    9     8    10    1
   10     8    11    1
   11    11    12    1
   12    11    13    1
   13    11    14    1
   14    14    15    1
   15    14    16    1
   16    14    17    1
   17    17    18    1
   18    17    19    1
   19    17    20    1
   20    20    21    1
   21    20    22    1
   22    20    23    1
   23    23    24    1
   24    23    25    1
   25    23    26    1
   26    26    27    1
   27    26    28    1
   28    26    29    1
@<TRIPOS>SUBSTRUCTURE
       1 MOL1            1 RESIDUE      1      MOL     
@<SCITEGIC>MOL_PROPERTY
VM2 Rank
SciTegic.value.IntegerValue
284

@<SCITEGIC>MOL_PROPERTY
Conf_Id
SciTegic.value.IntegerValue
651

@<SCITEGIC>MOL_PROPERTY
Probability
SciTegic.value.DoubleValue
0.01

@<SCITEGIC>MOL_PROPERTY
Sum Probability
SciTegic.value.DoubleValue
99.55

@<SCITEGIC>MOL_PROPERTY
Delta G
SciTegic.value.DoubleValue
4.023

@<SCITEGIC>MOL_PROPERTY
G
SciTegic.value.DoubleValue
62.170

@<SCITEGIC>MOL_PROPERTY
E
SciTegic.value.DoubleValue
24.211

@<SCITEGIC>MOL_PROPERTY
-TS
SciTegic.value.DoubleValue
37.959

@<SCITEGIC>MOL_PROPERTY
U+W
SciTegic.value.DoubleValue
0.066

@<SCITEGIC>MOL_PROPERTY
U
SciTegic.value.DoubleValue
52.537

@<SCITEGIC>MOL_PROPERTY
W
SciTegic.value.DoubleValue
-52.471

@<SCITEGIC>MOL_PROPERTY
W(PB)
SciTegic.value.DoubleValue
-54.905

@<SCITEGIC>MOL_PROPERTY
W(SA)
SciTegic.value.DoubleValue
2.434

@<SCITEGIC>MOL_PROPERTY
Valence
SciTegic.value.DoubleValue
5.863

@<SCITEGIC>MOL_PROPERTY
Coulomb
SciTegic.value.DoubleValue
45.962

@<SCITEGIC>MOL_PROPERTY
VdW
SciTegic.value.DoubleValue
0.712

@<SCITEGIC>MOL_PROPERTY
VdW6
SciTegic.value.DoubleValue
-10.331

@<SCITEGIC>MOL_PROPERTY
VdW12
SciTegic.value.DoubleValue
11.043

@<SCITEGIC>MOL_PROPERTY
Bond
SciTegic.value.DoubleValue
0.291

@<SCITEGIC>MOL_PROPERTY
Angle
SciTegic.value.DoubleValue
1.697

@<SCITEGIC>MOL_PROPERTY
Pdih
SciTegic.value.DoubleValue
3.875

@<SCITEGIC>MOL_PROPERTY
Idih
SciTegic.value.DoubleValue
0.000

@<SCITEGIC>MOL_PROPERTY
Tether
SciTegic.value.DoubleValue
0.000

@<TRIPOS>MOLECULE
guest-3_vm2.mol2 : vm2 ligand conformer 285
          29          28           1
SMALL
USER_CHARGES
 
@<TRIPOS>ATOM
       1    C1      20.587089   19.860219   19.926411 C.3        1 MOL1        -0.2427
       2    H1      20.259115   19.280398   19.053785 H          1 MOL1         0.0958
       3    H2      20.740371   20.898043   19.603222 H          1 MOL1         0.0958
       4    H3      21.555998   19.463256   20.256322 H          1 MOL1         0.0958
       5    C2      19.544463   19.791446   21.062090 C.3        1 MOL1        -0.1412
       6    H4      18.598346   20.226931   20.711455 H          1 MOL1         0.0947
       7    H5      19.882288   20.414709   21.898834 H          1 MOL1         0.0947
       8    C3      19.302634   18.334979   21.526554 C.3        1 MOL1        -0.1437
       9    H6      18.927601   17.761044   20.667862 H          1 MOL1         0.0947
      10    H7      20.250980   17.861605   21.815753 H          1 MOL1         0.0947
      11    C4      18.274133   18.219553   22.681722 C.3        1 MOL1        -0.1437
      12    H8      17.677843   17.311097   22.518808 H          1 MOL1         0.0947
      13    H9      17.559258   19.052882   22.640783 H          1 MOL1         0.0947
      14    C5      18.896030   18.120674   24.098716 C.3        1 MOL1        -0.1437
      15    H10     18.077909   17.970668   24.815194 H          1 MOL1         0.0947
      16    H11     19.523297   17.220579   24.158330 H          1 MOL1         0.0947
      17    C6      19.730850   19.356539   24.515922 C.3        1 MOL1        -0.1437
      18    H12     19.132657   20.269890   24.392699 H          1 MOL1         0.0947
      19    H13     20.596834   19.450994   23.848189 H          1 MOL1         0.0947
      20    C7      20.253693   19.273854   25.969384 C.3        1 MOL1        -0.1477
      21    H14     20.850008   18.360430   26.096139 H          1 MOL1         0.0947
      22    H15     20.930717   20.119043   26.151705 H          1 MOL1         0.0947
      23    C8      19.122319   19.304697   27.014082 C.3        1 MOL1         0.0145
      24    H16     18.465941   18.441799   26.876356 H          1 MOL1         0.0921
      25    H17     18.528436   20.213750   26.886483 H          1 MOL1         0.0921
      26    N1      19.632787   19.276040   28.440118 N.4        1 MOL1        -0.5969
      27    H18     20.179371   18.430146   28.632974 H          1 MOL1         0.3603
      28    H19     18.864867   19.297461   29.120198 H          1 MOL1         0.3603
      29    H20     20.236399   20.079061   28.645758 H          1 MOL1         0.3603
@<TRIPOS>BOND
    1     1     2    1
    2     1     3    1
    3     1     4    1
    4     1     5    1
    5     5     6    1
    6     5     7    1
    7     5     8    1
    8     8     9    1
    9     8    10    1
   10     8    11    1
   11    11    12    1
   12    11    13    1
   13    11    14    1
   14    14    15    1
   15    14    16    1
   16    14    17    1
   17    17    18    1
   18    17    19    1
   19    17    20    1
   20    20    21    1
   21    20    22    1
   22    20    23    1
   23    23    24    1
   24    23    25    1
   25    23    26    1
   26    26    27    1
   27    26    28    1
   28    26    29    1
@<TRIPOS>SUBSTRUCTURE
       1 MOL1            1 RESIDUE      1      MOL     
@<SCITEGIC>MOL_PROPERTY
VM2 Rank
SciTegic.value.IntegerValue
285

@<SCITEGIC>MOL_PROPERTY
Conf_Id
SciTegic.value.IntegerValue
262

@<SCITEGIC>MOL_PROPERTY
Probability
SciTegic.value.DoubleValue
0.01

@<SCITEGIC>MOL_PROPERTY
Sum Probability
SciTegic.value.DoubleValue
99.56

@<SCITEGIC>MOL_PROPERTY
Delta G
SciTegic.value.DoubleValue
4.040

@<SCITEGIC>MOL_PROPERTY
G
SciTegic.value.DoubleValue
62.186

@<SCITEGIC>MOL_PROPERTY
E
SciTegic.value.DoubleValue
24.529

@<SCITEGIC>MOL_PROPERTY
-TS
SciTegic.value.DoubleValue
37.657

@<SCITEGIC>MOL_PROPERTY
U+W
SciTegic.value.DoubleValue
0.384

@<SCITEGIC>MOL_PROPERTY
U
SciTegic.value.DoubleValue
51.978

@<SCITEGIC>MOL_PROPERTY
W
SciTegic.value.DoubleValue
-51.594

@<SCITEGIC>MOL_PROPERTY
W(PB)
SciTegic.value.DoubleValue
-54.085

@<SCITEGIC>MOL_PROPERTY
W(SA)
SciTegic.value.DoubleValue
2.491

@<SCITEGIC>MOL_PROPERTY
Valence
SciTegic.value.DoubleValue
6.000

@<SCITEGIC>MOL_PROPERTY
Coulomb
SciTegic.value.DoubleValue
45.081

@<SCITEGIC>MOL_PROPERTY
VdW
SciTegic.value.DoubleValue
0.898

@<SCITEGIC>MOL_PROPERTY
VdW6
SciTegic.value.DoubleValue
-9.133

@<SCITEGIC>MOL_PROPERTY
VdW12
SciTegic.value.DoubleValue
10.031

@<SCITEGIC>MOL_PROPERTY
Bond
SciTegic.value.DoubleValue
0.258

@<SCITEGIC>MOL_PROPERTY
Angle
SciTegic.value.DoubleValue
1.316

@<SCITEGIC>MOL_PROPERTY
Pdih
SciTegic.value.DoubleValue
4.427

@<SCITEGIC>MOL_PROPERTY
Idih
SciTegic.value.DoubleValue
0.000

@<SCITEGIC>MOL_PROPERTY
Tether
SciTegic.value.DoubleValue
0.000

@<TRIPOS>MOLECULE
guest-3_vm2.mol2 : vm2 ligand conformer 286
          29          28           1
SMALL
USER_CHARGES
 
@<TRIPOS>ATOM
       1    C1      19.889215   17.900328   19.882773 C.3        1 MOL1        -0.2427
       2    H1      19.357101   17.012659   19.516819 H          1 MOL1         0.0958
       3    H2      20.013266   18.590895   19.038401 H          1 MOL1         0.0958
       4    H3      20.886446   17.582781   20.214287 H          1 MOL1         0.0958
       5    C2      19.108611   18.567185   21.034956 C.3        1 MOL1        -0.1412
       6    H4      18.965212   17.838150   21.841594 H          1 MOL1         0.0947
       7    H5      18.105026   18.841366   20.680880 H          1 MOL1         0.0947
       8    C3      19.834535   19.829331   21.559871 C.3        1 MOL1        -0.1437
       9    H6      20.864630   19.585512   21.854039 H          1 MOL1         0.0947
      10    H7      19.918247   20.544528   20.729878 H          1 MOL1         0.0947
      11    C4      19.094056   20.522627   22.733152 C.3        1 MOL1        -0.1437
      12    H8      18.014138   20.330601   22.669419 H          1 MOL1         0.0947
      13    H9      19.207966   21.609088   22.614736 H          1 MOL1         0.0947
      14    C5      19.618685   20.150275   24.144013 C.3        1 MOL1        -0.1437
      15    H10     20.672559   20.448748   24.230359 H          1 MOL1         0.0947
      16    H11     19.069122   20.754701   24.877372 H          1 MOL1         0.0947
      17    C6      19.479500   18.649547   24.500085 C.3        1 MOL1        -0.1437
      18    H12     20.100717   18.056005   23.817064 H          1 MOL1         0.0947
      19    H13     18.440731   18.324918   24.349082 H          1 MOL1         0.0947
      20    C7      19.916354   18.325807   25.948219 C.3        1 MOL1        -0.1477
      21    H14     19.905061   17.236551   26.087291 H          1 MOL1         0.0947
      22    H15     20.953604   18.651695   26.102849 H          1 MOL1         0.0947
      23    C8      19.004743   18.974783   27.006586 C.3        1 MOL1         0.0145
      24    H16     17.972158   18.650746   26.851262 H          1 MOL1         0.0921
      25    H17     19.042557   20.062950   26.912480 H          1 MOL1         0.0921
      26    N1      19.398300   18.618118   28.425345 N.4        1 MOL1        -0.5969
      27    H18     19.356471   17.606937   28.590390 H          1 MOL1         0.3603
      28    H19     18.779620   19.059320   29.114723 H          1 MOL1         0.3603
      29    H20     20.353385   18.920563   28.644030 H          1 MOL1         0.3603
@<TRIPOS>BOND
    1     1     2    1
    2     1     3    1
    3     1     4    1
    4     1     5    1
    5     5     6    1
    6     5     7    1
    7     5     8    1
    8     8     9    1
    9     8    10    1
   10     8    11    1
   11    11    12    1
   12    11    13    1
   13    11    14    1
   14    14    15    1
   15    14    16    1
   16    14    17    1
   17    17    18    1
   18    17    19    1
   19    17    20    1
   20    20    21    1
   21    20    22    1
   22    20    23    1
   23    23    24    1
   24    23    25    1
   25    23    26    1
   26    26    27    1
   27    26    28    1
   28    26    29    1
@<TRIPOS>SUBSTRUCTURE
       1 MOL1            1 RESIDUE      1      MOL     
@<SCITEGIC>MOL_PROPERTY
VM2 Rank
SciTegic.value.IntegerValue
286

@<SCITEGIC>MOL_PROPERTY
Conf_Id
SciTegic.value.IntegerValue
2288

@<SCITEGIC>MOL_PROPERTY
Probability
SciTegic.value.DoubleValue
0.01

@<SCITEGIC>MOL_PROPERTY
Sum Probability
SciTegic.value.DoubleValue
99.56

@<SCITEGIC>MOL_PROPERTY
Delta G
SciTegic.value.DoubleValue
4.045

@<SCITEGIC>MOL_PROPERTY
G
SciTegic.value.DoubleValue
62.191

@<SCITEGIC>MOL_PROPERTY
E
SciTegic.value.DoubleValue
24.534

@<SCITEGIC>MOL_PROPERTY
-TS
SciTegic.value.DoubleValue
37.657

@<SCITEGIC>MOL_PROPERTY
U+W
SciTegic.value.DoubleValue
0.390

@<SCITEGIC>MOL_PROPERTY
U
SciTegic.value.DoubleValue
51.979

@<SCITEGIC>MOL_PROPERTY
W
SciTegic.value.DoubleValue
-51.589

@<SCITEGIC>MOL_PROPERTY
W(PB)
SciTegic.value.DoubleValue
-54.087

@<SCITEGIC>MOL_PROPERTY
W(SA)
SciTegic.value.DoubleValue
2.498

@<SCITEGIC>MOL_PROPERTY
Valence
SciTegic.value.DoubleValue
6.000

@<SCITEGIC>MOL_PROPERTY
Coulomb
SciTegic.value.DoubleValue
45.081

@<SCITEGIC>MOL_PROPERTY
VdW
SciTegic.value.DoubleValue
0.898

@<SCITEGIC>MOL_PROPERTY
VdW6
SciTegic.value.DoubleValue
-9.134

@<SCITEGIC>MOL_PROPERTY
VdW12
SciTegic.value.DoubleValue
10.032

@<SCITEGIC>MOL_PROPERTY
Bond
SciTegic.value.DoubleValue
0.258

@<SCITEGIC>MOL_PROPERTY
Angle
SciTegic.value.DoubleValue
1.316

@<SCITEGIC>MOL_PROPERTY
Pdih
SciTegic.value.DoubleValue
4.426

@<SCITEGIC>MOL_PROPERTY
Idih
SciTegic.value.DoubleValue
0.000

@<SCITEGIC>MOL_PROPERTY
Tether
SciTegic.value.DoubleValue
0.000

@<TRIPOS>MOLECULE
guest-3_vm2.mol2 : vm2 ligand conformer 287
          29          28           1
SMALL
USER_CHARGES
 
@<TRIPOS>ATOM
       1    C1      21.450101   18.642887   20.792367 C.3        1 MOL1        -0.2427
       2    H1      21.357663   17.552317   20.706649 H          1 MOL1         0.0958
       3    H2      21.829102   19.025264   19.835720 H          1 MOL1         0.0958
       4    H3      22.199332   18.863070   21.563969 H          1 MOL1         0.0958
       5    C2      20.091721   19.289061   21.137558 C.3        1 MOL1        -0.1412
       6    H4      19.373864   19.081276   20.331726 H          1 MOL1         0.0947
       7    H5      20.208844   20.380823   21.184429 H          1 MOL1         0.0947
       8    C3      19.535320   18.766672   22.480287 C.3        1 MOL1        -0.1437
       9    H6      19.418492   17.675598   22.425365 H          1 MOL1         0.0947
      10    H7      20.267594   18.965189   23.270353 H          1 MOL1         0.0947
      11    C4      18.172365   19.414075   22.827342 C.3        1 MOL1        -0.1437
      12    H8      17.474829   19.197808   22.006293 H          1 MOL1         0.0947
      13    H9      18.266483   20.508061   22.864135 H          1 MOL1         0.0947
      14    C5      17.546794   18.888183   24.145908 C.3        1 MOL1        -0.1437
      15    H10     16.455447   18.876953   24.018413 H          1 MOL1         0.0947
      16    H11     17.829013   17.840257   24.314189 H          1 MOL1         0.0947
      17    C6      17.851965   19.748347   25.401941 C.3        1 MOL1        -0.1437
      18    H12     17.276045   19.346902   26.247285 H          1 MOL1         0.0947
      19    H13     17.472878   20.766717   25.239476 H          1 MOL1         0.0947
      20    C7      19.340914   19.828742   25.814410 C.3        1 MOL1        -0.1477
      21    H14     19.918141   20.342606   25.036020 H          1 MOL1         0.0947
      22    H15     19.423885   20.450938   26.715389 H          1 MOL1         0.0947
      23    C8      19.951153   18.445011   26.105416 C.3        1 MOL1         0.0145
      24    H16     19.891881   17.819025   25.211463 H          1 MOL1         0.0921
      25    H17     19.388529   17.956157   26.905280 H          1 MOL1         0.0921
      26    N1      21.403667   18.515021   26.529771 N.4        1 MOL1        -0.5969
      27    H18     21.992837   18.943757   25.808604 H          1 MOL1         0.3603
      28    H19     21.790416   17.583693   26.718491 H          1 MOL1         0.3603
      29    H20     21.524029   19.066847   27.385601 H          1 MOL1         0.3603
@<TRIPOS>BOND
    1     1     2    1
    2     1     3    1
    3     1     4    1
    4     1     5    1
    5     5     6    1
    6     5     7    1
    7     5     8    1
    8     8     9    1
    9     8    10    1
   10     8    11    1
   11    11    12    1
   12    11    13    1
   13    11    14    1
   14    14    15    1
   15    14    16    1
   16    14    17    1
   17    17    18    1
   18    17    19    1
   19    17    20    1
   20    20    21    1
   21    20    22    1
   22    20    23    1
   23    23    24    1
   24    23    25    1
   25    23    26    1
   26    26    27    1
   27    26    28    1
   28    26    29    1
@<TRIPOS>SUBSTRUCTURE
       1 MOL1            1 RESIDUE      1      MOL     
@<SCITEGIC>MOL_PROPERTY
VM2 Rank
SciTegic.value.IntegerValue
287

@<SCITEGIC>MOL_PROPERTY
Conf_Id
SciTegic.value.IntegerValue
2966

@<SCITEGIC>MOL_PROPERTY
Probability
SciTegic.value.DoubleValue
0.01

@<SCITEGIC>MOL_PROPERTY
Sum Probability
SciTegic.value.DoubleValue
99.57

@<SCITEGIC>MOL_PROPERTY
Delta G
SciTegic.value.DoubleValue
4.050

@<SCITEGIC>MOL_PROPERTY
G
SciTegic.value.DoubleValue
62.197

@<SCITEGIC>MOL_PROPERTY
E
SciTegic.value.DoubleValue
24.263

@<SCITEGIC>MOL_PROPERTY
-TS
SciTegic.value.DoubleValue
37.933

@<SCITEGIC>MOL_PROPERTY
U+W
SciTegic.value.DoubleValue
0.119

@<SCITEGIC>MOL_PROPERTY
U
SciTegic.value.DoubleValue
52.874

@<SCITEGIC>MOL_PROPERTY
W
SciTegic.value.DoubleValue
-52.756

@<SCITEGIC>MOL_PROPERTY
W(PB)
SciTegic.value.DoubleValue
-55.191

@<SCITEGIC>MOL_PROPERTY
W(SA)
SciTegic.value.DoubleValue
2.436

@<SCITEGIC>MOL_PROPERTY
Valence
SciTegic.value.DoubleValue
5.909

@<SCITEGIC>MOL_PROPERTY
Coulomb
SciTegic.value.DoubleValue
46.598

@<SCITEGIC>MOL_PROPERTY
VdW
SciTegic.value.DoubleValue
0.368

@<SCITEGIC>MOL_PROPERTY
VdW6
SciTegic.value.DoubleValue
-9.909

@<SCITEGIC>MOL_PROPERTY
VdW12
SciTegic.value.DoubleValue
10.277

@<SCITEGIC>MOL_PROPERTY
Bond
SciTegic.value.DoubleValue
0.262

@<SCITEGIC>MOL_PROPERTY
Angle
SciTegic.value.DoubleValue
1.570

@<SCITEGIC>MOL_PROPERTY
Pdih
SciTegic.value.DoubleValue
4.076

@<SCITEGIC>MOL_PROPERTY
Idih
SciTegic.value.DoubleValue
0.000

@<SCITEGIC>MOL_PROPERTY
Tether
SciTegic.value.DoubleValue
0.000

@<TRIPOS>MOLECULE
guest-3_vm2.mol2 : vm2 ligand conformer 288
          29          28           1
SMALL
USER_CHARGES
 
@<TRIPOS>ATOM
       1    C1      20.437480   18.661479   19.794322 C.3        1 MOL1        -0.2427
       2    H1      20.831448   17.664758   20.031703 H          1 MOL1         0.0958
       3    H2      20.348191   18.735779   18.702793 H          1 MOL1         0.0958
       4    H3      21.173753   19.408392   20.115609 H          1 MOL1         0.0958
       5    C2      19.064156   18.890568   20.465420 C.3        1 MOL1        -0.1412
       6    H4      18.333817   18.202617   20.016985 H          1 MOL1         0.0947
       7    H5      18.707504   19.905718   20.241854 H          1 MOL1         0.0947
       8    C3      19.079734   18.666366   21.996917 C.3        1 MOL1        -0.1437
       9    H6      18.044353   18.717772   22.357531 H          1 MOL1         0.0947
      10    H7      19.434356   17.649670   22.214955 H          1 MOL1         0.0947
      11    C4      19.946076   19.698635   22.762452 C.3        1 MOL1        -0.1437
      12    H8      19.591535   20.715171   22.543504 H          1 MOL1         0.0947
      13    H9      20.980893   19.647849   22.400256 H          1 MOL1         0.0947
      14    C5      19.963527   19.473689   24.294420 C.3        1 MOL1        -0.1437
      15    H10     20.332847   18.460891   24.498099 H          1 MOL1         0.0947
      16    H11     20.685157   20.173000   24.738752 H          1 MOL1         0.0947
      17    C6      18.581034   19.678034   24.963000 C.3        1 MOL1        -0.1437
      18    H12     17.899745   18.869046   24.667848 H          1 MOL1         0.0947
      19    H13     18.137185   20.609041   24.584278 H          1 MOL1         0.0947
      20    C7      18.626504   19.759775   26.510218 C.3        1 MOL1        -0.1477
      21    H14     19.263280   20.594863   26.831149 H          1 MOL1         0.0947
      22    H15     17.614968   19.998724   26.864532 H          1 MOL1         0.0947
      23    C8      19.071866   18.456967   27.206188 C.3        1 MOL1         0.0145
      24    H16     18.615569   17.596402   26.709715 H          1 MOL1         0.0921
      25    H17     18.727511   18.471975   28.243811 H          1 MOL1         0.0921
      26    N1      20.573624   18.252487   27.242063 N.4        1 MOL1        -0.5969
      27    H18     21.047104   19.009313   27.746376 H          1 MOL1         0.3603
      28    H19     20.973990   18.219021   26.300276 H          1 MOL1         0.3603
      29    H20     20.826909   17.375899   27.711182 H          1 MOL1         0.3603
@<TRIPOS>BOND
    1     1     2    1
    2     1     3    1
    3     1     4    1
    4     1     5    1
    5     5     6    1
    6     5     7    1
    7     5     8    1
    8     8     9    1
    9     8    10    1
   10     8    11    1
   11    11    12    1
   12    11    13    1
   13    11    14    1
   14    14    15    1
   15    14    16    1
   16    14    17    1
   17    17    18    1
   18    17    19    1
   19    17    20    1
   20    20    21    1
   21    20    22    1
   22    20    23    1
   23    23    24    1
   24    23    25    1
   25    23    26    1
   26    26    27    1
   27    26    28    1
   28    26    29    1
@<TRIPOS>SUBSTRUCTURE
       1 MOL1            1 RESIDUE      1      MOL     
@<SCITEGIC>MOL_PROPERTY
VM2 Rank
SciTegic.value.IntegerValue
288

@<SCITEGIC>MOL_PROPERTY
Conf_Id
SciTegic.value.IntegerValue
1050

@<SCITEGIC>MOL_PROPERTY
Probability
SciTegic.value.DoubleValue
0.01

@<SCITEGIC>MOL_PROPERTY
Sum Probability
SciTegic.value.DoubleValue
99.58

@<SCITEGIC>MOL_PROPERTY
Delta G
SciTegic.value.DoubleValue
4.053

@<SCITEGIC>MOL_PROPERTY
G
SciTegic.value.DoubleValue
62.199

@<SCITEGIC>MOL_PROPERTY
E
SciTegic.value.DoubleValue
24.646

@<SCITEGIC>MOL_PROPERTY
-TS
SciTegic.value.DoubleValue
37.553

@<SCITEGIC>MOL_PROPERTY
U+W
SciTegic.value.DoubleValue
0.501

@<SCITEGIC>MOL_PROPERTY
U
SciTegic.value.DoubleValue
52.537

@<SCITEGIC>MOL_PROPERTY
W
SciTegic.value.DoubleValue
-52.036

@<SCITEGIC>MOL_PROPERTY
W(PB)
SciTegic.value.DoubleValue
-54.494

@<SCITEGIC>MOL_PROPERTY
W(SA)
SciTegic.value.DoubleValue
2.458

@<SCITEGIC>MOL_PROPERTY
Valence
SciTegic.value.DoubleValue
5.216

@<SCITEGIC>MOL_PROPERTY
Coulomb
SciTegic.value.DoubleValue
46.351

@<SCITEGIC>MOL_PROPERTY
VdW
SciTegic.value.DoubleValue
0.970

@<SCITEGIC>MOL_PROPERTY
VdW6
SciTegic.value.DoubleValue
-9.713

@<SCITEGIC>MOL_PROPERTY
VdW12
SciTegic.value.DoubleValue
10.683

@<SCITEGIC>MOL_PROPERTY
Bond
SciTegic.value.DoubleValue
0.284

@<SCITEGIC>MOL_PROPERTY
Angle
SciTegic.value.DoubleValue
1.429

@<SCITEGIC>MOL_PROPERTY
Pdih
SciTegic.value.DoubleValue
3.502

@<SCITEGIC>MOL_PROPERTY
Idih
SciTegic.value.DoubleValue
0.000

@<SCITEGIC>MOL_PROPERTY
Tether
SciTegic.value.DoubleValue
0.000

@<TRIPOS>MOLECULE
guest-3_vm2.mol2 : vm2 ligand conformer 289
          29          28           1
SMALL
USER_CHARGES
 
@<TRIPOS>ATOM
       1    C1      21.069692   18.151913   21.024015 C.3        1 MOL1        -0.2427
       2    H1      20.541903   17.257626   21.377407 H          1 MOL1         0.0958
       3    H2      21.610546   17.875588   20.109668 H          1 MOL1         0.0958
       4    H3      21.812627   18.434901   21.780943 H          1 MOL1         0.0958
       5    C2      20.092036   19.315442   20.742765 C.3        1 MOL1        -0.1412
       6    H4      19.341091   18.998872   20.005502 H          1 MOL1         0.0947
       7    H5      20.649713   20.140918   20.278731 H          1 MOL1         0.0947
       8    C3      19.388218   19.845615   22.014867 C.3        1 MOL1        -0.1437
       9    H6      20.146813   20.168721   22.737161 H          1 MOL1         0.0947
      10    H7      18.820224   20.746919   21.746362 H          1 MOL1         0.0947
      11    C4      18.420835   18.817147   22.655934 C.3        1 MOL1        -0.1437
      12    H8      18.952264   17.897113   22.931080 H          1 MOL1         0.0947
      13    H9      17.681704   18.525793   21.897037 H          1 MOL1         0.0947
      14    C5      17.663184   19.371173   23.890802 C.3        1 MOL1        -0.1437
      15    H10     17.527507   20.457699   23.800817 H          1 MOL1         0.0947
      16    H11     16.649905   18.946145   23.888965 H          1 MOL1         0.0947
      17    C6      18.310728   19.025321   25.256509 C.3        1 MOL1        -0.1437
      18    H12     18.335750   17.933845   25.375598 H          1 MOL1         0.0947
      19    H13     17.657792   19.406570   26.053916 H          1 MOL1         0.0947
      20    C7      19.732424   19.604774   25.452331 C.3        1 MOL1        -0.1477
      21    H14     20.435474   19.125111   24.759802 H          1 MOL1         0.0947
      22    H15     19.726125   20.676494   25.213665 H          1 MOL1         0.0947
      23    C8      20.249652   19.427876   26.892675 C.3        1 MOL1         0.0145
      24    H16     19.556926   19.901770   27.593333 H          1 MOL1         0.0921
      25    H17     21.222904   19.916183   26.991906 H          1 MOL1         0.0921
      26    N1      20.417230   17.978739   27.305101 N.4        1 MOL1        -0.5969
      27    H18     19.528919   17.469159   27.266436 H          1 MOL1         0.3603
      28    H19     20.771028   17.894419   28.264401 H          1 MOL1         0.3603
      29    H20     21.077899   17.484029   26.696895 H          1 MOL1         0.3603
@<TRIPOS>BOND
    1     1     2    1
    2     1     3    1
    3     1     4    1
    4     1     5    1
    5     5     6    1
    6     5     7    1
    7     5     8    1
    8     8     9    1
    9     8    10    1
   10     8    11    1
   11    11    12    1
   12    11    13    1
   13    11    14    1
   14    14    15    1
   15    14    16    1
   16    14    17    1
   17    17    18    1
   18    17    19    1
   19    17    20    1
   20    20    21    1
   21    20    22    1
   22    20    23    1
   23    23    24    1
   24    23    25    1
   25    23    26    1
   26    26    27    1
   27    26    28    1
   28    26    29    1
@<TRIPOS>SUBSTRUCTURE
       1 MOL1            1 RESIDUE      1      MOL     
@<SCITEGIC>MOL_PROPERTY
VM2 Rank
SciTegic.value.IntegerValue
289

@<SCITEGIC>MOL_PROPERTY
Conf_Id
SciTegic.value.IntegerValue
553

@<SCITEGIC>MOL_PROPERTY
Probability
SciTegic.value.DoubleValue
0.01

@<SCITEGIC>MOL_PROPERTY
Sum Probability
SciTegic.value.DoubleValue
99.58

@<SCITEGIC>MOL_PROPERTY
Delta G
SciTegic.value.DoubleValue
4.065

@<SCITEGIC>MOL_PROPERTY
G
SciTegic.value.DoubleValue
62.211

@<SCITEGIC>MOL_PROPERTY
E
SciTegic.value.DoubleValue
24.462

@<SCITEGIC>MOL_PROPERTY
-TS
SciTegic.value.DoubleValue
37.749

@<SCITEGIC>MOL_PROPERTY
U+W
SciTegic.value.DoubleValue
0.318

@<SCITEGIC>MOL_PROPERTY
U
SciTegic.value.DoubleValue
52.709

@<SCITEGIC>MOL_PROPERTY
W
SciTegic.value.DoubleValue
-52.392

@<SCITEGIC>MOL_PROPERTY
W(PB)
SciTegic.value.DoubleValue
-54.821

@<SCITEGIC>MOL_PROPERTY
W(SA)
SciTegic.value.DoubleValue
2.429

@<SCITEGIC>MOL_PROPERTY
Valence
SciTegic.value.DoubleValue
6.186

@<SCITEGIC>MOL_PROPERTY
Coulomb
SciTegic.value.DoubleValue
45.602

@<SCITEGIC>MOL_PROPERTY
VdW
SciTegic.value.DoubleValue
0.922

@<SCITEGIC>MOL_PROPERTY
VdW6
SciTegic.value.DoubleValue
-9.884

@<SCITEGIC>MOL_PROPERTY
VdW12
SciTegic.value.DoubleValue
10.805

@<SCITEGIC>MOL_PROPERTY
Bond
SciTegic.value.DoubleValue
0.292

@<SCITEGIC>MOL_PROPERTY
Angle
SciTegic.value.DoubleValue
1.416

@<SCITEGIC>MOL_PROPERTY
Pdih
SciTegic.value.DoubleValue
4.478

@<SCITEGIC>MOL_PROPERTY
Idih
SciTegic.value.DoubleValue
0.000

@<SCITEGIC>MOL_PROPERTY
Tether
SciTegic.value.DoubleValue
0.000

@<TRIPOS>MOLECULE
guest-3_vm2.mol2 : vm2 ligand conformer 290
          29          28           1
SMALL
USER_CHARGES
 
@<TRIPOS>ATOM
       1    C1      21.285278   19.371437   21.693078 C.3        1 MOL1        -0.2427
       2    H1      21.414147   20.441676   21.900033 H          1 MOL1         0.0958
       3    H2      21.230753   18.844138   22.651186 H          1 MOL1         0.0958
       4    H3      22.188196   19.021514   21.176244 H          1 MOL1         0.0958
       5    C2      20.034262   19.123299   20.818678 C.3        1 MOL1        -0.1412
       6    H4      19.930462   18.052015   20.597346 H          1 MOL1         0.0947
       7    H5      20.198700   19.616680   19.850497 H          1 MOL1         0.0947
       8    C3      18.721439   19.676519   21.431663 C.3        1 MOL1        -0.1437
       9    H6      18.922777   20.582164   22.018566 H          1 MOL1         0.0947
      10    H7      18.079547   20.007291   20.603504 H          1 MOL1         0.0947
      11    C4      17.902178   18.650963   22.261354 C.3        1 MOL1        -0.1437
      12    H8      17.635480   17.805058   21.612993 H          1 MOL1         0.0947
      13    H9      16.949175   19.116005   22.548799 H          1 MOL1         0.0947
      14    C5      18.587573   18.100438   23.536337 C.3        1 MOL1        -0.1437
      15    H10     17.916570   17.361405   23.995400 H          1 MOL1         0.0947
      16    H11     19.495457   17.548143   23.263816 H          1 MOL1         0.0947
      17    C6      18.913849   19.193481   24.582343 C.3        1 MOL1        -0.1437
      18    H12     17.994248   19.734128   24.845789 H          1 MOL1         0.0947
      19    H13     19.603757   19.932314   24.154923 H          1 MOL1         0.0947
      20    C7      19.543326   18.594701   25.859007 C.3        1 MOL1        -0.1477
      21    H14     18.854415   17.864411   26.304111 H          1 MOL1         0.0947
      22    H15     20.462979   18.053875   25.598613 H          1 MOL1         0.0947
      23    C8      19.867766   19.687850   26.892034 C.3        1 MOL1         0.0145
      24    H16     18.952062   20.218538   27.166456 H          1 MOL1         0.0921
      25    H17     20.566688   20.408346   26.458630 H          1 MOL1         0.0921
      26    N1      20.488329   19.139313   28.160506 N.4        1 MOL1        -0.5969
      27    H18     19.867354   18.473434   28.632212 H          1 MOL1         0.3603
      28    H19     20.696515   19.883553   28.835387 H          1 MOL1         0.3603
      29    H20     21.369936   18.650069   27.973733 H          1 MOL1         0.3603
@<TRIPOS>BOND
    1     1     2    1
    2     1     3    1
    3     1     4    1
    4     1     5    1
    5     5     6    1
    6     5     7    1
    7     5     8    1
    8     8     9    1
    9     8    10    1
   10     8    11    1
   11    11    12    1
   12    11    13    1
   13    11    14    1
   14    14    15    1
   15    14    16    1
   16    14    17    1
   17    17    18    1
   18    17    19    1
   19    17    20    1
   20    20    21    1
   21    20    22    1
   22    20    23    1
   23    23    24    1
   24    23    25    1
   25    23    26    1
   26    26    27    1
   27    26    28    1
   28    26    29    1
@<TRIPOS>SUBSTRUCTURE
       1 MOL1            1 RESIDUE      1      MOL     
@<SCITEGIC>MOL_PROPERTY
VM2 Rank
SciTegic.value.IntegerValue
290

@<SCITEGIC>MOL_PROPERTY
Conf_Id
SciTegic.value.IntegerValue
2277

@<SCITEGIC>MOL_PROPERTY
Probability
SciTegic.value.DoubleValue
0.01

@<SCITEGIC>MOL_PROPERTY
Sum Probability
SciTegic.value.DoubleValue
99.59

@<SCITEGIC>MOL_PROPERTY
Delta G
SciTegic.value.DoubleValue
4.078

@<SCITEGIC>MOL_PROPERTY
G
SciTegic.value.DoubleValue
62.224

@<SCITEGIC>MOL_PROPERTY
E
SciTegic.value.DoubleValue
24.203

@<SCITEGIC>MOL_PROPERTY
-TS
SciTegic.value.DoubleValue
38.021

@<SCITEGIC>MOL_PROPERTY
U+W
SciTegic.value.DoubleValue
0.059

@<SCITEGIC>MOL_PROPERTY
U
SciTegic.value.DoubleValue
51.871

@<SCITEGIC>MOL_PROPERTY
W
SciTegic.value.DoubleValue
-51.813

@<SCITEGIC>MOL_PROPERTY
W(PB)
SciTegic.value.DoubleValue
-54.239

@<SCITEGIC>MOL_PROPERTY
W(SA)
SciTegic.value.DoubleValue
2.426

@<SCITEGIC>MOL_PROPERTY
Valence
SciTegic.value.DoubleValue
6.159

@<SCITEGIC>MOL_PROPERTY
Coulomb
SciTegic.value.DoubleValue
45.192

@<SCITEGIC>MOL_PROPERTY
VdW
SciTegic.value.DoubleValue
0.520

@<SCITEGIC>MOL_PROPERTY
VdW6
SciTegic.value.DoubleValue
-9.792

@<SCITEGIC>MOL_PROPERTY
VdW12
SciTegic.value.DoubleValue
10.312

@<SCITEGIC>MOL_PROPERTY
Bond
SciTegic.value.DoubleValue
0.277

@<SCITEGIC>MOL_PROPERTY
Angle
SciTegic.value.DoubleValue
1.832

@<SCITEGIC>MOL_PROPERTY
Pdih
SciTegic.value.DoubleValue
4.050

@<SCITEGIC>MOL_PROPERTY
Idih
SciTegic.value.DoubleValue
0.000

@<SCITEGIC>MOL_PROPERTY
Tether
SciTegic.value.DoubleValue
0.000

@<TRIPOS>MOLECULE
guest-3_vm2.mol2 : vm2 ligand conformer 291
          29          28           1
SMALL
USER_CHARGES
 
@<TRIPOS>ATOM
       1    C1      19.530915   18.426558   19.828079 C.3        1 MOL1        -0.2427
       2    H1      19.469736   17.606054   19.101483 H          1 MOL1         0.0958
       3    H2      18.536639   18.885926   19.891159 H          1 MOL1         0.0958
       4    H3      20.231291   19.173730   19.432822 H          1 MOL1         0.0958
       5    C2      19.999773   17.897922   21.202533 C.3        1 MOL1        -0.1412
       6    H4      20.938130   17.342205   21.066888 H          1 MOL1         0.0947
       7    H5      19.267710   17.175469   21.589612 H          1 MOL1         0.0947
       8    C3      20.231617   19.016895   22.246239 C.3        1 MOL1        -0.1437
       9    H6      20.669025   18.565192   23.144304 H          1 MOL1         0.0947
      10    H7      20.983607   19.721174   21.864675 H          1 MOL1         0.0947
      11    C4      18.939915   19.790548   22.615844 C.3        1 MOL1        -0.1437
      12    H8      18.132540   19.090501   22.870683 H          1 MOL1         0.0947
      13    H9      18.597659   20.340432   21.729241 H          1 MOL1         0.0947
      14    C5      19.143574   20.810445   23.766363 C.3        1 MOL1        -0.1437
      15    H10     20.181911   21.169560   23.778420 H          1 MOL1         0.0947
      16    H11     18.527577   21.694955   23.552754 H          1 MOL1         0.0947
      17    C6      18.741481   20.290597   25.170812 C.3        1 MOL1        -0.1437
      18    H12     17.673021   20.033838   25.172334 H          1 MOL1         0.0947
      19    H13     18.858909   21.113115   25.890069 H          1 MOL1         0.0947
      20    C7      19.561435   19.075746   25.660852 C.3        1 MOL1        -0.1477
      21    H14     19.364369   18.208908   25.017580 H          1 MOL1         0.0947
      22    H15     20.634032   19.300724   25.592808 H          1 MOL1         0.0947
      23    C8      19.206925   18.709415   27.112570 C.3        1 MOL1         0.0145
      24    H16     18.142291   18.470453   27.182505 H          1 MOL1         0.0921
      25    H17     19.412687   19.560123   27.767847 H          1 MOL1         0.0921
      26    N1      19.988364   17.519873   27.631709 N.4        1 MOL1        -0.5969
      27    H18     20.999201   17.691557   27.617656 H          1 MOL1         0.3603
      28    H19     19.816890   16.677081   27.073394 H          1 MOL1         0.3603
      29    H20     19.737264   17.292975   28.600306 H          1 MOL1         0.3603
@<TRIPOS>BOND
    1     1     2    1
    2     1     3    1
    3     1     4    1
    4     1     5    1
    5     5     6    1
    6     5     7    1
    7     5     8    1
    8     8     9    1
    9     8    10    1
   10     8    11    1
   11    11    12    1
   12    11    13    1
   13    11    14    1
   14    14    15    1
   15    14    16    1
   16    14    17    1
   17    17    18    1
   18    17    19    1
   19    17    20    1
   20    20    21    1
   21    20    22    1
   22    20    23    1
   23    23    24    1
   24    23    25    1
   25    23    26    1
   26    26    27    1
   27    26    28    1
   28    26    29    1
@<TRIPOS>SUBSTRUCTURE
       1 MOL1            1 RESIDUE      1      MOL     
@<SCITEGIC>MOL_PROPERTY
VM2 Rank
SciTegic.value.IntegerValue
291

@<SCITEGIC>MOL_PROPERTY
Conf_Id
SciTegic.value.IntegerValue
1152

@<SCITEGIC>MOL_PROPERTY
Probability
SciTegic.value.DoubleValue
0.01

@<SCITEGIC>MOL_PROPERTY
Sum Probability
SciTegic.value.DoubleValue
99.59

@<SCITEGIC>MOL_PROPERTY
Delta G
SciTegic.value.DoubleValue
4.093

@<SCITEGIC>MOL_PROPERTY
G
SciTegic.value.DoubleValue
62.239

@<SCITEGIC>MOL_PROPERTY
E
SciTegic.value.DoubleValue
24.525

@<SCITEGIC>MOL_PROPERTY
-TS
SciTegic.value.DoubleValue
37.714

@<SCITEGIC>MOL_PROPERTY
U+W
SciTegic.value.DoubleValue
0.380

@<SCITEGIC>MOL_PROPERTY
U
SciTegic.value.DoubleValue
52.467

@<SCITEGIC>MOL_PROPERTY
W
SciTegic.value.DoubleValue
-52.087

@<SCITEGIC>MOL_PROPERTY
W(PB)
SciTegic.value.DoubleValue
-54.581

@<SCITEGIC>MOL_PROPERTY
W(SA)
SciTegic.value.DoubleValue
2.494

@<SCITEGIC>MOL_PROPERTY
Valence
SciTegic.value.DoubleValue
6.151

@<SCITEGIC>MOL_PROPERTY
Coulomb
SciTegic.value.DoubleValue
45.416

@<SCITEGIC>MOL_PROPERTY
VdW
SciTegic.value.DoubleValue
0.901

@<SCITEGIC>MOL_PROPERTY
VdW6
SciTegic.value.DoubleValue
-9.247

@<SCITEGIC>MOL_PROPERTY
VdW12
SciTegic.value.DoubleValue
10.148

@<SCITEGIC>MOL_PROPERTY
Bond
SciTegic.value.DoubleValue
0.270

@<SCITEGIC>MOL_PROPERTY
Angle
SciTegic.value.DoubleValue
1.360

@<SCITEGIC>MOL_PROPERTY
Pdih
SciTegic.value.DoubleValue
4.520

@<SCITEGIC>MOL_PROPERTY
Idih
SciTegic.value.DoubleValue
0.000

@<SCITEGIC>MOL_PROPERTY
Tether
SciTegic.value.DoubleValue
0.000

@<TRIPOS>MOLECULE
guest-3_vm2.mol2 : vm2 ligand conformer 292
          29          28           1
SMALL
USER_CHARGES
 
@<TRIPOS>ATOM
       1    C1      19.357218   20.200034   20.286601 C.3        1 MOL1        -0.2427
       2    H1      18.851641   20.674973   21.136509 H          1 MOL1         0.0958
       3    H2      20.420974   20.468953   20.317154 H          1 MOL1         0.0958
       4    H3      18.929147   20.626248   19.370113 H          1 MOL1         0.0958
       5    C2      19.169616   18.667414   20.307715 C.3        1 MOL1        -0.1412
       6    H4      19.554138   18.252318   19.365619 H          1 MOL1         0.0947
       7    H5      18.096329   18.432204   20.328210 H          1 MOL1         0.0947
       8    C3      19.879758   17.953746   21.486284 C.3        1 MOL1        -0.1437
       9    H6      19.718882   16.873728   21.363604 H          1 MOL1         0.0947
      10    H7      20.966430   18.100811   21.417978 H          1 MOL1         0.0947
      11    C4      19.368216   18.362244   22.892286 C.3        1 MOL1        -0.1437
      12    H8      19.381613   17.469813   23.531545 H          1 MOL1         0.0947
      13    H9      18.318346   18.680215   22.832521 H          1 MOL1         0.0947
      14    C5      20.230184   19.463167   23.562047 C.3        1 MOL1        -0.1437
      15    H10     21.244870   19.079307   23.735716 H          1 MOL1         0.0947
      16    H11     20.342591   20.314953   22.880919 H          1 MOL1         0.0947
      17    C6      19.639923   19.982898   24.895817 C.3        1 MOL1        -0.1437
      18    H12     18.634338   20.389236   24.719154 H          1 MOL1         0.0947
      19    H13     20.255187   20.823913   25.244812 H          1 MOL1         0.0947
      20    C7      19.580191   18.909370   26.007624 C.3        1 MOL1        -0.1477
      21    H14     18.902456   18.098022   25.713657 H          1 MOL1         0.0947
      22    H15     20.575262   18.466671   26.148106 H          1 MOL1         0.0947
      23    C8      19.094991   19.509126   27.338960 C.3        1 MOL1         0.0145
      24    H16     18.097323   19.936905   27.208151 H          1 MOL1         0.0921
      25    H17     19.773479   20.307173   27.652344 H          1 MOL1         0.0921
      26    N1      19.023903   18.490001   28.457666 N.4        1 MOL1        -0.5969
      27    H18     18.378905   17.724200   28.236294 H          1 MOL1         0.3603
      28    H19     18.698978   18.910202   29.335492 H          1 MOL1         0.3603
      29    H20     19.938987   18.068632   28.648941 H          1 MOL1         0.3603
@<TRIPOS>BOND
    1     1     2    1
    2     1     3    1
    3     1     4    1
    4     1     5    1
    5     5     6    1
    6     5     7    1
    7     5     8    1
    8     8     9    1
    9     8    10    1
   10     8    11    1
   11    11    12    1
   12    11    13    1
   13    11    14    1
   14    14    15    1
   15    14    16    1
   16    14    17    1
   17    17    18    1
   18    17    19    1
   19    17    20    1
   20    20    21    1
   21    20    22    1
   22    20    23    1
   23    23    24    1
   24    23    25    1
   25    23    26    1
   26    26    27    1
   27    26    28    1
   28    26    29    1
@<TRIPOS>SUBSTRUCTURE
       1 MOL1            1 RESIDUE      1      MOL     
@<SCITEGIC>MOL_PROPERTY
VM2 Rank
SciTegic.value.IntegerValue
292

@<SCITEGIC>MOL_PROPERTY
Conf_Id
SciTegic.value.IntegerValue
1902

@<SCITEGIC>MOL_PROPERTY
Probability
SciTegic.value.DoubleValue
0.01

@<SCITEGIC>MOL_PROPERTY
Sum Probability
SciTegic.value.DoubleValue
99.60

@<SCITEGIC>MOL_PROPERTY
Delta G
SciTegic.value.DoubleValue
4.094

@<SCITEGIC>MOL_PROPERTY
G
SciTegic.value.DoubleValue
62.240

@<SCITEGIC>MOL_PROPERTY
E
SciTegic.value.DoubleValue
24.559

@<SCITEGIC>MOL_PROPERTY
-TS
SciTegic.value.DoubleValue
37.681

@<SCITEGIC>MOL_PROPERTY
U+W
SciTegic.value.DoubleValue
0.414

@<SCITEGIC>MOL_PROPERTY
U
SciTegic.value.DoubleValue
51.971

@<SCITEGIC>MOL_PROPERTY
W
SciTegic.value.DoubleValue
-51.557

@<SCITEGIC>MOL_PROPERTY
W(PB)
SciTegic.value.DoubleValue
-54.039

@<SCITEGIC>MOL_PROPERTY
W(SA)
SciTegic.value.DoubleValue
2.482

@<SCITEGIC>MOL_PROPERTY
Valence
SciTegic.value.DoubleValue
6.137

@<SCITEGIC>MOL_PROPERTY
Coulomb
SciTegic.value.DoubleValue
44.874

@<SCITEGIC>MOL_PROPERTY
VdW
SciTegic.value.DoubleValue
0.960

@<SCITEGIC>MOL_PROPERTY
VdW6
SciTegic.value.DoubleValue
-9.150

@<SCITEGIC>MOL_PROPERTY
VdW12
SciTegic.value.DoubleValue
10.110

@<SCITEGIC>MOL_PROPERTY
Bond
SciTegic.value.DoubleValue
0.271

@<SCITEGIC>MOL_PROPERTY
Angle
SciTegic.value.DoubleValue
1.364

@<SCITEGIC>MOL_PROPERTY
Pdih
SciTegic.value.DoubleValue
4.502

@<SCITEGIC>MOL_PROPERTY
Idih
SciTegic.value.DoubleValue
0.000

@<SCITEGIC>MOL_PROPERTY
Tether
SciTegic.value.DoubleValue
0.000

@<TRIPOS>MOLECULE
guest-3_vm2.mol2 : vm2 ligand conformer 293
          29          28           1
SMALL
USER_CHARGES
 
@<TRIPOS>ATOM
       1    C1      20.532114   18.928242   19.800140 C.3        1 MOL1        -0.2427
       2    H1      21.463953   19.441239   20.071286 H          1 MOL1         0.0958
       3    H2      20.626064   17.872058   20.080948 H          1 MOL1         0.0958
       4    H3      20.431313   18.970620   18.707907 H          1 MOL1         0.0958
       5    C2      19.313766   19.592110   20.481151 C.3        1 MOL1        -0.1412
       6    H4      18.399034   19.040601   20.222669 H          1 MOL1         0.0947
       7    H5      19.188815   20.603908   20.070764 H          1 MOL1         0.0947
       8    C3      19.446085   19.695027   22.019950 C.3        1 MOL1        -0.1437
       9    H6      20.360131   20.249523   22.272974 H          1 MOL1         0.0947
      10    H7      18.606050   20.294923   22.392992 H          1 MOL1         0.0947
      11    C4      19.454903   18.318190   22.731580 C.3        1 MOL1        -0.1437
      12    H8      20.294301   17.718363   22.357106 H          1 MOL1         0.0947
      13    H9      18.541167   17.763664   22.477471 H          1 MOL1         0.0947
      14    C5      19.588846   18.420532   24.270873 C.3        1 MOL1        -0.1437
      15    H10     19.700579   17.405677   24.676831 H          1 MOL1         0.0947
      16    H11     20.511775   18.963641   24.509354 H          1 MOL1         0.0947
      17    C6      18.378463   19.108560   24.950313 C.3        1 MOL1        -0.1437
      18    H12     17.451869   18.682770   24.541255 H          1 MOL1         0.0947
      19    H13     18.365120   20.176958   24.697178 H          1 MOL1         0.0947
      20    C7      18.340289   18.955090   26.492270 C.3        1 MOL1        -0.1477
      21    H14     17.400017   19.394394   26.851074 H          1 MOL1         0.0947
      22    H15     18.302484   17.893549   26.770759 H          1 MOL1         0.0947
      23    C8      19.498146   19.655531   27.233064 C.3        1 MOL1         0.0145
      24    H16     19.207016   19.819930   28.274066 H          1 MOL1         0.0921
      25    H17     19.694370   20.629924   26.777735 H          1 MOL1         0.0921
      26    N1      20.791389   18.864717   27.255659 N.4        1 MOL1        -0.5969
      27    H18     20.673848   17.959508   27.722648 H          1 MOL1         0.3603
      28    H19     21.534446   19.365227   27.755647 H          1 MOL1         0.3603
      29    H20     21.136286   18.675510   26.310343 H          1 MOL1         0.3603
@<TRIPOS>BOND
    1     1     2    1
    2     1     3    1
    3     1     4    1
    4     1     5    1
    5     5     6    1
    6     5     7    1
    7     5     8    1
    8     8     9    1
    9     8    10    1
   10     8    11    1
   11    11    12    1
   12    11    13    1
   13    11    14    1
   14    14    15    1
   15    14    16    1
   16    14    17    1
   17    17    18    1
   18    17    19    1
   19    17    20    1
   20    20    21    1
   21    20    22    1
   22    20    23    1
   23    23    24    1
   24    23    25    1
   25    23    26    1
   26    26    27    1
   27    26    28    1
   28    26    29    1
@<TRIPOS>SUBSTRUCTURE
       1 MOL1            1 RESIDUE      1      MOL     
@<SCITEGIC>MOL_PROPERTY
VM2 Rank
SciTegic.value.IntegerValue
293

@<SCITEGIC>MOL_PROPERTY
Conf_Id
SciTegic.value.IntegerValue
948

@<SCITEGIC>MOL_PROPERTY
Probability
SciTegic.value.DoubleValue
0.01

@<SCITEGIC>MOL_PROPERTY
Sum Probability
SciTegic.value.DoubleValue
99.60

@<SCITEGIC>MOL_PROPERTY
Delta G
SciTegic.value.DoubleValue
4.096

@<SCITEGIC>MOL_PROPERTY
G
SciTegic.value.DoubleValue
62.242

@<SCITEGIC>MOL_PROPERTY
E
SciTegic.value.DoubleValue
24.689

@<SCITEGIC>MOL_PROPERTY
-TS
SciTegic.value.DoubleValue
37.553

@<SCITEGIC>MOL_PROPERTY
U+W
SciTegic.value.DoubleValue
0.545

@<SCITEGIC>MOL_PROPERTY
U
SciTegic.value.DoubleValue
52.537

@<SCITEGIC>MOL_PROPERTY
W
SciTegic.value.DoubleValue
-51.992

@<SCITEGIC>MOL_PROPERTY
W(PB)
SciTegic.value.DoubleValue
-54.469

@<SCITEGIC>MOL_PROPERTY
W(SA)
SciTegic.value.DoubleValue
2.477

@<SCITEGIC>MOL_PROPERTY
Valence
SciTegic.value.DoubleValue
5.216

@<SCITEGIC>MOL_PROPERTY
Coulomb
SciTegic.value.DoubleValue
46.351

@<SCITEGIC>MOL_PROPERTY
VdW
SciTegic.value.DoubleValue
0.970

@<SCITEGIC>MOL_PROPERTY
VdW6
SciTegic.value.DoubleValue
-9.713

@<SCITEGIC>MOL_PROPERTY
VdW12
SciTegic.value.DoubleValue
10.683

@<SCITEGIC>MOL_PROPERTY
Bond
SciTegic.value.DoubleValue
0.284

@<SCITEGIC>MOL_PROPERTY
Angle
SciTegic.value.DoubleValue
1.430

@<SCITEGIC>MOL_PROPERTY
Pdih
SciTegic.value.DoubleValue
3.502

@<SCITEGIC>MOL_PROPERTY
Idih
SciTegic.value.DoubleValue
0.000

@<SCITEGIC>MOL_PROPERTY
Tether
SciTegic.value.DoubleValue
0.000

@<TRIPOS>MOLECULE
guest-3_vm2.mol2 : vm2 ligand conformer 294
          29          28           1
SMALL
USER_CHARGES
 
@<TRIPOS>ATOM
       1    C1      20.714316   17.767742   21.657141 C.3        1 MOL1        -0.2427
       2    H1      20.991381   18.172204   22.636240 H          1 MOL1         0.0958
       3    H2      20.135272   16.849451   21.819305 H          1 MOL1         0.0958
       4    H3      21.642625   17.488998   21.142001 H          1 MOL1         0.0958
       5    C2      19.913825   18.784923   20.811124 C.3        1 MOL1        -0.1412
       6    H4      19.743338   18.337625   19.821833 H          1 MOL1         0.0947
       7    H5      20.513241   19.688681   20.634114 H          1 MOL1         0.0947
       8    C3      18.538127   19.161536   21.420160 C.3        1 MOL1        -0.1437
       9    H6      17.843330   19.343708   20.588685 H          1 MOL1         0.0947
      10    H7      18.113865   18.309914   21.967815 H          1 MOL1         0.0947
      11    C4      18.539196   20.440162   22.301327 C.3        1 MOL1        -0.1437
      12    H8      17.502707   20.670692   22.583544 H          1 MOL1         0.0947
      13    H9      18.875939   21.289249   21.690827 H          1 MOL1         0.0947
      14    C5      19.400237   20.382912   23.587314 C.3        1 MOL1        -0.1437
      15    H10     20.456635   20.247666   23.324101 H          1 MOL1         0.0947
      16    H11     19.340616   21.360791   24.084658 H          1 MOL1         0.0947
      17    C6      18.947807   19.289237   24.584564 C.3        1 MOL1        -0.1437
      18    H12     19.021609   18.298326   24.118534 H          1 MOL1         0.0947
      19    H13     17.889856   19.441360   24.839448 H          1 MOL1         0.0947
      20    C7      19.796098   19.304449   25.874841 C.3        1 MOL1        -0.1477
      21    H14     20.854145   19.152189   25.623018 H          1 MOL1         0.0947
      22    H15     19.717532   20.287451   26.358140 H          1 MOL1         0.0947
      23    C8      19.342236   18.212469   26.859204 C.3        1 MOL1         0.0145
      24    H16     19.434408   17.230272   26.387783 H          1 MOL1         0.0921
      25    H17     18.293512   18.369629   27.125529 H          1 MOL1         0.0921
      26    N1      20.152159   18.194570   28.139325 N.4        1 MOL1        -0.5969
      27    H18     19.833656   17.460337   28.781320 H          1 MOL1         0.3603
      28    H19     20.085417   19.083748   28.645704 H          1 MOL1         0.3603
      29    H20     21.147034   18.023310   27.959415 H          1 MOL1         0.3603
@<TRIPOS>BOND
    1     1     2    1
    2     1     3    1
    3     1     4    1
    4     1     5    1
    5     5     6    1
    6     5     7    1
    7     5     8    1
    8     8     9    1
    9     8    10    1
   10     8    11    1
   11    11    12    1
   12    11    13    1
   13    11    14    1
   14    14    15    1
   15    14    16    1
   16    14    17    1
   17    17    18    1
   18    17    19    1
   19    17    20    1
   20    20    21    1
   21    20    22    1
   22    20    23    1
   23    23    24    1
   24    23    25    1
   25    23    26    1
   26    26    27    1
   27    26    28    1
   28    26    29    1
@<TRIPOS>SUBSTRUCTURE
       1 MOL1            1 RESIDUE      1      MOL     
@<SCITEGIC>MOL_PROPERTY
VM2 Rank
SciTegic.value.IntegerValue
294

@<SCITEGIC>MOL_PROPERTY
Conf_Id
SciTegic.value.IntegerValue
1637

@<SCITEGIC>MOL_PROPERTY
Probability
SciTegic.value.DoubleValue
0.01

@<SCITEGIC>MOL_PROPERTY
Sum Probability
SciTegic.value.DoubleValue
99.61

@<SCITEGIC>MOL_PROPERTY
Delta G
SciTegic.value.DoubleValue
4.104

@<SCITEGIC>MOL_PROPERTY
G
SciTegic.value.DoubleValue
62.251

@<SCITEGIC>MOL_PROPERTY
E
SciTegic.value.DoubleValue
24.230

@<SCITEGIC>MOL_PROPERTY
-TS
SciTegic.value.DoubleValue
38.020

@<SCITEGIC>MOL_PROPERTY
U+W
SciTegic.value.DoubleValue
0.086

@<SCITEGIC>MOL_PROPERTY
U
SciTegic.value.DoubleValue
51.871

@<SCITEGIC>MOL_PROPERTY
W
SciTegic.value.DoubleValue
-51.786

@<SCITEGIC>MOL_PROPERTY
W(PB)
SciTegic.value.DoubleValue
-54.225

@<SCITEGIC>MOL_PROPERTY
W(SA)
SciTegic.value.DoubleValue
2.439

@<SCITEGIC>MOL_PROPERTY
Valence
SciTegic.value.DoubleValue
6.159

@<SCITEGIC>MOL_PROPERTY
Coulomb
SciTegic.value.DoubleValue
45.192

@<SCITEGIC>MOL_PROPERTY
VdW
SciTegic.value.DoubleValue
0.520

@<SCITEGIC>MOL_PROPERTY
VdW6
SciTegic.value.DoubleValue
-9.791

@<SCITEGIC>MOL_PROPERTY
VdW12
SciTegic.value.DoubleValue
10.311

@<SCITEGIC>MOL_PROPERTY
Bond
SciTegic.value.DoubleValue
0.277

@<SCITEGIC>MOL_PROPERTY
Angle
SciTegic.value.DoubleValue
1.831

@<SCITEGIC>MOL_PROPERTY
Pdih
SciTegic.value.DoubleValue
4.051

@<SCITEGIC>MOL_PROPERTY
Idih
SciTegic.value.DoubleValue
0.000

@<SCITEGIC>MOL_PROPERTY
Tether
SciTegic.value.DoubleValue
0.000

@<TRIPOS>MOLECULE
guest-3_vm2.mol2 : vm2 ligand conformer 295
          29          28           1
SMALL
USER_CHARGES
 
@<TRIPOS>ATOM
       1    C1      18.293194   17.962338   21.181254 C.3        1 MOL1        -0.2427
       2    H1      17.760661   18.467765   21.995723 H          1 MOL1         0.0958
       3    H2      17.935797   18.378603   20.230521 H          1 MOL1         0.0958
       4    H3      18.013191   16.901407   21.209370 H          1 MOL1         0.0958
       5    C2      19.825044   18.121922   21.312967 C.3        1 MOL1        -0.1412
       6    H4      20.306655   17.535855   20.517884 H          1 MOL1         0.0947
       7    H5      20.174874   17.684115   22.256376 H          1 MOL1         0.0947
       8    C3      20.300640   19.590484   21.195050 C.3        1 MOL1        -0.1437
       9    H6      21.399054   19.607967   21.210299 H          1 MOL1         0.0947
      10    H7      20.011725   19.972606   20.206301 H          1 MOL1         0.0947
      11    C4      19.768723   20.569252   22.276626 C.3        1 MOL1        -0.1437
      12    H8      18.673672   20.637053   22.235744 H          1 MOL1         0.0947
      13    H9      20.130008   21.572084   22.010063 H          1 MOL1         0.0947
      14    C5      20.243752   20.264900   23.721846 C.3        1 MOL1        -0.1437
      15    H10     21.228544   19.778343   23.700512 H          1 MOL1         0.0947
      16    H11     20.389635   21.220806   24.243769 H          1 MOL1         0.0947
      17    C6      19.241721   19.418147   24.543824 C.3        1 MOL1        -0.1437
      18    H12     19.071582   18.449177   24.061037 H          1 MOL1         0.0947
      19    H13     18.269769   19.929778   24.574491 H          1 MOL1         0.0947
      20    C7      19.740505   19.181355   25.986120 C.3        1 MOL1        -0.1477
      21    H14     20.711003   18.667913   25.961730 H          1 MOL1         0.0947
      22    H15     19.898268   20.146028   26.486702 H          1 MOL1         0.0947
      23    C8      18.737992   18.342047   26.797365 C.3        1 MOL1         0.0145
      24    H16     18.590604   17.373556   26.311813 H          1 MOL1         0.0921
      25    H17     17.774420   18.857150   26.837978 H          1 MOL1         0.0921
      26    N1      19.192430   18.087556   28.219948 N.4        1 MOL1        -0.5969
      27    H18     20.083165   17.580497   28.251361 H          1 MOL1         0.3603
      28    H19     18.510679   17.527013   28.743127 H          1 MOL1         0.3603
      29    H20     19.323592   18.961042   28.740853 H          1 MOL1         0.3603
@<TRIPOS>BOND
    1     1     2    1
    2     1     3    1
    3     1     4    1
    4     1     5    1
    5     5     6    1
    6     5     7    1
    7     5     8    1
    8     8     9    1
    9     8    10    1
   10     8    11    1
   11    11    12    1
   12    11    13    1
   13    11    14    1
   14    14    15    1
   15    14    16    1
   16    14    17    1
   17    17    18    1
   18    17    19    1
   19    17    20    1
   20    20    21    1
   21    20    22    1
   22    20    23    1
   23    23    24    1
   24    23    25    1
   25    23    26    1
   26    26    27    1
   27    26    28    1
   28    26    29    1
@<TRIPOS>SUBSTRUCTURE
       1 MOL1            1 RESIDUE      1      MOL     
@<SCITEGIC>MOL_PROPERTY
VM2 Rank
SciTegic.value.IntegerValue
295

@<SCITEGIC>MOL_PROPERTY
Conf_Id
SciTegic.value.IntegerValue
1991

@<SCITEGIC>MOL_PROPERTY
Probability
SciTegic.value.DoubleValue
0.01

@<SCITEGIC>MOL_PROPERTY
Sum Probability
SciTegic.value.DoubleValue
99.61

@<SCITEGIC>MOL_PROPERTY
Delta G
SciTegic.value.DoubleValue
4.115

@<SCITEGIC>MOL_PROPERTY
G
SciTegic.value.DoubleValue
62.261

@<SCITEGIC>MOL_PROPERTY
E
SciTegic.value.DoubleValue
24.260

@<SCITEGIC>MOL_PROPERTY
-TS
SciTegic.value.DoubleValue
38.001

@<SCITEGIC>MOL_PROPERTY
U+W
SciTegic.value.DoubleValue
0.115

@<SCITEGIC>MOL_PROPERTY
U
SciTegic.value.DoubleValue
51.870

@<SCITEGIC>MOL_PROPERTY
W
SciTegic.value.DoubleValue
-51.755

@<SCITEGIC>MOL_PROPERTY
W(PB)
SciTegic.value.DoubleValue
-54.197

@<SCITEGIC>MOL_PROPERTY
W(SA)
SciTegic.value.DoubleValue
2.442

@<SCITEGIC>MOL_PROPERTY
Valence
SciTegic.value.DoubleValue
6.196

@<SCITEGIC>MOL_PROPERTY
Coulomb
SciTegic.value.DoubleValue
45.072

@<SCITEGIC>MOL_PROPERTY
VdW
SciTegic.value.DoubleValue
0.602

@<SCITEGIC>MOL_PROPERTY
VdW6
SciTegic.value.DoubleValue
-9.621

@<SCITEGIC>MOL_PROPERTY
VdW12
SciTegic.value.DoubleValue
10.223

@<SCITEGIC>MOL_PROPERTY
Bond
SciTegic.value.DoubleValue
0.275

@<SCITEGIC>MOL_PROPERTY
Angle
SciTegic.value.DoubleValue
1.754

@<SCITEGIC>MOL_PROPERTY
Pdih
SciTegic.value.DoubleValue
4.167

@<SCITEGIC>MOL_PROPERTY
Idih
SciTegic.value.DoubleValue
0.000

@<SCITEGIC>MOL_PROPERTY
Tether
SciTegic.value.DoubleValue
0.000

@<TRIPOS>MOLECULE
guest-3_vm2.mol2 : vm2 ligand conformer 296
          29          28           1
SMALL
USER_CHARGES
 
@<TRIPOS>ATOM
       1    C1      18.699609   19.083346   19.813793 C.3        1 MOL1        -0.2427
       2    H1      18.034860   18.337512   20.267051 H          1 MOL1         0.0958
       3    H2      18.271752   20.078650   19.990784 H          1 MOL1         0.0958
       4    H3      18.703686   18.907194   18.730342 H          1 MOL1         0.0958
       5    C2      20.132990   18.985645   20.383213 C.3        1 MOL1        -0.1412
       6    H4      20.785558   19.667795   19.820571 H          1 MOL1         0.0947
       7    H5      20.528718   17.974088   20.216312 H          1 MOL1         0.0947
       8    C3      20.220548   19.340905   21.886978 C.3        1 MOL1        -0.1437
       9    H6      21.278329   19.344089   22.183833 H          1 MOL1         0.0947
      10    H7      19.852863   20.364643   22.033647 H          1 MOL1         0.0947
      11    C4      19.441463   18.356035   22.795369 C.3        1 MOL1        -0.1437
      12    H8      19.730452   17.328680   22.534349 H          1 MOL1         0.0947
      13    H9      18.363762   18.433660   22.599828 H          1 MOL1         0.0947
      14    C5      19.702058   18.567643   24.307218 C.3        1 MOL1        -0.1437
      15    H10     19.231691   17.734703   24.843384 H          1 MOL1         0.0947
      16    H11     20.780852   18.506670   24.506303 H          1 MOL1         0.0947
      17    C6      19.139043   19.905351   24.849554 C.3        1 MOL1        -0.1437
      18    H12     18.048690   19.924124   24.715459 H          1 MOL1         0.0947
      19    H13     19.535236   20.737703   24.254492 H          1 MOL1         0.0947
      20    C7      19.480070   20.187790   26.335183 C.3        1 MOL1        -0.1477
      21    H14     20.568180   20.236042   26.475065 H          1 MOL1         0.0947
      22    H15     19.100252   21.188072   26.582227 H          1 MOL1         0.0947
      23    C8      18.861560   19.191092   27.337195 C.3        1 MOL1         0.0145
      24    H16     17.851931   18.920244   27.016930 H          1 MOL1         0.0921
      25    H17     18.789529   19.670422   28.317259 H          1 MOL1         0.0921
      26    N1      19.666660   17.920194   27.526497 N.4        1 MOL1        -0.5969
      27    H18     19.220840   17.283957   28.196645 H          1 MOL1         0.3603
      28    H19     20.607805   18.117461   27.882401 H          1 MOL1         0.3603
      29    H20     19.777276   17.405923   26.648038 H          1 MOL1         0.3603
@<TRIPOS>BOND
    1     1     2    1
    2     1     3    1
    3     1     4    1
    4     1     5    1
    5     5     6    1
    6     5     7    1
    7     5     8    1
    8     8     9    1
    9     8    10    1
   10     8    11    1
   11    11    12    1
   12    11    13    1
   13    11    14    1
   14    14    15    1
   15    14    16    1
   16    14    17    1
   17    17    18    1
   18    17    19    1
   19    17    20    1
   20    20    21    1
   21    20    22    1
   22    20    23    1
   23    23    24    1
   24    23    25    1
   25    23    26    1
   26    26    27    1
   27    26    28    1
   28    26    29    1
@<TRIPOS>SUBSTRUCTURE
       1 MOL1            1 RESIDUE      1      MOL     
@<SCITEGIC>MOL_PROPERTY
VM2 Rank
SciTegic.value.IntegerValue
296

@<SCITEGIC>MOL_PROPERTY
Conf_Id
SciTegic.value.IntegerValue
1040

@<SCITEGIC>MOL_PROPERTY
Probability
SciTegic.value.DoubleValue
0.01

@<SCITEGIC>MOL_PROPERTY
Sum Probability
SciTegic.value.DoubleValue
99.62

@<SCITEGIC>MOL_PROPERTY
Delta G
SciTegic.value.DoubleValue
4.116

@<SCITEGIC>MOL_PROPERTY
G
SciTegic.value.DoubleValue
62.262

@<SCITEGIC>MOL_PROPERTY
E
SciTegic.value.DoubleValue
24.772

@<SCITEGIC>MOL_PROPERTY
-TS
SciTegic.value.DoubleValue
37.491

@<SCITEGIC>MOL_PROPERTY
U+W
SciTegic.value.DoubleValue
0.627

@<SCITEGIC>MOL_PROPERTY
U
SciTegic.value.DoubleValue
52.530

@<SCITEGIC>MOL_PROPERTY
W
SciTegic.value.DoubleValue
-51.903

@<SCITEGIC>MOL_PROPERTY
W(PB)
SciTegic.value.DoubleValue
-54.375

@<SCITEGIC>MOL_PROPERTY
W(SA)
SciTegic.value.DoubleValue
2.472

@<SCITEGIC>MOL_PROPERTY
Valence
SciTegic.value.DoubleValue
5.331

@<SCITEGIC>MOL_PROPERTY
Coulomb
SciTegic.value.DoubleValue
46.214

@<SCITEGIC>MOL_PROPERTY
VdW
SciTegic.value.DoubleValue
0.984

@<SCITEGIC>MOL_PROPERTY
VdW6
SciTegic.value.DoubleValue
-9.653

@<SCITEGIC>MOL_PROPERTY
VdW12
SciTegic.value.DoubleValue
10.637

@<SCITEGIC>MOL_PROPERTY
Bond
SciTegic.value.DoubleValue
0.286

@<SCITEGIC>MOL_PROPERTY
Angle
SciTegic.value.DoubleValue
1.481

@<SCITEGIC>MOL_PROPERTY
Pdih
SciTegic.value.DoubleValue
3.564

@<SCITEGIC>MOL_PROPERTY
Idih
SciTegic.value.DoubleValue
0.000

@<SCITEGIC>MOL_PROPERTY
Tether
SciTegic.value.DoubleValue
0.000

@<TRIPOS>MOLECULE
guest-3_vm2.mol2 : vm2 ligand conformer 297
          29          28           1
SMALL
USER_CHARGES
 
@<TRIPOS>ATOM
       1    C1      19.977621   19.681699   19.856181 C.3        1 MOL1        -0.2427
       2    H1      20.054057   18.676527   19.421661 H          1 MOL1         0.0958
       3    H2      18.915898   19.951617   19.915111 H          1 MOL1         0.0958
       4    H3      20.458720   20.384465   19.163667 H          1 MOL1         0.0958
       5    C2      20.655635   19.740181   21.243727 C.3        1 MOL1        -0.1412
       6    H4      20.539121   20.746554   21.669546 H          1 MOL1         0.0947
       7    H5      21.735901   19.583082   21.116921 H          1 MOL1         0.0947
       8    C3      20.113830   18.685933   22.238804 C.3        1 MOL1        -0.1437
       9    H6      20.257222   17.680813   21.818968 H          1 MOL1         0.0947
      10    H7      20.725541   18.723695   23.147798 H          1 MOL1         0.0947
      11    C4      18.618722   18.888192   22.595707 C.3        1 MOL1        -0.1437
      12    H8      18.018564   18.713805   21.692947 H          1 MOL1         0.0947
      13    H9      18.431516   19.930069   22.889492 H          1 MOL1         0.0947
      14    C5      18.116199   17.924284   23.701919 C.3        1 MOL1        -0.1437
      15    H10     17.083069   17.636913   23.462128 H          1 MOL1         0.0947
      16    H11     18.694127   16.989955   23.685114 H          1 MOL1         0.0947
      17    C6      18.113018   18.525126   25.131387 C.3        1 MOL1        -0.1437
      18    H12     17.674453   17.785580   25.815776 H          1 MOL1         0.0947
      19    H13     17.446879   19.398669   25.158152 H          1 MOL1         0.0947
      20    C7      19.508999   18.928545   25.657527 C.3        1 MOL1        -0.1477
      21    H14     20.199338   18.079623   25.565490 H          1 MOL1         0.0947
      22    H15     19.912759   19.749688   25.051930 H          1 MOL1         0.0947
      23    C8      19.445115   19.378576   27.127479 C.3        1 MOL1         0.0145
      24    H16     19.058062   18.563964   27.745563 H          1 MOL1         0.0921
      25    H17     18.769799   20.233259   27.221853 H          1 MOL1         0.0921
      26    N1      20.794861   19.785465   27.682271 N.4        1 MOL1        -0.5969
      27    H18     21.470189   19.014647   27.647127 H          1 MOL1         0.3603
      28    H19     20.729876   20.081313   28.662559 H          1 MOL1         0.3603
      29    H20     21.202121   20.568475   27.160299 H          1 MOL1         0.3603
@<TRIPOS>BOND
    1     1     2    1
    2     1     3    1
    3     1     4    1
    4     1     5    1
    5     5     6    1
    6     5     7    1
    7     5     8    1
    8     8     9    1
    9     8    10    1
   10     8    11    1
   11    11    12    1
   12    11    13    1
   13    11    14    1
   14    14    15    1
   15    14    16    1
   16    14    17    1
   17    17    18    1
   18    17    19    1
   19    17    20    1
   20    20    21    1
   21    20    22    1
   22    20    23    1
   23    23    24    1
   24    23    25    1
   25    23    26    1
   26    26    27    1
   27    26    28    1
   28    26    29    1
@<TRIPOS>SUBSTRUCTURE
       1 MOL1            1 RESIDUE      1      MOL     
@<SCITEGIC>MOL_PROPERTY
VM2 Rank
SciTegic.value.IntegerValue
297

@<SCITEGIC>MOL_PROPERTY
Conf_Id
SciTegic.value.IntegerValue
2087

@<SCITEGIC>MOL_PROPERTY
Probability
SciTegic.value.DoubleValue
0.01

@<SCITEGIC>MOL_PROPERTY
Sum Probability
SciTegic.value.DoubleValue
99.63

@<SCITEGIC>MOL_PROPERTY
Delta G
SciTegic.value.DoubleValue
4.128

@<SCITEGIC>MOL_PROPERTY
G
SciTegic.value.DoubleValue
62.274

@<SCITEGIC>MOL_PROPERTY
E
SciTegic.value.DoubleValue
24.559

@<SCITEGIC>MOL_PROPERTY
-TS
SciTegic.value.DoubleValue
37.714

@<SCITEGIC>MOL_PROPERTY
U+W
SciTegic.value.DoubleValue
0.415

@<SCITEGIC>MOL_PROPERTY
U
SciTegic.value.DoubleValue
52.467

@<SCITEGIC>MOL_PROPERTY
W
SciTegic.value.DoubleValue
-52.052

@<SCITEGIC>MOL_PROPERTY
W(PB)
SciTegic.value.DoubleValue
-54.538

@<SCITEGIC>MOL_PROPERTY
W(SA)
SciTegic.value.DoubleValue
2.486

@<SCITEGIC>MOL_PROPERTY
Valence
SciTegic.value.DoubleValue
6.151

@<SCITEGIC>MOL_PROPERTY
Coulomb
SciTegic.value.DoubleValue
45.416

@<SCITEGIC>MOL_PROPERTY
VdW
SciTegic.value.DoubleValue
0.901

@<SCITEGIC>MOL_PROPERTY
VdW6
SciTegic.value.DoubleValue
-9.247

@<SCITEGIC>MOL_PROPERTY
VdW12
SciTegic.value.DoubleValue
10.148

@<SCITEGIC>MOL_PROPERTY
Bond
SciTegic.value.DoubleValue
0.270

@<SCITEGIC>MOL_PROPERTY
Angle
SciTegic.value.DoubleValue
1.359

@<SCITEGIC>MOL_PROPERTY
Pdih
SciTegic.value.DoubleValue
4.521

@<SCITEGIC>MOL_PROPERTY
Idih
SciTegic.value.DoubleValue
0.000

@<SCITEGIC>MOL_PROPERTY
Tether
SciTegic.value.DoubleValue
0.000

@<TRIPOS>MOLECULE
guest-3_vm2.mol2 : vm2 ligand conformer 298
          29          28           1
SMALL
USER_CHARGES
 
@<TRIPOS>ATOM
       1    C1      20.384472   19.225806   19.865056 C.3        1 MOL1        -0.2427
       2    H1      21.275392   18.623001   20.083896 H          1 MOL1         0.0958
       3    H2      19.557777   18.544953   19.628357 H          1 MOL1         0.0958
       4    H3      20.592365   19.816410   18.963449 H          1 MOL1         0.0958
       5    C2      20.036942   20.154638   21.050635 C.3        1 MOL1        -0.1412
       6    H4      19.123438   20.721381   20.822537 H          1 MOL1         0.0947
       7    H5      20.839381   20.897250   21.161908 H          1 MOL1         0.0947
       8    C3      19.867450   19.405197   22.394391 C.3        1 MOL1        -0.1437
       9    H6      20.777323   18.828997   22.611086 H          1 MOL1         0.0947
      10    H7      19.772242   20.157220   23.187883 H          1 MOL1         0.0947
      11    C4      18.632290   18.471541   22.429413 C.3        1 MOL1        -0.1437
      12    H8      18.685470   17.761456   21.594513 H          1 MOL1         0.0947
      13    H9      17.722142   19.065507   22.268784 H          1 MOL1         0.0947
      14    C5      18.487493   17.652128   23.737952 C.3        1 MOL1        -0.1437
      15    H10     17.606923   17.004467   23.625853 H          1 MOL1         0.0947
      16    H11     19.341917   16.970868   23.852184 H          1 MOL1         0.0947
      17    C6      18.300759   18.502684   25.021393 C.3        1 MOL1        -0.1437
      18    H12     17.590114   17.986172   25.681652 H          1 MOL1         0.0947
      19    H13     17.836283   19.466838   24.772139 H          1 MOL1         0.0947
      20    C7      19.614811   18.722828   25.808543 C.3        1 MOL1        -0.1477
      21    H14     20.027431   17.751146   26.111083 H          1 MOL1         0.0947
      22    H15     20.369183   19.203271   25.175169 H          1 MOL1         0.0947
      23    C8      19.379411   19.586241   27.060101 C.3        1 MOL1         0.0145
      24    H16     18.646742   19.100356   27.710144 H          1 MOL1         0.0921
      25    H17     18.984340   20.562117   26.765105 H          1 MOL1         0.0921
      26    N1      20.640372   19.816936   27.867514 N.4        1 MOL1        -0.5969
      27    H18     21.362215   20.297170   27.320036 H          1 MOL1         0.3603
      28    H19     21.048027   18.936238   28.198727 H          1 MOL1         0.3603
      29    H20     20.461082   20.393684   28.696931 H          1 MOL1         0.3603
@<TRIPOS>BOND
    1     1     2    1
    2     1     3    1
    3     1     4    1
    4     1     5    1
    5     5     6    1
    6     5     7    1
    7     5     8    1
    8     8     9    1
    9     8    10    1
   10     8    11    1
   11    11    12    1
   12    11    13    1
   13    11    14    1
   14    14    15    1
   15    14    16    1
   16    14    17    1
   17    17    18    1
   18    17    19    1
   19    17    20    1
   20    20    21    1
   21    20    22    1
   22    20    23    1
   23    23    24    1
   24    23    25    1
   25    23    26    1
   26    26    27    1
   27    26    28    1
   28    26    29    1
@<TRIPOS>SUBSTRUCTURE
       1 MOL1            1 RESIDUE      1      MOL     
@<SCITEGIC>MOL_PROPERTY
VM2 Rank
SciTegic.value.IntegerValue
298

@<SCITEGIC>MOL_PROPERTY
Conf_Id
SciTegic.value.IntegerValue
192

@<SCITEGIC>MOL_PROPERTY
Probability
SciTegic.value.DoubleValue
0.01

@<SCITEGIC>MOL_PROPERTY
Sum Probability
SciTegic.value.DoubleValue
99.63

@<SCITEGIC>MOL_PROPERTY
Delta G
SciTegic.value.DoubleValue
4.135

@<SCITEGIC>MOL_PROPERTY
G
SciTegic.value.DoubleValue
62.281

@<SCITEGIC>MOL_PROPERTY
E
SciTegic.value.DoubleValue
24.649

@<SCITEGIC>MOL_PROPERTY
-TS
SciTegic.value.DoubleValue
37.632

@<SCITEGIC>MOL_PROPERTY
U+W
SciTegic.value.DoubleValue
0.504

@<SCITEGIC>MOL_PROPERTY
U
SciTegic.value.DoubleValue
52.577

@<SCITEGIC>MOL_PROPERTY
W
SciTegic.value.DoubleValue
-52.073

@<SCITEGIC>MOL_PROPERTY
W(PB)
SciTegic.value.DoubleValue
-54.551

@<SCITEGIC>MOL_PROPERTY
W(SA)
SciTegic.value.DoubleValue
2.478

@<SCITEGIC>MOL_PROPERTY
Valence
SciTegic.value.DoubleValue
6.244

@<SCITEGIC>MOL_PROPERTY
Coulomb
SciTegic.value.DoubleValue
45.374

@<SCITEGIC>MOL_PROPERTY
VdW
SciTegic.value.DoubleValue
0.959

@<SCITEGIC>MOL_PROPERTY
VdW6
SciTegic.value.DoubleValue
-9.152

@<SCITEGIC>MOL_PROPERTY
VdW12
SciTegic.value.DoubleValue
10.112

@<SCITEGIC>MOL_PROPERTY
Bond
SciTegic.value.DoubleValue
0.274

@<SCITEGIC>MOL_PROPERTY
Angle
SciTegic.value.DoubleValue
1.455

@<SCITEGIC>MOL_PROPERTY
Pdih
SciTegic.value.DoubleValue
4.515

@<SCITEGIC>MOL_PROPERTY
Idih
SciTegic.value.DoubleValue
0.000

@<SCITEGIC>MOL_PROPERTY
Tether
SciTegic.value.DoubleValue
0.000

@<TRIPOS>MOLECULE
guest-3_vm2.mol2 : vm2 ligand conformer 299
          29          28           1
SMALL
USER_CHARGES
 
@<TRIPOS>ATOM
       1    C1      21.027723   19.195813   20.440667 C.3        1 MOL1        -0.2427
       2    H1      21.849872   19.568082   21.065717 H          1 MOL1         0.0958
       3    H2      21.280664   18.179200   20.112468 H          1 MOL1         0.0958
       4    H3      20.967357   19.832564   19.548532 H          1 MOL1         0.0958
       5    C2      19.692164   19.213323   21.213766 C.3        1 MOL1        -0.1412
       6    H4      18.884538   18.865070   20.554955 H          1 MOL1         0.0947
       7    H5      19.453861   20.248950   21.490506 H          1 MOL1         0.0947
       8    C3      19.754090   18.325223   22.478348 C.3        1 MOL1        -0.1437
       9    H6      20.060427   17.311164   22.186940 H          1 MOL1         0.0947
      10    H7      20.538584   18.696451   23.149507 H          1 MOL1         0.0947
      11    C4      18.402539   18.228962   23.232802 C.3        1 MOL1        -0.1437
      12    H8      18.499759   17.525732   24.069132 H          1 MOL1         0.0947
      13    H9      17.659042   17.776559   22.562281 H          1 MOL1         0.0947
      14    C5      17.835758   19.576109   23.753287 C.3        1 MOL1        -0.1437
      15    H10     17.564572   20.203384   22.893834 H          1 MOL1         0.0947
      16    H11     16.889759   19.378762   24.275901 H          1 MOL1         0.0947
      17    C6      18.762913   20.396592   24.690374 C.3        1 MOL1        -0.1437
      18    H12     18.259808   21.352891   24.889457 H          1 MOL1         0.0947
      19    H13     19.698186   20.660957   24.179258 H          1 MOL1         0.0947
      20    C7      19.065129   19.730129   26.056546 C.3        1 MOL1        -0.1477
      21    H14     19.311542   20.518434   26.780294 H          1 MOL1         0.0947
      22    H15     18.165354   19.229775   26.438302 H          1 MOL1         0.0947
      23    C8      20.244586   18.740648   26.009270 C.3        1 MOL1         0.0145
      24    H16     21.141453   19.256610   25.656179 H          1 MOL1         0.0921
      25    H17     20.025679   17.924183   25.319102 H          1 MOL1         0.0921
      26    N1      20.559098   18.131202   27.359940 N.4        1 MOL1        -0.5969
      27    H18     20.806352   18.845682   28.052608 H          1 MOL1         0.3603
      28    H19     21.348770   17.478223   27.309135 H          1 MOL1         0.3603
      29    H20     19.762073   17.608086   27.737397 H          1 MOL1         0.3603
@<TRIPOS>BOND
    1     1     2    1
    2     1     3    1
    3     1     4    1
    4     1     5    1
    5     5     6    1
    6     5     7    1
    7     5     8    1
    8     8     9    1
    9     8    10    1
   10     8    11    1
   11    11    12    1
   12    11    13    1
   13    11    14    1
   14    14    15    1
   15    14    16    1
   16    14    17    1
   17    17    18    1
   18    17    19    1
   19    17    20    1
   20    20    21    1
   21    20    22    1
   22    20    23    1
   23    23    24    1
   24    23    25    1
   25    23    26    1
   26    26    27    1
   27    26    28    1
   28    26    29    1
@<TRIPOS>SUBSTRUCTURE
       1 MOL1            1 RESIDUE      1      MOL     
@<SCITEGIC>MOL_PROPERTY
VM2 Rank
SciTegic.value.IntegerValue
299

@<SCITEGIC>MOL_PROPERTY
Conf_Id
SciTegic.value.IntegerValue
985

@<SCITEGIC>MOL_PROPERTY
Probability
SciTegic.value.DoubleValue
0.01

@<SCITEGIC>MOL_PROPERTY
Sum Probability
SciTegic.value.DoubleValue
99.64

@<SCITEGIC>MOL_PROPERTY
Delta G
SciTegic.value.DoubleValue
4.140

@<SCITEGIC>MOL_PROPERTY
G
SciTegic.value.DoubleValue
62.286

@<SCITEGIC>MOL_PROPERTY
E
SciTegic.value.DoubleValue
24.023

@<SCITEGIC>MOL_PROPERTY
-TS
SciTegic.value.DoubleValue
38.263

@<SCITEGIC>MOL_PROPERTY
U+W
SciTegic.value.DoubleValue
-0.121

@<SCITEGIC>MOL_PROPERTY
U
SciTegic.value.DoubleValue
52.441

@<SCITEGIC>MOL_PROPERTY
W
SciTegic.value.DoubleValue
-52.562

@<SCITEGIC>MOL_PROPERTY
W(PB)
SciTegic.value.DoubleValue
-54.977

@<SCITEGIC>MOL_PROPERTY
W(SA)
SciTegic.value.DoubleValue
2.415

@<SCITEGIC>MOL_PROPERTY
Valence
SciTegic.value.DoubleValue
5.943

@<SCITEGIC>MOL_PROPERTY
Coulomb
SciTegic.value.DoubleValue
46.128

@<SCITEGIC>MOL_PROPERTY
VdW
SciTegic.value.DoubleValue
0.370

@<SCITEGIC>MOL_PROPERTY
VdW6
SciTegic.value.DoubleValue
-10.817

@<SCITEGIC>MOL_PROPERTY
VdW12
SciTegic.value.DoubleValue
11.187

@<SCITEGIC>MOL_PROPERTY
Bond
SciTegic.value.DoubleValue
0.305

@<SCITEGIC>MOL_PROPERTY
Angle
SciTegic.value.DoubleValue
2.098

@<SCITEGIC>MOL_PROPERTY
Pdih
SciTegic.value.DoubleValue
3.540

@<SCITEGIC>MOL_PROPERTY
Idih
SciTegic.value.DoubleValue
0.000

@<SCITEGIC>MOL_PROPERTY
Tether
SciTegic.value.DoubleValue
0.000

@<TRIPOS>MOLECULE
guest-3_vm2.mol2 : vm2 ligand conformer 300
          29          28           1
SMALL
USER_CHARGES
 
@<TRIPOS>ATOM
       1    C1      21.326678   18.873664   21.039492 C.3        1 MOL1        -0.2427
       2    H1      21.712979   18.155282   21.774118 H          1 MOL1         0.0958
       3    H2      21.933019   18.781672   20.129109 H          1 MOL1         0.0958
       4    H3      21.478102   19.885453   21.435156 H          1 MOL1         0.0958
       5    C2      19.837661   18.602178   20.726711 C.3        1 MOL1        -0.1412
       6    H4      19.754406   17.629120   20.222756 H          1 MOL1         0.0947
       7    H5      19.466107   19.350858   20.013184 H          1 MOL1         0.0947
       8    C3      18.939669   18.586605   21.986890 C.3        1 MOL1        -0.1437
       9    H6      17.933588   18.258770   21.691277 H          1 MOL1         0.0947
      10    H7      19.313148   17.828531   22.685035 H          1 MOL1         0.0947
      11    C4      18.831495   19.968702   22.681620 C.3        1 MOL1        -0.1437
      12    H8      18.453801   20.691406   21.945296 H          1 MOL1         0.0947
      13    H9      19.820973   20.333751   22.985364 H          1 MOL1         0.0947
      14    C5      17.876919   19.970283   23.904182 C.3        1 MOL1        -0.1437
      15    H10     17.360862   20.939930   23.933466 H          1 MOL1         0.0947
      16    H11     17.086039   19.219021   23.773200 H          1 MOL1         0.0947
      17    C6      18.577897   19.774353   25.273243 C.3        1 MOL1        -0.1437
      18    H12     17.819811   19.860750   26.064049 H          1 MOL1         0.0947
      19    H13     19.285799   20.598253   25.435069 H          1 MOL1         0.0947
      20    C7      19.309865   18.419279   25.425967 C.3        1 MOL1        -0.1477
      21    H14     18.630693   17.603560   25.145062 H          1 MOL1         0.0947
      22    H15     20.167611   18.373236   24.743247 H          1 MOL1         0.0947
      23    C8      19.801785   18.172035   26.864820 C.3        1 MOL1         0.0145
      24    H16     20.245432   17.174880   26.930965 H          1 MOL1         0.0921
      25    H17     18.955558   18.215703   27.555731 H          1 MOL1         0.0921
      26    N1      20.842031   19.170900   27.332075 N.4        1 MOL1        -0.5969
      27    H18     20.476753   20.128398   27.326111 H          1 MOL1         0.3603
      28    H19     21.675270   19.159966   26.734811 H          1 MOL1         0.3603
      29    H20     21.155685   18.974419   28.288922 H          1 MOL1         0.3603
@<TRIPOS>BOND
    1     1     2    1
    2     1     3    1
    3     1     4    1
    4     1     5    1
    5     5     6    1
    6     5     7    1
    7     5     8    1
    8     8     9    1
    9     8    10    1
   10     8    11    1
   11    11    12    1
   12    11    13    1
   13    11    14    1
   14    14    15    1
   15    14    16    1
   16    14    17    1
   17    17    18    1
   18    17    19    1
   19    17    20    1
   20    20    21    1
   21    20    22    1
   22    20    23    1
   23    23    24    1
   24    23    25    1
   25    23    26    1
   26    26    27    1
   27    26    28    1
   28    26    29    1
@<TRIPOS>SUBSTRUCTURE
       1 MOL1            1 RESIDUE      1      MOL     
@<SCITEGIC>MOL_PROPERTY
VM2 Rank
SciTegic.value.IntegerValue
300

@<SCITEGIC>MOL_PROPERTY
Conf_Id
SciTegic.value.IntegerValue
2929

@<SCITEGIC>MOL_PROPERTY
Probability
SciTegic.value.DoubleValue
0.01

@<SCITEGIC>MOL_PROPERTY
Sum Probability
SciTegic.value.DoubleValue
99.64

@<SCITEGIC>MOL_PROPERTY
Delta G
SciTegic.value.DoubleValue
4.143

@<SCITEGIC>MOL_PROPERTY
G
SciTegic.value.DoubleValue
62.289

@<SCITEGIC>MOL_PROPERTY
E
SciTegic.value.DoubleValue
24.541

@<SCITEGIC>MOL_PROPERTY
-TS
SciTegic.value.DoubleValue
37.748

@<SCITEGIC>MOL_PROPERTY
U+W
SciTegic.value.DoubleValue
0.396

@<SCITEGIC>MOL_PROPERTY
U
SciTegic.value.DoubleValue
52.709

@<SCITEGIC>MOL_PROPERTY
W
SciTegic.value.DoubleValue
-52.313

@<SCITEGIC>MOL_PROPERTY
W(PB)
SciTegic.value.DoubleValue
-54.740

@<SCITEGIC>MOL_PROPERTY
W(SA)
SciTegic.value.DoubleValue
2.427

@<SCITEGIC>MOL_PROPERTY
Valence
SciTegic.value.DoubleValue
6.186

@<SCITEGIC>MOL_PROPERTY
Coulomb
SciTegic.value.DoubleValue
45.601

@<SCITEGIC>MOL_PROPERTY
VdW
SciTegic.value.DoubleValue
0.922

@<SCITEGIC>MOL_PROPERTY
VdW6
SciTegic.value.DoubleValue
-9.883

@<SCITEGIC>MOL_PROPERTY
VdW12
SciTegic.value.DoubleValue
10.805

@<SCITEGIC>MOL_PROPERTY
Bond
SciTegic.value.DoubleValue
0.292

@<SCITEGIC>MOL_PROPERTY
Angle
SciTegic.value.DoubleValue
1.417

@<SCITEGIC>MOL_PROPERTY
Pdih
SciTegic.value.DoubleValue
4.477

@<SCITEGIC>MOL_PROPERTY
Idih
SciTegic.value.DoubleValue
0.000

@<SCITEGIC>MOL_PROPERTY
Tether
SciTegic.value.DoubleValue
0.000

@<TRIPOS>MOLECULE
guest-3_vm2.mol2 : vm2 ligand conformer 301
          29          28           1
SMALL
USER_CHARGES
 
@<TRIPOS>ATOM
       1    C1      18.687161   20.162347   20.301781 C.3        1 MOL1        -0.2427
       2    H1      19.387547   20.915842   20.681642 H          1 MOL1         0.0958
       3    H2      19.068429   19.794615   19.340326 H          1 MOL1         0.0958
       4    H3      17.731025   20.666801   20.111406 H          1 MOL1         0.0958
       5    C2      18.495024   19.000922   21.303860 C.3        1 MOL1        -0.1412
       6    H4      17.717127   18.330011   20.913526 H          1 MOL1         0.0947
       7    H5      18.108659   19.395432   22.251248 H          1 MOL1         0.0947
       8    C3      19.786552   18.174775   21.536046 C.3        1 MOL1        -0.1437
       9    H6      19.535591   17.236632   22.049713 H          1 MOL1         0.0947
      10    H7      20.182266   17.875022   20.555848 H          1 MOL1         0.0947
      11    C4      20.904749   18.912210   22.322243 C.3        1 MOL1        -0.1437
      12    H8      20.860577   19.993960   22.145514 H          1 MOL1         0.0947
      13    H9      21.873833   18.588484   21.918207 H          1 MOL1         0.0947
      14    C5      20.919226   18.629189   23.846564 C.3        1 MOL1        -0.1437
      15    H10     21.074280   17.554899   24.017231 H          1 MOL1         0.0947
      16    H11     21.791314   19.136637   24.281625 H          1 MOL1         0.0947
      17    C6      19.645228   19.090332   24.591589 C.3        1 MOL1        -0.1437
      18    H12     18.784475   18.499280   24.252547 H          1 MOL1         0.0947
      19    H13     19.435281   20.141018   24.347778 H          1 MOL1         0.0947
      20    C7      19.786655   18.934874   26.121647 C.3        1 MOL1        -0.1477
      21    H14     19.998306   17.885905   26.368592 H          1 MOL1         0.0947
      22    H15     20.639397   19.528565   26.477208 H          1 MOL1         0.0947
      23    C8      18.510042   19.385489   26.852935 C.3        1 MOL1         0.0145
      24    H16     17.660656   18.785891   26.514593 H          1 MOL1         0.0921
      25    H17     18.304602   20.434430   26.622779 H          1 MOL1         0.0921
      26    N1      18.609363   19.247864   28.358335 N.4        1 MOL1        -0.5969
      27    H18     19.374943   19.810922   28.743536 H          1 MOL1         0.3603
      28    H19     18.775831   18.276852   28.642849 H          1 MOL1         0.3603
      29    H20     17.748895   19.553202   28.826398 H          1 MOL1         0.3603
@<TRIPOS>BOND
    1     1     2    1
    2     1     3    1
    3     1     4    1
    4     1     5    1
    5     5     6    1
    6     5     7    1
    7     5     8    1
    8     8     9    1
    9     8    10    1
   10     8    11    1
   11    11    12    1
   12    11    13    1
   13    11    14    1
   14    14    15    1
   15    14    16    1
   16    14    17    1
   17    17    18    1
   18    17    19    1
   19    17    20    1
   20    20    21    1
   21    20    22    1
   22    20    23    1
   23    23    24    1
   24    23    25    1
   25    23    26    1
   26    26    27    1
   27    26    28    1
   28    26    29    1
@<TRIPOS>SUBSTRUCTURE
       1 MOL1            1 RESIDUE      1      MOL     
@<SCITEGIC>MOL_PROPERTY
VM2 Rank
SciTegic.value.IntegerValue
301

@<SCITEGIC>MOL_PROPERTY
Conf_Id
SciTegic.value.IntegerValue
1689

@<SCITEGIC>MOL_PROPERTY
Probability
SciTegic.value.DoubleValue
0.01

@<SCITEGIC>MOL_PROPERTY
Sum Probability
SciTegic.value.DoubleValue
99.65

@<SCITEGIC>MOL_PROPERTY
Delta G
SciTegic.value.DoubleValue
4.148

@<SCITEGIC>MOL_PROPERTY
G
SciTegic.value.DoubleValue
62.294

@<SCITEGIC>MOL_PROPERTY
E
SciTegic.value.DoubleValue
24.687

@<SCITEGIC>MOL_PROPERTY
-TS
SciTegic.value.DoubleValue
37.606

@<SCITEGIC>MOL_PROPERTY
U+W
SciTegic.value.DoubleValue
0.543

@<SCITEGIC>MOL_PROPERTY
U
SciTegic.value.DoubleValue
52.136

@<SCITEGIC>MOL_PROPERTY
W
SciTegic.value.DoubleValue
-51.594

@<SCITEGIC>MOL_PROPERTY
W(PB)
SciTegic.value.DoubleValue
-54.070

@<SCITEGIC>MOL_PROPERTY
W(SA)
SciTegic.value.DoubleValue
2.477

@<SCITEGIC>MOL_PROPERTY
Valence
SciTegic.value.DoubleValue
6.312

@<SCITEGIC>MOL_PROPERTY
Coulomb
SciTegic.value.DoubleValue
44.908

@<SCITEGIC>MOL_PROPERTY
VdW
SciTegic.value.DoubleValue
0.916

@<SCITEGIC>MOL_PROPERTY
VdW6
SciTegic.value.DoubleValue
-9.106

@<SCITEGIC>MOL_PROPERTY
VdW12
SciTegic.value.DoubleValue
10.022

@<SCITEGIC>MOL_PROPERTY
Bond
SciTegic.value.DoubleValue
0.279

@<SCITEGIC>MOL_PROPERTY
Angle
SciTegic.value.DoubleValue
1.476

@<SCITEGIC>MOL_PROPERTY
Pdih
SciTegic.value.DoubleValue
4.558

@<SCITEGIC>MOL_PROPERTY
Idih
SciTegic.value.DoubleValue
0.000

@<SCITEGIC>MOL_PROPERTY
Tether
SciTegic.value.DoubleValue
0.000

@<TRIPOS>MOLECULE
guest-3_vm2.mol2 : vm2 ligand conformer 302
          29          28           1
SMALL
USER_CHARGES
 
@<TRIPOS>ATOM
       1    C1      19.296239   18.750820   19.453819 C.3        1 MOL1        -0.2427
       2    H1      19.217729   17.668355   19.288487 H          1 MOL1         0.0958
       3    H2      18.583408   19.246615   18.782180 H          1 MOL1         0.0958
       4    H3      20.307121   19.068325   19.166485 H          1 MOL1         0.0958
       5    C2      18.999605   19.110938   20.925017 C.3        1 MOL1        -0.1412
       6    H4      17.973094   18.807595   21.173804 H          1 MOL1         0.0947
       7    H5      19.045844   20.201659   21.039453 H          1 MOL1         0.0947
       8    C3      19.995377   18.425442   21.890685 C.3        1 MOL1        -0.1437
       9    H6      19.986685   17.343830   21.697364 H          1 MOL1         0.0947
      10    H7      21.017285   18.767917   21.677055 H          1 MOL1         0.0947
      11    C4      19.671173   18.655617   23.387459 C.3        1 MOL1        -0.1437
      12    H8      20.320879   17.993074   23.972479 H          1 MOL1         0.0947
      13    H9      18.636513   18.348210   23.591993 H          1 MOL1         0.0947
      14    C5      19.892419   20.116507   23.852149 C.3        1 MOL1        -0.1437
      15    H10     20.953111   20.378140   23.735949 H          1 MOL1         0.0947
      16    H11     19.337083   20.799141   23.197073 H          1 MOL1         0.0947
      17    C6      19.447409   20.402615   25.309951 C.3        1 MOL1        -0.1437
      18    H12     18.364014   20.254880   25.405900 H          1 MOL1         0.0947
      19    H13     19.614906   21.471861   25.499729 H          1 MOL1         0.0947
      20    C7      20.208232   19.600545   26.399554 C.3        1 MOL1        -0.1477
      21    H14     21.261534   19.490441   26.109481 H          1 MOL1         0.0947
      22    H15     20.212557   20.181698   27.331300 H          1 MOL1         0.0947
      23    C8      19.611196   18.210576   26.705487 C.3        1 MOL1         0.0145
      24    H16     20.258659   17.689814   27.416172 H          1 MOL1         0.0921
      25    H17     19.557082   17.610502   25.795589 H          1 MOL1         0.0921
      26    N1      18.222350   18.264940   27.310877 N.4        1 MOL1        -0.5969
      27    H18     18.211527   18.792065   28.190220 H          1 MOL1         0.3603
      28    H19     17.860444   17.327760   27.518656 H          1 MOL1         0.3603
      29    H20     17.551030   18.713886   26.680265 H          1 MOL1         0.3603
@<TRIPOS>BOND
    1     1     2    1
    2     1     3    1
    3     1     4    1
    4     1     5    1
    5     5     6    1
    6     5     7    1
    7     5     8    1
    8     8     9    1
    9     8    10    1
   10     8    11    1
   11    11    12    1
   12    11    13    1
   13    11    14    1
   14    14    15    1
   15    14    16    1
   16    14    17    1
   17    17    18    1
   18    17    19    1
   19    17    20    1
   20    20    21    1
   21    20    22    1
   22    20    23    1
   23    23    24    1
   24    23    25    1
   25    23    26    1
   26    26    27    1
   27    26    28    1
   28    26    29    1
@<TRIPOS>SUBSTRUCTURE
       1 MOL1            1 RESIDUE      1      MOL     
@<SCITEGIC>MOL_PROPERTY
VM2 Rank
SciTegic.value.IntegerValue
302

@<SCITEGIC>MOL_PROPERTY
Conf_Id
SciTegic.value.IntegerValue
618

@<SCITEGIC>MOL_PROPERTY
Probability
SciTegic.value.DoubleValue
0.01

@<SCITEGIC>MOL_PROPERTY
Sum Probability
SciTegic.value.DoubleValue
99.65

@<SCITEGIC>MOL_PROPERTY
Delta G
SciTegic.value.DoubleValue
4.150

@<SCITEGIC>MOL_PROPERTY
G
SciTegic.value.DoubleValue
62.297

@<SCITEGIC>MOL_PROPERTY
E
SciTegic.value.DoubleValue
24.675

@<SCITEGIC>MOL_PROPERTY
-TS
SciTegic.value.DoubleValue
37.622

@<SCITEGIC>MOL_PROPERTY
U+W
SciTegic.value.DoubleValue
0.530

@<SCITEGIC>MOL_PROPERTY
U
SciTegic.value.DoubleValue
52.762

@<SCITEGIC>MOL_PROPERTY
W
SciTegic.value.DoubleValue
-52.232

@<SCITEGIC>MOL_PROPERTY
W(PB)
SciTegic.value.DoubleValue
-54.710

@<SCITEGIC>MOL_PROPERTY
W(SA)
SciTegic.value.DoubleValue
2.478

@<SCITEGIC>MOL_PROPERTY
Valence
SciTegic.value.DoubleValue
5.840

@<SCITEGIC>MOL_PROPERTY
Coulomb
SciTegic.value.DoubleValue
45.969

@<SCITEGIC>MOL_PROPERTY
VdW
SciTegic.value.DoubleValue
0.953

@<SCITEGIC>MOL_PROPERTY
VdW6
SciTegic.value.DoubleValue
-9.740

@<SCITEGIC>MOL_PROPERTY
VdW12
SciTegic.value.DoubleValue
10.693

@<SCITEGIC>MOL_PROPERTY
Bond
SciTegic.value.DoubleValue
0.293

@<SCITEGIC>MOL_PROPERTY
Angle
SciTegic.value.DoubleValue
1.654

@<SCITEGIC>MOL_PROPERTY
Pdih
SciTegic.value.DoubleValue
3.893

@<SCITEGIC>MOL_PROPERTY
Idih
SciTegic.value.DoubleValue
0.000

@<SCITEGIC>MOL_PROPERTY
Tether
SciTegic.value.DoubleValue
0.000

@<TRIPOS>MOLECULE
guest-3_vm2.mol2 : vm2 ligand conformer 303
          29          28           1
SMALL
USER_CHARGES
 
@<TRIPOS>ATOM
       1    C1      20.385244   18.294542   19.968446 C.3        1 MOL1        -0.2427
       2    H1      19.954601   18.863183   19.133939 H          1 MOL1         0.0958
       3    H2      21.430679   18.070695   19.719525 H          1 MOL1         0.0958
       4    H3      19.845896   17.341619   20.047539 H          1 MOL1         0.0958
       5    C2      20.297880   19.091686   21.287043 C.3        1 MOL1        -0.1412
       6    H4      20.870015   20.024681   21.188198 H          1 MOL1         0.0947
       7    H5      20.772784   18.508745   22.087448 H          1 MOL1         0.0947
       8    C3      18.832510   19.414964   21.661829 C.3        1 MOL1        -0.1437
       9    H6      18.352702   19.925551   20.815504 H          1 MOL1         0.0947
      10    H7      18.271321   18.482388   21.804749 H          1 MOL1         0.0947
      11    C4      18.694586   20.318305   22.915057 C.3        1 MOL1        -0.1437
      12    H8      17.627618   20.504114   23.100022 H          1 MOL1         0.0947
      13    H9      19.134766   21.299817   22.691325 H          1 MOL1         0.0947
      14    C5      19.342500   19.771403   24.213965 C.3        1 MOL1        -0.1437
      15    H10     20.428370   19.678510   24.081160 H          1 MOL1         0.0947
      16    H11     19.188563   20.523370   24.996940 H          1 MOL1         0.0947
      17    C6      18.749320   18.419117   24.682607 C.3        1 MOL1        -0.1437
      18    H12     18.829547   17.684622   23.871303 H          1 MOL1         0.0947
      19    H13     17.675967   18.540201   24.883511 H          1 MOL1         0.0947
      20    C7      19.442896   17.813802   25.929805 C.3        1 MOL1        -0.1477
      21    H14     18.995895   16.828367   26.116754 H          1 MOL1         0.0947
      22    H15     20.505419   17.628047   25.723889 H          1 MOL1         0.0947
      23    C8      19.291439   18.648749   27.218153 C.3        1 MOL1         0.0145
      24    H16     19.418811   17.993176   28.083869 H          1 MOL1         0.0921
      25    H17     18.288543   19.081515   27.264936 H          1 MOL1         0.0921
      26    N1      20.307626   19.765430   27.358094 N.4        1 MOL1        -0.5969
      27    H18     20.250020   20.431243   26.582385 H          1 MOL1         0.3603
      28    H19     21.267094   19.404350   27.376788 H          1 MOL1         0.3603
      29    H20     20.171262   20.296967   28.224993 H          1 MOL1         0.3603
@<TRIPOS>BOND
    1     1     2    1
    2     1     3    1
    3     1     4    1
    4     1     5    1
    5     5     6    1
    6     5     7    1
    7     5     8    1
    8     8     9    1
    9     8    10    1
   10     8    11    1
   11    11    12    1
   12    11    13    1
   13    11    14    1
   14    14    15    1
   15    14    16    1
   16    14    17    1
   17    17    18    1
   18    17    19    1
   19    17    20    1
   20    20    21    1
   21    20    22    1
   22    20    23    1
   23    23    24    1
   24    23    25    1
   25    23    26    1
   26    26    27    1
   27    26    28    1
   28    26    29    1
@<TRIPOS>SUBSTRUCTURE
       1 MOL1            1 RESIDUE      1      MOL     
@<SCITEGIC>MOL_PROPERTY
VM2 Rank
SciTegic.value.IntegerValue
303

@<SCITEGIC>MOL_PROPERTY
Conf_Id
SciTegic.value.IntegerValue
2932

@<SCITEGIC>MOL_PROPERTY
Probability
SciTegic.value.DoubleValue
0.00

@<SCITEGIC>MOL_PROPERTY
Sum Probability
SciTegic.value.DoubleValue
99.66

@<SCITEGIC>MOL_PROPERTY
Delta G
SciTegic.value.DoubleValue
4.157

@<SCITEGIC>MOL_PROPERTY
G
SciTegic.value.DoubleValue
62.303

@<SCITEGIC>MOL_PROPERTY
E
SciTegic.value.DoubleValue
24.597

@<SCITEGIC>MOL_PROPERTY
-TS
SciTegic.value.DoubleValue
37.706

@<SCITEGIC>MOL_PROPERTY
U+W
SciTegic.value.DoubleValue
0.453

@<SCITEGIC>MOL_PROPERTY
U
SciTegic.value.DoubleValue
52.652

@<SCITEGIC>MOL_PROPERTY
W
SciTegic.value.DoubleValue
-52.199

@<SCITEGIC>MOL_PROPERTY
W(PB)
SciTegic.value.DoubleValue
-54.651

@<SCITEGIC>MOL_PROPERTY
W(SA)
SciTegic.value.DoubleValue
2.452

@<SCITEGIC>MOL_PROPERTY
Valence
SciTegic.value.DoubleValue
5.305

@<SCITEGIC>MOL_PROPERTY
Coulomb
SciTegic.value.DoubleValue
46.543

@<SCITEGIC>MOL_PROPERTY
VdW
SciTegic.value.DoubleValue
0.805

@<SCITEGIC>MOL_PROPERTY
VdW6
SciTegic.value.DoubleValue
-10.062

@<SCITEGIC>MOL_PROPERTY
VdW12
SciTegic.value.DoubleValue
10.867

@<SCITEGIC>MOL_PROPERTY
Bond
SciTegic.value.DoubleValue
0.297

@<SCITEGIC>MOL_PROPERTY
Angle
SciTegic.value.DoubleValue
1.771

@<SCITEGIC>MOL_PROPERTY
Pdih
SciTegic.value.DoubleValue
3.236

@<SCITEGIC>MOL_PROPERTY
Idih
SciTegic.value.DoubleValue
0.000

@<SCITEGIC>MOL_PROPERTY
Tether
SciTegic.value.DoubleValue
0.000

@<TRIPOS>MOLECULE
guest-3_vm2.mol2 : vm2 ligand conformer 304
          29          28           1
SMALL
USER_CHARGES
 
@<TRIPOS>ATOM
       1    C1      21.417790   18.204721   21.275869 C.3        1 MOL1        -0.2427
       2    H1      21.605933   17.490200   22.087780 H          1 MOL1         0.0958
       3    H2      21.112536   17.638818   20.386053 H          1 MOL1         0.0958
       4    H3      22.364525   18.710205   21.045290 H          1 MOL1         0.0958
       5    C2      20.337079   19.229753   21.679166 C.3        1 MOL1        -0.1412
       6    H4      20.193253   19.949160   20.861045 H          1 MOL1         0.0947
       7    H5      20.694053   19.803537   22.543900 H          1 MOL1         0.0947
       8    C3      18.991579   18.539714   22.006229 C.3        1 MOL1        -0.1437
       9    H6      18.671258   17.961135   21.128859 H          1 MOL1         0.0947
      10    H7      19.122626   17.806953   22.812067 H          1 MOL1         0.0947
      11    C4      17.860574   19.532772   22.371392 C.3        1 MOL1        -0.1437
      12    H8      16.926096   18.969193   22.498760 H          1 MOL1         0.0947
      13    H9      17.689817   20.199662   21.515091 H          1 MOL1         0.0947
      14    C5      18.095044   20.402576   23.636177 C.3        1 MOL1        -0.1437
      15    H10     18.968815   21.054279   23.505404 H          1 MOL1         0.0947
      16    H11     17.237876   21.084729   23.721581 H          1 MOL1         0.0947
      17    C6      18.200472   19.608156   24.964694 C.3        1 MOL1        -0.1437
      18    H12     17.602252   18.688534   24.903646 H          1 MOL1         0.0947
      19    H13     17.746617   20.211697   25.763141 H          1 MOL1         0.0947
      20    C7      19.653073   19.278071   25.383575 C.3        1 MOL1        -0.1477
      21    H14     20.143599   18.659345   24.624701 H          1 MOL1         0.0947
      22    H15     20.233127   20.207059   25.462784 H          1 MOL1         0.0947
      23    C8      19.691125   18.539095   26.732497 C.3        1 MOL1         0.0145
      24    H16     19.128818   17.604527   26.656181 H          1 MOL1         0.0921
      25    H17     19.226816   19.158238   27.504837 H          1 MOL1         0.0921
      26    N1      21.097264   18.203142   27.185400 N.4        1 MOL1        -0.5969
      27    H18     21.671654   19.044430   27.302740 H          1 MOL1         0.3603
      28    H19     21.580717   17.597967   26.513549 H          1 MOL1         0.3603
      29    H20     21.099647   17.711791   28.086103 H          1 MOL1         0.3603
@<TRIPOS>BOND
    1     1     2    1
    2     1     3    1
    3     1     4    1
    4     1     5    1
    5     5     6    1
    6     5     7    1
    7     5     8    1
    8     8     9    1
    9     8    10    1
   10     8    11    1
   11    11    12    1
   12    11    13    1
   13    11    14    1
   14    14    15    1
   15    14    16    1
   16    14    17    1
   17    17    18    1
   18    17    19    1
   19    17    20    1
   20    20    21    1
   21    20    22    1
   22    20    23    1
   23    23    24    1
   24    23    25    1
   25    23    26    1
   26    26    27    1
   27    26    28    1
   28    26    29    1
@<TRIPOS>SUBSTRUCTURE
       1 MOL1            1 RESIDUE      1      MOL     
@<SCITEGIC>MOL_PROPERTY
VM2 Rank
SciTegic.value.IntegerValue
304

@<SCITEGIC>MOL_PROPERTY
Conf_Id
SciTegic.value.IntegerValue
2293

@<SCITEGIC>MOL_PROPERTY
Probability
SciTegic.value.DoubleValue
0.00

@<SCITEGIC>MOL_PROPERTY
Sum Probability
SciTegic.value.DoubleValue
99.66

@<SCITEGIC>MOL_PROPERTY
Delta G
SciTegic.value.DoubleValue
4.157

@<SCITEGIC>MOL_PROPERTY
G
SciTegic.value.DoubleValue
62.304

@<SCITEGIC>MOL_PROPERTY
E
SciTegic.value.DoubleValue
24.261

@<SCITEGIC>MOL_PROPERTY
-TS
SciTegic.value.DoubleValue
38.043

@<SCITEGIC>MOL_PROPERTY
U+W
SciTegic.value.DoubleValue
0.116

@<SCITEGIC>MOL_PROPERTY
U
SciTegic.value.DoubleValue
52.554

@<SCITEGIC>MOL_PROPERTY
W
SciTegic.value.DoubleValue
-52.438

@<SCITEGIC>MOL_PROPERTY
W(PB)
SciTegic.value.DoubleValue
-54.873

@<SCITEGIC>MOL_PROPERTY
W(SA)
SciTegic.value.DoubleValue
2.435

@<SCITEGIC>MOL_PROPERTY
Valence
SciTegic.value.DoubleValue
6.204

@<SCITEGIC>MOL_PROPERTY
Coulomb
SciTegic.value.DoubleValue
45.905

@<SCITEGIC>MOL_PROPERTY
VdW
SciTegic.value.DoubleValue
0.445

@<SCITEGIC>MOL_PROPERTY
VdW6
SciTegic.value.DoubleValue
-9.915

@<SCITEGIC>MOL_PROPERTY
VdW12
SciTegic.value.DoubleValue
10.361

@<SCITEGIC>MOL_PROPERTY
Bond
SciTegic.value.DoubleValue
0.280

@<SCITEGIC>MOL_PROPERTY
Angle
SciTegic.value.DoubleValue
1.806

@<SCITEGIC>MOL_PROPERTY
Pdih
SciTegic.value.DoubleValue
4.118

@<SCITEGIC>MOL_PROPERTY
Idih
SciTegic.value.DoubleValue
0.000

@<SCITEGIC>MOL_PROPERTY
Tether
SciTegic.value.DoubleValue
0.000

@<TRIPOS>MOLECULE
guest-3_vm2.mol2 : vm2 ligand conformer 305
          29          28           1
SMALL
USER_CHARGES
 
@<TRIPOS>ATOM
       1    C1      19.291860   20.769039   21.243978 C.3        1 MOL1        -0.2427
       2    H1      18.548313   20.681523   22.045157 H          1 MOL1         0.0958
       3    H2      19.744212   21.766358   21.318137 H          1 MOL1         0.0958
       4    H3      18.765392   20.710038   20.282596 H          1 MOL1         0.0958
       5    C2      20.376950   19.673043   21.347655 C.3        1 MOL1        -0.1412
       6    H4      20.911286   19.753822   22.302661 H          1 MOL1         0.0947
       7    H5      21.131627   19.854372   20.569733 H          1 MOL1         0.0947
       8    C3      19.820143   18.240097   21.164890 C.3        1 MOL1        -0.1437
       9    H6      19.368792   18.165790   20.165953 H          1 MOL1         0.0947
      10    H7      20.660541   17.532437   21.163904 H          1 MOL1         0.0947
      11    C4      18.774526   17.775020   22.214231 C.3        1 MOL1        -0.1437
      12    H8      18.425264   16.780811   21.903072 H          1 MOL1         0.0947
      13    H9      17.883234   18.415500   22.186154 H          1 MOL1         0.0947
      14    C5      19.314649   17.653556   23.663526 C.3        1 MOL1        -0.1437
      15    H10     18.816945   16.800401   24.145045 H          1 MOL1         0.0947
      16    H11     20.385729   17.409544   23.647592 H          1 MOL1         0.0947
      17    C6      19.060649   18.909388   24.532475 C.3        1 MOL1        -0.1437
      18    H12     17.983555   19.125453   24.556617 H          1 MOL1         0.0947
      19    H13     19.547171   19.786439   24.090875 H          1 MOL1         0.0947
      20    C7      19.576679   18.720788   25.975809 C.3        1 MOL1        -0.1477
      21    H14     19.083108   17.854113   26.435514 H          1 MOL1         0.0947
      22    H15     20.653723   18.506910   25.958027 H          1 MOL1         0.0947
      23    C8      19.317609   19.971540   26.833769 C.3        1 MOL1         0.0145
      24    H16     18.244641   20.179000   26.867744 H          1 MOL1         0.0921
      25    H17     19.821264   20.834069   26.388988 H          1 MOL1         0.0921
      26    N1      19.810937   19.825530   28.258666 N.4        1 MOL1        -0.5969
      27    H18     20.821349   19.655018   28.297370 H          1 MOL1         0.3603
      28    H19     19.354219   19.045397   28.742734 H          1 MOL1         0.3603
      29    H20     19.628642   20.669279   28.813253 H          1 MOL1         0.3603
@<TRIPOS>BOND
    1     1     2    1
    2     1     3    1
    3     1     4    1
    4     1     5    1
    5     5     6    1
    6     5     7    1
    7     5     8    1
    8     8     9    1
    9     8    10    1
   10     8    11    1
   11    11    12    1
   12    11    13    1
   13    11    14    1
   14    14    15    1
   15    14    16    1
   16    14    17    1
   17    17    18    1
   18    17    19    1
   19    17    20    1
   20    20    21    1
   21    20    22    1
   22    20    23    1
   23    23    24    1
   24    23    25    1
   25    23    26    1
   26    26    27    1
   27    26    28    1
   28    26    29    1
@<TRIPOS>SUBSTRUCTURE
       1 MOL1            1 RESIDUE      1      MOL     
@<SCITEGIC>MOL_PROPERTY
VM2 Rank
SciTegic.value.IntegerValue
305

@<SCITEGIC>MOL_PROPERTY
Conf_Id
SciTegic.value.IntegerValue
1631

@<SCITEGIC>MOL_PROPERTY
Probability
SciTegic.value.DoubleValue
0.00

@<SCITEGIC>MOL_PROPERTY
Sum Probability
SciTegic.value.DoubleValue
99.67

@<SCITEGIC>MOL_PROPERTY
Delta G
SciTegic.value.DoubleValue
4.177

@<SCITEGIC>MOL_PROPERTY
G
SciTegic.value.DoubleValue
62.323

@<SCITEGIC>MOL_PROPERTY
E
SciTegic.value.DoubleValue
24.322

@<SCITEGIC>MOL_PROPERTY
-TS
SciTegic.value.DoubleValue
38.001

@<SCITEGIC>MOL_PROPERTY
U+W
SciTegic.value.DoubleValue
0.177

@<SCITEGIC>MOL_PROPERTY
U
SciTegic.value.DoubleValue
51.870

@<SCITEGIC>MOL_PROPERTY
W
SciTegic.value.DoubleValue
-51.693

@<SCITEGIC>MOL_PROPERTY
W(PB)
SciTegic.value.DoubleValue
-54.129

@<SCITEGIC>MOL_PROPERTY
W(SA)
SciTegic.value.DoubleValue
2.436

@<SCITEGIC>MOL_PROPERTY
Valence
SciTegic.value.DoubleValue
6.196

@<SCITEGIC>MOL_PROPERTY
Coulomb
SciTegic.value.DoubleValue
45.072

@<SCITEGIC>MOL_PROPERTY
VdW
SciTegic.value.DoubleValue
0.602

@<SCITEGIC>MOL_PROPERTY
VdW6
SciTegic.value.DoubleValue
-9.621

@<SCITEGIC>MOL_PROPERTY
VdW12
SciTegic.value.DoubleValue
10.223

@<SCITEGIC>MOL_PROPERTY
Bond
SciTegic.value.DoubleValue
0.275

@<SCITEGIC>MOL_PROPERTY
Angle
SciTegic.value.DoubleValue
1.754

@<SCITEGIC>MOL_PROPERTY
Pdih
SciTegic.value.DoubleValue
4.167

@<SCITEGIC>MOL_PROPERTY
Idih
SciTegic.value.DoubleValue
0.000

@<SCITEGIC>MOL_PROPERTY
Tether
SciTegic.value.DoubleValue
0.000

@<TRIPOS>MOLECULE
guest-3_vm2.mol2 : vm2 ligand conformer 306
          29          28           1
SMALL
USER_CHARGES
 
@<TRIPOS>ATOM
       1    C1      20.642521   18.115405   20.416315 C.3        1 MOL1        -0.2427
       2    H1      21.486012   18.754978   20.125341 H          1 MOL1         0.0958
       3    H2      21.034956   17.282567   21.014292 H          1 MOL1         0.0958
       4    H3      20.205771   17.696543   19.500452 H          1 MOL1         0.0958
       5    C2      19.586053   18.915677   21.206980 C.3        1 MOL1        -0.1412
       6    H4      18.742618   18.254182   21.445598 H          1 MOL1         0.0947
       7    H5      19.190143   19.722075   20.574089 H          1 MOL1         0.0947
       8    C3      20.177664   19.513202   22.504933 C.3        1 MOL1        -0.1437
       9    H6      20.540901   18.703169   23.149604 H          1 MOL1         0.0947
      10    H7      21.060394   20.115526   22.249843 H          1 MOL1         0.0947
      11    C4      19.181040   20.412420   23.281658 C.3        1 MOL1        -0.1437
      12    H8      18.900764   21.259207   22.640213 H          1 MOL1         0.0947
      13    H9      19.689202   20.861788   24.143791 H          1 MOL1         0.0947
      14    C5      17.882780   19.707968   23.756225 C.3        1 MOL1        -0.1437
      15    H10     17.267385   20.438188   24.299413 H          1 MOL1         0.0947
      16    H11     17.288315   19.428080   22.876483 H          1 MOL1         0.0947
      17    C6      18.068802   18.449900   24.647064 C.3        1 MOL1        -0.1437
      18    H12     18.633221   17.674093   24.112816 H          1 MOL1         0.0947
      19    H13     17.071579   18.020364   24.815296 H          1 MOL1         0.0947
      20    C7      18.705097   18.720515   26.034083 C.3        1 MOL1        -0.1477
      21    H14     18.319482   19.661727   26.447735 H          1 MOL1         0.0947
      22    H15     18.387008   17.926456   26.722738 H          1 MOL1         0.0947
      23    C8      20.245021   18.741585   26.009354 C.3        1 MOL1         0.0145
      24    H16     20.601751   19.538510   25.354736 H          1 MOL1         0.0921
      25    H17     20.618093   17.788900   25.624038 H          1 MOL1         0.0921
      26    N1      20.855022   18.961329   27.378388 N.4        1 MOL1        -0.5969
      27    H18     20.584653   18.225288   28.039106 H          1 MOL1         0.3603
      28    H19     20.563498   19.855468   27.786929 H          1 MOL1         0.3603
      29    H20     21.880297   18.968751   27.342340 H          1 MOL1         0.3603
@<TRIPOS>BOND
    1     1     2    1
    2     1     3    1
    3     1     4    1
    4     1     5    1
    5     5     6    1
    6     5     7    1
    7     5     8    1
    8     8     9    1
    9     8    10    1
   10     8    11    1
   11    11    12    1
   12    11    13    1
   13    11    14    1
   14    14    15    1
   15    14    16    1
   16    14    17    1
   17    17    18    1
   18    17    19    1
   19    17    20    1
   20    20    21    1
   21    20    22    1
   22    20    23    1
   23    23    24    1
   24    23    25    1
   25    23    26    1
   26    26    27    1
   27    26    28    1
   28    26    29    1
@<TRIPOS>SUBSTRUCTURE
       1 MOL1            1 RESIDUE      1      MOL     
@<SCITEGIC>MOL_PROPERTY
VM2 Rank
SciTegic.value.IntegerValue
306

@<SCITEGIC>MOL_PROPERTY
Conf_Id
SciTegic.value.IntegerValue
2455

@<SCITEGIC>MOL_PROPERTY
Probability
SciTegic.value.DoubleValue
0.00

@<SCITEGIC>MOL_PROPERTY
Sum Probability
SciTegic.value.DoubleValue
99.67

@<SCITEGIC>MOL_PROPERTY
Delta G
SciTegic.value.DoubleValue
4.179

@<SCITEGIC>MOL_PROPERTY
G
SciTegic.value.DoubleValue
62.326

@<SCITEGIC>MOL_PROPERTY
E
SciTegic.value.DoubleValue
24.063

@<SCITEGIC>MOL_PROPERTY
-TS
SciTegic.value.DoubleValue
38.262

@<SCITEGIC>MOL_PROPERTY
U+W
SciTegic.value.DoubleValue
-0.081

@<SCITEGIC>MOL_PROPERTY
U
SciTegic.value.DoubleValue
52.441

@<SCITEGIC>MOL_PROPERTY
W
SciTegic.value.DoubleValue
-52.523

@<SCITEGIC>MOL_PROPERTY
W(PB)
SciTegic.value.DoubleValue
-54.951

@<SCITEGIC>MOL_PROPERTY
W(SA)
SciTegic.value.DoubleValue
2.428

@<SCITEGIC>MOL_PROPERTY
Valence
SciTegic.value.DoubleValue
5.944

@<SCITEGIC>MOL_PROPERTY
Coulomb
SciTegic.value.DoubleValue
46.128

@<SCITEGIC>MOL_PROPERTY
VdW
SciTegic.value.DoubleValue
0.370

@<SCITEGIC>MOL_PROPERTY
VdW6
SciTegic.value.DoubleValue
-10.817

@<SCITEGIC>MOL_PROPERTY
VdW12
SciTegic.value.DoubleValue
11.187

@<SCITEGIC>MOL_PROPERTY
Bond
SciTegic.value.DoubleValue
0.305

@<SCITEGIC>MOL_PROPERTY
Angle
SciTegic.value.DoubleValue
2.097

@<SCITEGIC>MOL_PROPERTY
Pdih
SciTegic.value.DoubleValue
3.541

@<SCITEGIC>MOL_PROPERTY
Idih
SciTegic.value.DoubleValue
0.000

@<SCITEGIC>MOL_PROPERTY
Tether
SciTegic.value.DoubleValue
0.000

@<TRIPOS>MOLECULE
guest-3_vm2.mol2 : vm2 ligand conformer 307
          29          28           1
SMALL
USER_CHARGES
 
@<TRIPOS>ATOM
       1    C1      20.321234   18.065055   20.569423 C.3        1 MOL1        -0.2427
       2    H1      21.251480   17.611219   20.204048 H          1 MOL1         0.0958
       3    H2      19.880255   17.373625   21.298262 H          1 MOL1         0.0958
       4    H3      19.633293   18.153625   19.718638 H          1 MOL1         0.0958
       5    C2      20.604378   19.446947   21.200404 C.3        1 MOL1        -0.1412
       6    H4      21.150742   20.062753   20.472467 H          1 MOL1         0.0947
       7    H5      21.277623   19.330775   22.060121 H          1 MOL1         0.0947
       8    C3      19.320773   20.206025   21.623053 C.3        1 MOL1        -0.1437
       9    H6      19.607007   21.184881   22.031685 H          1 MOL1         0.0947
      10    H7      18.722826   20.418342   20.726127 H          1 MOL1         0.0947
      11    C4      18.425481   19.471509   22.654167 C.3        1 MOL1        -0.1437
      12    H8      18.036014   18.542882   22.216341 H          1 MOL1         0.0947
      13    H9      17.547901   20.099975   22.859330 H          1 MOL1         0.0947
      14    C5      19.145602   19.161199   23.987956 C.3        1 MOL1        -0.1437
      15    H10     19.976564   18.466416   23.808432 H          1 MOL1         0.0947
      16    H11     19.570848   20.092036   24.382518 H          1 MOL1         0.0947
      17    C6      18.180378   18.543508   25.027017 C.3        1 MOL1        -0.1437
      18    H12     17.646594   17.703803   24.560776 H          1 MOL1         0.0947
      19    H13     17.412834   19.281391   25.298676 H          1 MOL1         0.0947
      20    C7      18.871159   18.020963   26.312522 C.3        1 MOL1        -0.1477
      21    H14     18.105334   17.536387   26.932627 H          1 MOL1         0.0947
      22    H15     19.598315   17.236534   26.063941 H          1 MOL1         0.0947
      23    C8      19.544849   19.114403   27.167201 C.3        1 MOL1         0.0145
      24    H16     19.650980   18.749866   28.192539 H          1 MOL1         0.0921
      25    H17     18.916500   20.008833   27.188401 H          1 MOL1         0.0921
      26    N1      20.930146   19.508391   26.693256 N.4        1 MOL1        -0.5969
      27    H18     21.576226   18.712352   26.708458 H          1 MOL1         0.3603
      28    H19     21.341008   20.238552   27.285490 H          1 MOL1         0.3603
      29    H20     20.914793   19.868120   25.734740 H          1 MOL1         0.3603
@<TRIPOS>BOND
    1     1     2    1
    2     1     3    1
    3     1     4    1
    4     1     5    1
    5     5     6    1
    6     5     7    1
    7     5     8    1
    8     8     9    1
    9     8    10    1
   10     8    11    1
   11    11    12    1
   12    11    13    1
   13    11    14    1
   14    14    15    1
   15    14    16    1
   16    14    17    1
   17    17    18    1
   18    17    19    1
   19    17    20    1
   20    20    21    1
   21    20    22    1
   22    20    23    1
   23    23    24    1
   24    23    25    1
   25    23    26    1
   26    26    27    1
   27    26    28    1
   28    26    29    1
@<TRIPOS>SUBSTRUCTURE
       1 MOL1            1 RESIDUE      1      MOL     
@<SCITEGIC>MOL_PROPERTY
VM2 Rank
SciTegic.value.IntegerValue
307

@<SCITEGIC>MOL_PROPERTY
Conf_Id
SciTegic.value.IntegerValue
206

@<SCITEGIC>MOL_PROPERTY
Probability
SciTegic.value.DoubleValue
0.00

@<SCITEGIC>MOL_PROPERTY
Sum Probability
SciTegic.value.DoubleValue
99.67

@<SCITEGIC>MOL_PROPERTY
Delta G
SciTegic.value.DoubleValue
4.181

@<SCITEGIC>MOL_PROPERTY
G
SciTegic.value.DoubleValue
62.327

@<SCITEGIC>MOL_PROPERTY
E
SciTegic.value.DoubleValue
24.542

@<SCITEGIC>MOL_PROPERTY
-TS
SciTegic.value.DoubleValue
37.785

@<SCITEGIC>MOL_PROPERTY
U+W
SciTegic.value.DoubleValue
0.398

@<SCITEGIC>MOL_PROPERTY
U
SciTegic.value.DoubleValue
52.666

@<SCITEGIC>MOL_PROPERTY
W
SciTegic.value.DoubleValue
-52.268

@<SCITEGIC>MOL_PROPERTY
W(PB)
SciTegic.value.DoubleValue
-54.696

@<SCITEGIC>MOL_PROPERTY
W(SA)
SciTegic.value.DoubleValue
2.428

@<SCITEGIC>MOL_PROPERTY
Valence
SciTegic.value.DoubleValue
5.120

@<SCITEGIC>MOL_PROPERTY
Coulomb
SciTegic.value.DoubleValue
46.798

@<SCITEGIC>MOL_PROPERTY
VdW
SciTegic.value.DoubleValue
0.748

@<SCITEGIC>MOL_PROPERTY
VdW6
SciTegic.value.DoubleValue
-10.097

@<SCITEGIC>MOL_PROPERTY
VdW12
SciTegic.value.DoubleValue
10.844

@<SCITEGIC>MOL_PROPERTY
Bond
SciTegic.value.DoubleValue
0.281

@<SCITEGIC>MOL_PROPERTY
Angle
SciTegic.value.DoubleValue
1.589

@<SCITEGIC>MOL_PROPERTY
Pdih
SciTegic.value.DoubleValue
3.250

@<SCITEGIC>MOL_PROPERTY
Idih
SciTegic.value.DoubleValue
0.000

@<SCITEGIC>MOL_PROPERTY
Tether
SciTegic.value.DoubleValue
0.000

@<TRIPOS>MOLECULE
guest-3_vm2.mol2 : vm2 ligand conformer 308
          29          28           1
SMALL
USER_CHARGES
 
@<TRIPOS>ATOM
       1    C1      20.133632   18.522305   19.849079 C.3        1 MOL1        -0.2427
       2    H1      21.201975   18.417917   20.078754 H          1 MOL1         0.0958
       3    H2      19.934360   17.969417   18.921968 H          1 MOL1         0.0958
       4    H3      19.925864   19.580952   19.651311 H          1 MOL1         0.0958
       5    C2      19.261295   17.975404   21.001915 C.3        1 MOL1        -0.1412
       6    H4      19.412975   16.889215   21.072255 H          1 MOL1         0.0947
       7    H5      18.198346   18.122369   20.764722 H          1 MOL1         0.0947
       8    C3      19.584495   18.609501   22.376522 C.3        1 MOL1        -0.1437
       9    H6      19.024754   18.055818   23.140951 H          1 MOL1         0.0947
      10    H7      20.650733   18.472528   22.602815 H          1 MOL1         0.0947
      11    C4      19.216043   20.111097   22.466025 C.3        1 MOL1        -0.1437
      12    H8      18.137618   20.232281   22.294901 H          1 MOL1         0.0947
      13    H9      19.717419   20.660496   21.659248 H          1 MOL1         0.0947
      14    C5      19.602862   20.785155   23.807924 C.3        1 MOL1        -0.1437
      15    H10     20.693854   20.768463   23.937027 H          1 MOL1         0.0947
      16    H11     19.330920   21.847235   23.733992 H          1 MOL1         0.0947
      17    C6      18.902742   20.193689   25.059138 C.3        1 MOL1        -0.1437
      18    H12     17.937303   19.750323   24.778404 H          1 MOL1         0.0947
      19    H13     18.668681   21.016318   25.749238 H          1 MOL1         0.0947
      20    C7      19.771201   19.162182   25.818460 C.3        1 MOL1        -0.1477
      21    H14     20.061487   18.338769   25.156047 H          1 MOL1         0.0947
      22    H15     20.700475   19.641988   26.153406 H          1 MOL1         0.0947
      23    C8      19.025711   18.592849   27.038051 C.3        1 MOL1         0.0145
      24    H16     18.107241   18.098487   26.710247 H          1 MOL1         0.0921
      25    H17     18.755521   19.406109   27.717057 H          1 MOL1         0.0921
      26    N1      19.846019   17.585817   27.817887 N.4        1 MOL1        -0.5969
      27    H18     20.713626   17.997099   28.177911 H          1 MOL1         0.3603
      28    H19     20.109916   16.779698   27.241740 H          1 MOL1         0.3603
      29    H20     19.331056   17.219718   28.626282 H          1 MOL1         0.3603
@<TRIPOS>BOND
    1     1     2    1
    2     1     3    1
    3     1     4    1
    4     1     5    1
    5     5     6    1
    6     5     7    1
    7     5     8    1
    8     8     9    1
    9     8    10    1
   10     8    11    1
   11    11    12    1
   12    11    13    1
   13    11    14    1
   14    14    15    1
   15    14    16    1
   16    14    17    1
   17    17    18    1
   18    17    19    1
   19    17    20    1
   20    20    21    1
   21    20    22    1
   22    20    23    1
   23    23    24    1
   24    23    25    1
   25    23    26    1
   26    26    27    1
   27    26    28    1
   28    26    29    1
@<TRIPOS>SUBSTRUCTURE
       1 MOL1            1 RESIDUE      1      MOL     
@<SCITEGIC>MOL_PROPERTY
VM2 Rank
SciTegic.value.IntegerValue
308

@<SCITEGIC>MOL_PROPERTY
Conf_Id
SciTegic.value.IntegerValue
2750

@<SCITEGIC>MOL_PROPERTY
Probability
SciTegic.value.DoubleValue
0.00

@<SCITEGIC>MOL_PROPERTY
Sum Probability
SciTegic.value.DoubleValue
99.68

@<SCITEGIC>MOL_PROPERTY
Delta G
SciTegic.value.DoubleValue
4.190

@<SCITEGIC>MOL_PROPERTY
G
SciTegic.value.DoubleValue
62.336

@<SCITEGIC>MOL_PROPERTY
E
SciTegic.value.DoubleValue
24.704

@<SCITEGIC>MOL_PROPERTY
-TS
SciTegic.value.DoubleValue
37.632

@<SCITEGIC>MOL_PROPERTY
U+W
SciTegic.value.DoubleValue
0.559

@<SCITEGIC>MOL_PROPERTY
U
SciTegic.value.DoubleValue
52.577

@<SCITEGIC>MOL_PROPERTY
W
SciTegic.value.DoubleValue
-52.017

@<SCITEGIC>MOL_PROPERTY
W(PB)
SciTegic.value.DoubleValue
-54.493

@<SCITEGIC>MOL_PROPERTY
W(SA)
SciTegic.value.DoubleValue
2.476

@<SCITEGIC>MOL_PROPERTY
Valence
SciTegic.value.DoubleValue
6.244

@<SCITEGIC>MOL_PROPERTY
Coulomb
SciTegic.value.DoubleValue
45.374

@<SCITEGIC>MOL_PROPERTY
VdW
SciTegic.value.DoubleValue
0.959

@<SCITEGIC>MOL_PROPERTY
VdW6
SciTegic.value.DoubleValue
-9.152

@<SCITEGIC>MOL_PROPERTY
VdW12
SciTegic.value.DoubleValue
10.111

@<SCITEGIC>MOL_PROPERTY
Bond
SciTegic.value.DoubleValue
0.274

@<SCITEGIC>MOL_PROPERTY
Angle
SciTegic.value.DoubleValue
1.455

@<SCITEGIC>MOL_PROPERTY
Pdih
SciTegic.value.DoubleValue
4.516

@<SCITEGIC>MOL_PROPERTY
Idih
SciTegic.value.DoubleValue
0.000

@<SCITEGIC>MOL_PROPERTY
Tether
SciTegic.value.DoubleValue
0.000

@<TRIPOS>MOLECULE
guest-3_vm2.mol2 : vm2 ligand conformer 309
          29          28           1
SMALL
USER_CHARGES
 
@<TRIPOS>ATOM
       1    C1      21.231386   19.197383   20.438518 C.3        1 MOL1        -0.2427
       2    H1      21.303201   19.544610   19.399620 H          1 MOL1         0.0958
       3    H2      21.897183   19.821124   21.049165 H          1 MOL1         0.0958
       4    H3      21.601494   18.164465   20.475059 H          1 MOL1         0.0958
       5    C2      19.774952   19.282673   20.941944 C.3        1 MOL1        -0.1412
       6    H4      19.128426   18.677218   20.291337 H          1 MOL1         0.0947
       7    H5      19.422051   20.320488   20.862744 H          1 MOL1         0.0947
       8    C3      19.645994   18.798688   22.403025 C.3        1 MOL1        -0.1437
       9    H6      19.998211   17.760439   22.474268 H          1 MOL1         0.0947
      10    H7      20.307184   19.400136   23.036221 H          1 MOL1         0.0947
      11    C4      18.184967   18.883499   22.908154 C.3        1 MOL1        -0.1437
      12    H8      17.557304   18.286041   22.232490 H          1 MOL1         0.0947
      13    H9      17.813701   19.914758   22.833050 H          1 MOL1         0.0947
      14    C5      17.986053   18.348935   24.350808 C.3        1 MOL1        -0.1437
      15    H10     16.986021   17.896756   24.404309 H          1 MOL1         0.0947
      16    H11     18.686056   17.528262   24.556484 H          1 MOL1         0.0947
      17    C6      18.058855   19.428963   25.463848 C.3        1 MOL1        -0.1437
      18    H12     17.765973   18.968646   26.416981 H          1 MOL1         0.0947
      19    H13     17.300032   20.198254   25.265210 H          1 MOL1         0.0947
      20    C7      19.434078   20.120249   25.642306 C.3        1 MOL1        -0.1477
      21    H14     19.661016   20.723832   24.755039 H          1 MOL1         0.0947
      22    H15     19.372001   20.831876   26.476216 H          1 MOL1         0.0947
      23    C8      20.595559   19.140835   25.906072 C.3        1 MOL1         0.0145
      24    H16     21.532453   19.699279   25.982254 H          1 MOL1         0.0921
      25    H17     20.683612   18.438965   25.072946 H          1 MOL1         0.0921
      26    N1      20.432156   18.336775   27.180325 N.4        1 MOL1        -0.5969
      27    H18     20.373325   18.941544   28.006072 H          1 MOL1         0.3603
      28    H19     21.219580   17.696964   27.331663 H          1 MOL1         0.3603
      29    H20     19.579861   17.768126   27.159583 H          1 MOL1         0.3603
@<TRIPOS>BOND
    1     1     2    1
    2     1     3    1
    3     1     4    1
    4     1     5    1
    5     5     6    1
    6     5     7    1
    7     5     8    1
    8     8     9    1
    9     8    10    1
   10     8    11    1
   11    11    12    1
   12    11    13    1
   13    11    14    1
   14    14    15    1
   15    14    16    1
   16    14    17    1
   17    17    18    1
   18    17    19    1
   19    17    20    1
   20    20    21    1
   21    20    22    1
   22    20    23    1
   23    23    24    1
   24    23    25    1
   25    23    26    1
   26    26    27    1
   27    26    28    1
   28    26    29    1
@<TRIPOS>SUBSTRUCTURE
       1 MOL1            1 RESIDUE      1      MOL     
@<SCITEGIC>MOL_PROPERTY
VM2 Rank
SciTegic.value.IntegerValue
309

@<SCITEGIC>MOL_PROPERTY
Conf_Id
SciTegic.value.IntegerValue
344

@<SCITEGIC>MOL_PROPERTY
Probability
SciTegic.value.DoubleValue
0.00

@<SCITEGIC>MOL_PROPERTY
Sum Probability
SciTegic.value.DoubleValue
99.68

@<SCITEGIC>MOL_PROPERTY
Delta G
SciTegic.value.DoubleValue
4.197

@<SCITEGIC>MOL_PROPERTY
G
SciTegic.value.DoubleValue
62.343

@<SCITEGIC>MOL_PROPERTY
E
SciTegic.value.DoubleValue
24.266

@<SCITEGIC>MOL_PROPERTY
-TS
SciTegic.value.DoubleValue
38.077

@<SCITEGIC>MOL_PROPERTY
U+W
SciTegic.value.DoubleValue
0.122

@<SCITEGIC>MOL_PROPERTY
U
SciTegic.value.DoubleValue
52.559

@<SCITEGIC>MOL_PROPERTY
W
SciTegic.value.DoubleValue
-52.437

@<SCITEGIC>MOL_PROPERTY
W(PB)
SciTegic.value.DoubleValue
-54.855

@<SCITEGIC>MOL_PROPERTY
W(SA)
SciTegic.value.DoubleValue
2.418

@<SCITEGIC>MOL_PROPERTY
Valence
SciTegic.value.DoubleValue
5.998

@<SCITEGIC>MOL_PROPERTY
Coulomb
SciTegic.value.DoubleValue
46.093

@<SCITEGIC>MOL_PROPERTY
VdW
SciTegic.value.DoubleValue
0.467

@<SCITEGIC>MOL_PROPERTY
VdW6
SciTegic.value.DoubleValue
-10.461

@<SCITEGIC>MOL_PROPERTY
VdW12
SciTegic.value.DoubleValue
10.928

@<SCITEGIC>MOL_PROPERTY
Bond
SciTegic.value.DoubleValue
0.286

@<SCITEGIC>MOL_PROPERTY
Angle
SciTegic.value.DoubleValue
1.671

@<SCITEGIC>MOL_PROPERTY
Pdih
SciTegic.value.DoubleValue
4.041

@<SCITEGIC>MOL_PROPERTY
Idih
SciTegic.value.DoubleValue
0.000

@<SCITEGIC>MOL_PROPERTY
Tether
SciTegic.value.DoubleValue
0.000

@<TRIPOS>MOLECULE
guest-3_vm2.mol2 : vm2 ligand conformer 310
          29          28           1
SMALL
USER_CHARGES
 
@<TRIPOS>ATOM
       1    C1      21.047320   17.997281   21.676751 C.3        1 MOL1        -0.2427
       2    H1      22.074193   18.074478   21.296771 H          1 MOL1         0.0958
       3    H2      21.094074   18.068290   22.770395 H          1 MOL1         0.0958
       4    H3      20.664234   17.003396   21.411487 H          1 MOL1         0.0958
       5    C2      20.162462   19.112309   21.075066 C.3        1 MOL1        -0.1412
       6    H4      20.247578   19.079398   19.979950 H          1 MOL1         0.0947
       7    H5      20.549486   20.094871   21.376235 H          1 MOL1         0.0947
       8    C3      18.665376   18.986179   21.456648 C.3        1 MOL1        -0.1437
       9    H6      18.107534   19.802216   20.977079 H          1 MOL1         0.0947
      10    H7      18.267406   18.056871   21.026406 H          1 MOL1         0.0947
      11    C4      18.367211   18.995721   22.978041 C.3        1 MOL1        -0.1437
      12    H8      18.821554   18.114250   23.442479 H          1 MOL1         0.0947
      13    H9      17.283400   18.880409   23.115595 H          1 MOL1         0.0947
      14    C5      18.827337   20.295545   23.687542 C.3        1 MOL1        -0.1437
      15    H10     19.913411   20.426363   23.595699 H          1 MOL1         0.0947
      16    H11     18.371978   21.147675   23.164366 H          1 MOL1         0.0947
      17    C6      18.419934   20.368446   25.182307 C.3        1 MOL1        -0.1437
      18    H12     17.445868   19.884093   25.336573 H          1 MOL1         0.0947
      19    H13     18.270805   21.425228   25.443817 H          1 MOL1         0.0947
      20    C7      19.467064   19.788445   26.166225 C.3        1 MOL1        -0.1477
      21    H14     20.413598   20.334722   26.058806 H          1 MOL1         0.0947
      22    H15     19.119531   19.968325   27.192283 H          1 MOL1         0.0947
      23    C8      19.723652   18.282258   25.985195 C.3        1 MOL1         0.0145
      24    H16     20.167009   18.100925   25.003337 H          1 MOL1         0.0921
      25    H17     18.778298   17.736570   26.047342 H          1 MOL1         0.0921
      26    N1      20.663645   17.711815   27.027227 N.4        1 MOL1        -0.5969
      27    H18     20.824092   16.708194   26.887420 H          1 MOL1         0.3603
      28    H19     20.294402   17.825655   27.977034 H          1 MOL1         0.3603
      29    H20     21.581736   18.167827   27.003716 H          1 MOL1         0.3603
@<TRIPOS>BOND
    1     1     2    1
    2     1     3    1
    3     1     4    1
    4     1     5    1
    5     5     6    1
    6     5     7    1
    7     5     8    1
    8     8     9    1
    9     8    10    1
   10     8    11    1
   11    11    12    1
   12    11    13    1
   13    11    14    1
   14    14    15    1
   15    14    16    1
   16    14    17    1
   17    17    18    1
   18    17    19    1
   19    17    20    1
   20    20    21    1
   21    20    22    1
   22    20    23    1
   23    23    24    1
   24    23    25    1
   25    23    26    1
   26    26    27    1
   27    26    28    1
   28    26    29    1
@<TRIPOS>SUBSTRUCTURE
       1 MOL1            1 RESIDUE      1      MOL     
@<SCITEGIC>MOL_PROPERTY
VM2 Rank
SciTegic.value.IntegerValue
310

@<SCITEGIC>MOL_PROPERTY
Conf_Id
SciTegic.value.IntegerValue
2910

@<SCITEGIC>MOL_PROPERTY
Probability
SciTegic.value.DoubleValue
0.00

@<SCITEGIC>MOL_PROPERTY
Sum Probability
SciTegic.value.DoubleValue
99.69

@<SCITEGIC>MOL_PROPERTY
Delta G
SciTegic.value.DoubleValue
4.210

@<SCITEGIC>MOL_PROPERTY
G
SciTegic.value.DoubleValue
62.356

@<SCITEGIC>MOL_PROPERTY
E
SciTegic.value.DoubleValue
24.464

@<SCITEGIC>MOL_PROPERTY
-TS
SciTegic.value.DoubleValue
37.892

@<SCITEGIC>MOL_PROPERTY
U+W
SciTegic.value.DoubleValue
0.320

@<SCITEGIC>MOL_PROPERTY
U
SciTegic.value.DoubleValue
52.867

@<SCITEGIC>MOL_PROPERTY
W
SciTegic.value.DoubleValue
-52.548

@<SCITEGIC>MOL_PROPERTY
W(PB)
SciTegic.value.DoubleValue
-54.993

@<SCITEGIC>MOL_PROPERTY
W(SA)
SciTegic.value.DoubleValue
2.445

@<SCITEGIC>MOL_PROPERTY
Valence
SciTegic.value.DoubleValue
6.036

@<SCITEGIC>MOL_PROPERTY
Coulomb
SciTegic.value.DoubleValue
46.191

@<SCITEGIC>MOL_PROPERTY
VdW
SciTegic.value.DoubleValue
0.641

@<SCITEGIC>MOL_PROPERTY
VdW6
SciTegic.value.DoubleValue
-10.428

@<SCITEGIC>MOL_PROPERTY
VdW12
SciTegic.value.DoubleValue
11.069

@<SCITEGIC>MOL_PROPERTY
Bond
SciTegic.value.DoubleValue
0.311

@<SCITEGIC>MOL_PROPERTY
Angle
SciTegic.value.DoubleValue
1.746

@<SCITEGIC>MOL_PROPERTY
Pdih
SciTegic.value.DoubleValue
3.979

@<SCITEGIC>MOL_PROPERTY
Idih
SciTegic.value.DoubleValue
0.000

@<SCITEGIC>MOL_PROPERTY
Tether
SciTegic.value.DoubleValue
0.000

@<TRIPOS>MOLECULE
guest-3_vm2.mol2 : vm2 ligand conformer 311
          29          28           1
SMALL
USER_CHARGES
 
@<TRIPOS>ATOM
       1    C1      20.828389   19.564997   20.808014 C.3        1 MOL1        -0.2427
       2    H1      21.533427   18.883251   21.300963 H          1 MOL1         0.0958
       3    H2      21.320356   19.968372   19.913527 H          1 MOL1         0.0958
       4    H3      20.628553   20.408600   21.480077 H          1 MOL1         0.0958
       5    C2      19.523664   18.834486   20.422825 C.3        1 MOL1        -0.1412
       6    H4      19.746166   18.114994   19.622491 H          1 MOL1         0.0947
       7    H5      18.814829   19.556651   19.994212 H          1 MOL1         0.0947
       8    C3      18.847586   18.074518   21.592414 C.3        1 MOL1        -0.1437
       9    H6      17.966518   17.559254   21.185523 H          1 MOL1         0.0947
      10    H7      19.511305   17.279955   21.960092 H          1 MOL1         0.0947
      11    C4      18.381024   18.973552   22.766967 C.3        1 MOL1        -0.1437
      12    H8      17.447009   18.559458   23.171243 H          1 MOL1         0.0947
      13    H9      18.132777   19.977583   22.396347 H          1 MOL1         0.0947
      14    C5      19.408615   19.061406   23.921687 C.3        1 MOL1        -0.1437
      15    H10     19.601692   18.050861   24.305243 H          1 MOL1         0.0947
      16    H11     20.367114   19.444174   23.552089 H          1 MOL1         0.0947
      17    C6      18.904211   19.971290   25.067076 C.3        1 MOL1        -0.1437
      18    H12     17.962327   19.575096   25.469474 H          1 MOL1         0.0947
      19    H13     18.668257   20.964208   24.659981 H          1 MOL1         0.0947
      20    C7      19.936181   20.140889   26.210108 C.3        1 MOL1        -0.1477
      21    H14     20.840637   20.620377   25.812733 H          1 MOL1         0.0947
      22    H15     19.531829   20.828275   26.964953 H          1 MOL1         0.0947
      23    C8      20.337614   18.818890   26.895105 C.3        1 MOL1         0.0145
      24    H16     21.082891   19.022473   27.668792 H          1 MOL1         0.0921
      25    H17     20.785490   18.143273   26.161904 H          1 MOL1         0.0921
      26    N1      19.176715   18.097973   27.550803 N.4        1 MOL1        -0.5969
      27    H18     18.730822   18.673664   28.272547 H          1 MOL1         0.3603
      28    H19     19.475097   17.226789   28.002934 H          1 MOL1         0.3603
      29    H20     18.452738   17.851881   26.868434 H          1 MOL1         0.3603
@<TRIPOS>BOND
    1     1     2    1
    2     1     3    1
    3     1     4    1
    4     1     5    1
    5     5     6    1
    6     5     7    1
    7     5     8    1
    8     8     9    1
    9     8    10    1
   10     8    11    1
   11    11    12    1
   12    11    13    1
   13    11    14    1
   14    14    15    1
   15    14    16    1
   16    14    17    1
   17    17    18    1
   18    17    19    1
   19    17    20    1
   20    20    21    1
   21    20    22    1
   22    20    23    1
   23    23    24    1
   24    23    25    1
   25    23    26    1
   26    26    27    1
   27    26    28    1
   28    26    29    1
@<TRIPOS>SUBSTRUCTURE
       1 MOL1            1 RESIDUE      1      MOL     
@<SCITEGIC>MOL_PROPERTY
VM2 Rank
SciTegic.value.IntegerValue
311

@<SCITEGIC>MOL_PROPERTY
Conf_Id
SciTegic.value.IntegerValue
2968

@<SCITEGIC>MOL_PROPERTY
Probability
SciTegic.value.DoubleValue
0.00

@<SCITEGIC>MOL_PROPERTY
Sum Probability
SciTegic.value.DoubleValue
99.69

@<SCITEGIC>MOL_PROPERTY
Delta G
SciTegic.value.DoubleValue
4.213

@<SCITEGIC>MOL_PROPERTY
G
SciTegic.value.DoubleValue
62.359

@<SCITEGIC>MOL_PROPERTY
E
SciTegic.value.DoubleValue
24.535

@<SCITEGIC>MOL_PROPERTY
-TS
SciTegic.value.DoubleValue
37.824

@<SCITEGIC>MOL_PROPERTY
U+W
SciTegic.value.DoubleValue
0.390

@<SCITEGIC>MOL_PROPERTY
U
SciTegic.value.DoubleValue
52.379

@<SCITEGIC>MOL_PROPERTY
W
SciTegic.value.DoubleValue
-51.989

@<SCITEGIC>MOL_PROPERTY
W(PB)
SciTegic.value.DoubleValue
-54.433

@<SCITEGIC>MOL_PROPERTY
W(SA)
SciTegic.value.DoubleValue
2.444

@<SCITEGIC>MOL_PROPERTY
Valence
SciTegic.value.DoubleValue
5.934

@<SCITEGIC>MOL_PROPERTY
Coulomb
SciTegic.value.DoubleValue
45.562

@<SCITEGIC>MOL_PROPERTY
VdW
SciTegic.value.DoubleValue
0.884

@<SCITEGIC>MOL_PROPERTY
VdW6
SciTegic.value.DoubleValue
-9.845

@<SCITEGIC>MOL_PROPERTY
VdW12
SciTegic.value.DoubleValue
10.729

@<SCITEGIC>MOL_PROPERTY
Bond
SciTegic.value.DoubleValue
0.276

@<SCITEGIC>MOL_PROPERTY
Angle
SciTegic.value.DoubleValue
1.390

@<SCITEGIC>MOL_PROPERTY
Pdih
SciTegic.value.DoubleValue
4.268

@<SCITEGIC>MOL_PROPERTY
Idih
SciTegic.value.DoubleValue
0.000

@<SCITEGIC>MOL_PROPERTY
Tether
SciTegic.value.DoubleValue
0.000

@<TRIPOS>MOLECULE
guest-3_vm2.mol2 : vm2 ligand conformer 312
          29          28           1
SMALL
USER_CHARGES
 
@<TRIPOS>ATOM
       1    C1      20.492082   17.819345   21.008360 C.3        1 MOL1        -0.2427
       2    H1      21.408860   18.422135   21.040139 H          1 MOL1         0.0958
       3    H2      20.299876   17.420361   22.011899 H          1 MOL1         0.0958
       4    H3      20.674900   16.963847   20.345379 H          1 MOL1         0.0958
       5    C2      19.295573   18.651247   20.497874 C.3        1 MOL1        -0.1412
       6    H4      18.382373   18.041653   20.544048 H          1 MOL1         0.0947
       7    H5      19.454293   18.881281   19.435049 H          1 MOL1         0.0947
       8    C3      19.070896   19.982071   21.260203 C.3        1 MOL1        -0.1437
       9    H6      19.937454   20.644043   21.126734 H          1 MOL1         0.0947
      10    H7      18.227836   20.498594   20.780843 H          1 MOL1         0.0947
      11    C4      18.742971   19.818911   22.767434 C.3        1 MOL1        -0.1437
      12    H8      18.226904   18.864081   22.929089 H          1 MOL1         0.0947
      13    H9      18.029469   20.603729   23.053934 H          1 MOL1         0.0947
      14    C5      19.987875   19.941552   23.684074 C.3        1 MOL1        -0.1437
      15    H10     20.727571   19.170250   23.439475 H          1 MOL1         0.0947
      16    H11     20.477565   20.904966   23.486325 H          1 MOL1         0.0947
      17    C6      19.653606   19.867503   25.194093 C.3        1 MOL1        -0.1437
      18    H12     18.909005   20.635471   25.445423 H          1 MOL1         0.0947
      19    H13     20.561308   20.121739   25.757101 H          1 MOL1         0.0947
      20    C7      19.143217   18.475837   25.645122 C.3        1 MOL1        -0.1477
      21    H14     18.213883   18.230448   25.116740 H          1 MOL1         0.0947
      22    H15     19.872952   17.701249   25.374446 H          1 MOL1         0.0947
      23    C8      18.860360   18.409164   27.158337 C.3        1 MOL1         0.0145
      24    H16     18.414199   17.440886   27.401046 H          1 MOL1         0.0921
      25    H17     18.148437   19.191597   27.434650 H          1 MOL1         0.0921
      26    N1      20.097421   18.572371   28.019503 N.4        1 MOL1        -0.5969
      27    H18     20.797154   17.849710   27.821030 H          1 MOL1         0.3603
      28    H19     19.876222   18.509347   29.019339 H          1 MOL1         0.3603
      29    H20     20.547796   19.480371   27.868305 H          1 MOL1         0.3603
@<TRIPOS>BOND
    1     1     2    1
    2     1     3    1
    3     1     4    1
    4     1     5    1
    5     5     6    1
    6     5     7    1
    7     5     8    1
    8     8     9    1
    9     8    10    1
   10     8    11    1
   11    11    12    1
   12    11    13    1
   13    11    14    1
   14    14    15    1
   15    14    16    1
   16    14    17    1
   17    17    18    1
   18    17    19    1
   19    17    20    1
   20    20    21    1
   21    20    22    1
   22    20    23    1
   23    23    24    1
   24    23    25    1
   25    23    26    1
   26    26    27    1
   27    26    28    1
   28    26    29    1
@<TRIPOS>SUBSTRUCTURE
       1 MOL1            1 RESIDUE      1      MOL     
@<SCITEGIC>MOL_PROPERTY
VM2 Rank
SciTegic.value.IntegerValue
312

@<SCITEGIC>MOL_PROPERTY
Conf_Id
SciTegic.value.IntegerValue
677

@<SCITEGIC>MOL_PROPERTY
Probability
SciTegic.value.DoubleValue
0.00

@<SCITEGIC>MOL_PROPERTY
Sum Probability
SciTegic.value.DoubleValue
99.70

@<SCITEGIC>MOL_PROPERTY
Delta G
SciTegic.value.DoubleValue
4.222

@<SCITEGIC>MOL_PROPERTY
G
SciTegic.value.DoubleValue
62.369

@<SCITEGIC>MOL_PROPERTY
E
SciTegic.value.DoubleValue
24.695

@<SCITEGIC>MOL_PROPERTY
-TS
SciTegic.value.DoubleValue
37.674

@<SCITEGIC>MOL_PROPERTY
U+W
SciTegic.value.DoubleValue
0.550

@<SCITEGIC>MOL_PROPERTY
U
SciTegic.value.DoubleValue
52.421

@<SCITEGIC>MOL_PROPERTY
W
SciTegic.value.DoubleValue
-51.871

@<SCITEGIC>MOL_PROPERTY
W(PB)
SciTegic.value.DoubleValue
-54.325

@<SCITEGIC>MOL_PROPERTY
W(SA)
SciTegic.value.DoubleValue
2.455

@<SCITEGIC>MOL_PROPERTY
Valence
SciTegic.value.DoubleValue
6.205

@<SCITEGIC>MOL_PROPERTY
Coulomb
SciTegic.value.DoubleValue
45.185

@<SCITEGIC>MOL_PROPERTY
VdW
SciTegic.value.DoubleValue
1.031

@<SCITEGIC>MOL_PROPERTY
VdW6
SciTegic.value.DoubleValue
-9.741

@<SCITEGIC>MOL_PROPERTY
VdW12
SciTegic.value.DoubleValue
10.772

@<SCITEGIC>MOL_PROPERTY
Bond
SciTegic.value.DoubleValue
0.301

@<SCITEGIC>MOL_PROPERTY
Angle
SciTegic.value.DoubleValue
1.486

@<SCITEGIC>MOL_PROPERTY
Pdih
SciTegic.value.DoubleValue
4.417

@<SCITEGIC>MOL_PROPERTY
Idih
SciTegic.value.DoubleValue
0.000

@<SCITEGIC>MOL_PROPERTY
Tether
SciTegic.value.DoubleValue
0.000

@<TRIPOS>MOLECULE
guest-3_vm2.mol2 : vm2 ligand conformer 313
          29          28           1
SMALL
USER_CHARGES
 
@<TRIPOS>ATOM
       1    C1      20.918390   19.535431   20.875105 C.3        1 MOL1        -0.2427
       2    H1      21.214917   18.484203   20.766285 H          1 MOL1         0.0958
       3    H2      21.532207   20.130948   20.187042 H          1 MOL1         0.0958
       4    H3      21.157398   19.863409   21.894183 H          1 MOL1         0.0958
       5    C2      19.418330   19.726508   20.562685 C.3        1 MOL1        -0.1412
       6    H4      19.257152   19.553581   19.489455 H          1 MOL1         0.0947
       7    H5      19.138510   20.773024   20.747546 H          1 MOL1         0.0947
       8    C3      18.475321   18.788313   21.358440 C.3        1 MOL1        -0.1437
       9    H6      17.449165   18.987240   21.019681 H          1 MOL1         0.0947
      10    H7      18.675573   17.740670   21.095203 H          1 MOL1         0.0947
      11    C4      18.520630   18.976510   22.897371 C.3        1 MOL1        -0.1437
      12    H8      17.509822   18.815134   23.296521 H          1 MOL1         0.0947
      13    H9      18.778759   20.016907   23.132759 H          1 MOL1         0.0947
      14    C5      19.482934   17.990652   23.609163 C.3        1 MOL1        -0.1437
      15    H10     19.194620   16.963367   23.347226 H          1 MOL1         0.0947
      16    H11     20.508950   18.119341   23.245003 H          1 MOL1         0.0947
      17    C6      19.468324   18.122470   25.151596 C.3        1 MOL1        -0.1437
      18    H12     20.069233   17.306315   25.576263 H          1 MOL1         0.0947
      19    H13     18.443809   17.976723   25.519242 H          1 MOL1         0.0947
      20    C7      20.029323   19.474557   25.658390 C.3        1 MOL1        -0.1477
      21    H14     21.016365   19.650096   25.210402 H          1 MOL1         0.0947
      22    H15     19.385587   20.302894   25.337063 H          1 MOL1         0.0947
      23    C8      20.174904   19.516113   27.191533 C.3        1 MOL1         0.0145
      24    H16     20.644355   20.458486   27.486614 H          1 MOL1         0.0921
      25    H17     20.817710   18.696049   27.522690 H          1 MOL1         0.0921
      26    N1      18.855844   19.407449   27.930716 N.4        1 MOL1        -0.5969
      27    H18     18.215012   20.167162   27.678998 H          1 MOL1         0.3603
      28    H19     18.984742   19.447806   28.947725 H          1 MOL1         0.3603
      29    H20     18.377111   18.525425   27.723076 H          1 MOL1         0.3603
@<TRIPOS>BOND
    1     1     2    1
    2     1     3    1
    3     1     4    1
    4     1     5    1
    5     5     6    1
    6     5     7    1
    7     5     8    1
    8     8     9    1
    9     8    10    1
   10     8    11    1
   11    11    12    1
   12    11    13    1
   13    11    14    1
   14    14    15    1
   15    14    16    1
   16    14    17    1
   17    17    18    1
   18    17    19    1
   19    17    20    1
   20    20    21    1
   21    20    22    1
   22    20    23    1
   23    23    24    1
   24    23    25    1
   25    23    26    1
   26    26    27    1
   27    26    28    1
   28    26    29    1
@<TRIPOS>SUBSTRUCTURE
       1 MOL1            1 RESIDUE      1      MOL     
@<SCITEGIC>MOL_PROPERTY
VM2 Rank
SciTegic.value.IntegerValue
313

@<SCITEGIC>MOL_PROPERTY
Conf_Id
SciTegic.value.IntegerValue
644

@<SCITEGIC>MOL_PROPERTY
Probability
SciTegic.value.DoubleValue
0.00

@<SCITEGIC>MOL_PROPERTY
Sum Probability
SciTegic.value.DoubleValue
99.70

@<SCITEGIC>MOL_PROPERTY
Delta G
SciTegic.value.DoubleValue
4.227

@<SCITEGIC>MOL_PROPERTY
G
SciTegic.value.DoubleValue
62.374

@<SCITEGIC>MOL_PROPERTY
E
SciTegic.value.DoubleValue
24.656

@<SCITEGIC>MOL_PROPERTY
-TS
SciTegic.value.DoubleValue
37.717

@<SCITEGIC>MOL_PROPERTY
U+W
SciTegic.value.DoubleValue
0.512

@<SCITEGIC>MOL_PROPERTY
U
SciTegic.value.DoubleValue
52.420

@<SCITEGIC>MOL_PROPERTY
W
SciTegic.value.DoubleValue
-51.909

@<SCITEGIC>MOL_PROPERTY
W(PB)
SciTegic.value.DoubleValue
-54.348

@<SCITEGIC>MOL_PROPERTY
W(SA)
SciTegic.value.DoubleValue
2.440

@<SCITEGIC>MOL_PROPERTY
Valence
SciTegic.value.DoubleValue
6.172

@<SCITEGIC>MOL_PROPERTY
Coulomb
SciTegic.value.DoubleValue
45.274

@<SCITEGIC>MOL_PROPERTY
VdW
SciTegic.value.DoubleValue
0.975

@<SCITEGIC>MOL_PROPERTY
VdW6
SciTegic.value.DoubleValue
-9.789

@<SCITEGIC>MOL_PROPERTY
VdW12
SciTegic.value.DoubleValue
10.764

@<SCITEGIC>MOL_PROPERTY
Bond
SciTegic.value.DoubleValue
0.295

@<SCITEGIC>MOL_PROPERTY
Angle
SciTegic.value.DoubleValue
1.438

@<SCITEGIC>MOL_PROPERTY
Pdih
SciTegic.value.DoubleValue
4.439

@<SCITEGIC>MOL_PROPERTY
Idih
SciTegic.value.DoubleValue
0.000

@<SCITEGIC>MOL_PROPERTY
Tether
SciTegic.value.DoubleValue
0.000

@<TRIPOS>MOLECULE
guest-3_vm2.mol2 : vm2 ligand conformer 314
          29          28           1
SMALL
USER_CHARGES
 
@<TRIPOS>ATOM
       1    C1      20.720813   19.238996   19.989144 C.3        1 MOL1        -0.2427
       2    H1      20.039452   19.103790   19.139043 H          1 MOL1         0.0958
       3    H2      20.903376   20.314352   20.113623 H          1 MOL1         0.0958
       4    H3      21.676096   18.762030   19.734308 H          1 MOL1         0.0958
       5    C2      20.131358   18.624479   21.276269 C.3        1 MOL1        -0.1412
       6    H4      20.856544   18.744135   22.092229 H          1 MOL1         0.0947
       7    H5      19.987056   17.544639   21.132353 H          1 MOL1         0.0947
       8    C3      18.785997   19.284655   21.658962 C.3        1 MOL1        -0.1437
       9    H6      18.937912   20.355500   21.846761 H          1 MOL1         0.0947
      10    H7      18.103343   19.225964   20.800055 H          1 MOL1         0.0947
      11    C4      18.091170   18.622419   22.877275 C.3        1 MOL1        -0.1437
      12    H8      17.815675   17.593305   22.608559 H          1 MOL1         0.0947
      13    H9      17.144107   19.144990   23.070017 H          1 MOL1         0.0947
      14    C5      18.920761   18.585107   24.187405 C.3        1 MOL1        -0.1437
      15    H10     18.315568   18.069069   24.942145 H          1 MOL1         0.0947
      16    H11     19.822980   17.976423   24.042887 H          1 MOL1         0.0947
      17    C6      19.308628   19.988204   24.717540 C.3        1 MOL1        -0.1437
      18    H12     18.397391   20.564607   24.928522 H          1 MOL1         0.0947
      19    H13     19.846309   20.538229   23.934911 H          1 MOL1         0.0947
      20    C7      20.210940   19.969319   25.977868 C.3        1 MOL1        -0.1477
      21    H14     21.154472   19.449521   25.764751 H          1 MOL1         0.0947
      22    H15     20.484867   21.007159   26.209591 H          1 MOL1         0.0947
      23    C8      19.547571   19.368424   27.234365 C.3        1 MOL1         0.0145
      24    H16     18.496414   19.665803   27.278051 H          1 MOL1         0.0921
      25    H17     20.048521   19.761183   28.123327 H          1 MOL1         0.0921
      26    N1      19.626761   17.856397   27.316174 N.4        1 MOL1        -0.5969
      27    H18     20.598030   17.528426   27.335623 H          1 MOL1         0.3603
      28    H19     19.172029   17.408054   26.515829 H          1 MOL1         0.3603
      29    H20     19.172920   17.497334   28.163372 H          1 MOL1         0.3603
@<TRIPOS>BOND
    1     1     2    1
    2     1     3    1
    3     1     4    1
    4     1     5    1
    5     5     6    1
    6     5     7    1
    7     5     8    1
    8     8     9    1
    9     8    10    1
   10     8    11    1
   11    11    12    1
   12    11    13    1
   13    11    14    1
   14    14    15    1
   15    14    16    1
   16    14    17    1
   17    17    18    1
   18    17    19    1
   19    17    20    1
   20    20    21    1
   21    20    22    1
   22    20    23    1
   23    23    24    1
   24    23    25    1
   25    23    26    1
   26    26    27    1
   27    26    28    1
   28    26    29    1
@<TRIPOS>SUBSTRUCTURE
       1 MOL1            1 RESIDUE      1      MOL     
@<SCITEGIC>MOL_PROPERTY
VM2 Rank
SciTegic.value.IntegerValue
314

@<SCITEGIC>MOL_PROPERTY
Conf_Id
SciTegic.value.IntegerValue
320

@<SCITEGIC>MOL_PROPERTY
Probability
SciTegic.value.DoubleValue
0.00

@<SCITEGIC>MOL_PROPERTY
Sum Probability
SciTegic.value.DoubleValue
99.71

@<SCITEGIC>MOL_PROPERTY
Delta G
SciTegic.value.DoubleValue
4.228

@<SCITEGIC>MOL_PROPERTY
G
SciTegic.value.DoubleValue
62.374

@<SCITEGIC>MOL_PROPERTY
E
SciTegic.value.DoubleValue
24.670

@<SCITEGIC>MOL_PROPERTY
-TS
SciTegic.value.DoubleValue
37.704

@<SCITEGIC>MOL_PROPERTY
U+W
SciTegic.value.DoubleValue
0.526

@<SCITEGIC>MOL_PROPERTY
U
SciTegic.value.DoubleValue
52.652

@<SCITEGIC>MOL_PROPERTY
W
SciTegic.value.DoubleValue
-52.126

@<SCITEGIC>MOL_PROPERTY
W(PB)
SciTegic.value.DoubleValue
-54.594

@<SCITEGIC>MOL_PROPERTY
W(SA)
SciTegic.value.DoubleValue
2.468

@<SCITEGIC>MOL_PROPERTY
Valence
SciTegic.value.DoubleValue
5.305

@<SCITEGIC>MOL_PROPERTY
Coulomb
SciTegic.value.DoubleValue
46.543

@<SCITEGIC>MOL_PROPERTY
VdW
SciTegic.value.DoubleValue
0.805

@<SCITEGIC>MOL_PROPERTY
VdW6
SciTegic.value.DoubleValue
-10.061

@<SCITEGIC>MOL_PROPERTY
VdW12
SciTegic.value.DoubleValue
10.866

@<SCITEGIC>MOL_PROPERTY
Bond
SciTegic.value.DoubleValue
0.297

@<SCITEGIC>MOL_PROPERTY
Angle
SciTegic.value.DoubleValue
1.772

@<SCITEGIC>MOL_PROPERTY
Pdih
SciTegic.value.DoubleValue
3.236

@<SCITEGIC>MOL_PROPERTY
Idih
SciTegic.value.DoubleValue
0.000

@<SCITEGIC>MOL_PROPERTY
Tether
SciTegic.value.DoubleValue
0.000

@<TRIPOS>MOLECULE
guest-3_vm2.mol2 : vm2 ligand conformer 315
          29          28           1
SMALL
USER_CHARGES
 
@<TRIPOS>ATOM
       1    C1      20.485197   19.463744   19.740339 C.3        1 MOL1        -0.2427
       2    H1      21.277630   18.709786   19.833140 H          1 MOL1         0.0958
       3    H2      20.348122   19.676712   18.672262 H          1 MOL1         0.0958
       4    H3      20.831708   20.388355   20.218075 H          1 MOL1         0.0958
       5    C2      19.163727   18.960934   20.364721 C.3        1 MOL1        -0.1412
       6    H4      18.793632   18.113634   19.770673 H          1 MOL1         0.0947
       7    H5      18.397559   19.745364   20.291414 H          1 MOL1         0.0947
       8    C3      19.308935   18.506729   21.837442 C.3        1 MOL1        -0.1437
       9    H6      18.362494   18.043397   22.142534 H          1 MOL1         0.0947
      10    H7      20.073942   17.721070   21.904343 H          1 MOL1         0.0947
      11    C4      19.661349   19.663715   22.807258 C.3        1 MOL1        -0.1437
      12    H8      18.901438   20.454092   22.737584 H          1 MOL1         0.0947
      13    H9      20.609942   20.119267   22.495369 H          1 MOL1         0.0947
      14    C5      19.811877   19.214904   24.282015 C.3        1 MOL1        -0.1437
      15    H10     20.525136   18.381301   24.341539 H          1 MOL1         0.0947
      16    H11     20.252701   20.051324   24.837610 H          1 MOL1         0.0947
      17    C6      18.471508   18.815682   24.949303 C.3        1 MOL1        -0.1437
      18    H12     17.973747   18.047039   24.345426 H          1 MOL1         0.0947
      19    H13     17.796148   19.682286   24.958950 H          1 MOL1         0.0947
      20    C7      18.614777   18.259336   26.389176 C.3        1 MOL1        -0.1477
      21    H14     17.619289   17.941552   26.726638 H          1 MOL1         0.0947
      22    H15     19.235741   17.353640   26.388908 H          1 MOL1         0.0947
      23    C8      19.157221   19.272286   27.418600 C.3        1 MOL1         0.0145
      24    H16     18.842460   18.965330   28.419688 H          1 MOL1         0.0921
      25    H17     18.739819   20.263173   27.220620 H          1 MOL1         0.0921
      26    N1      20.669410   19.380669   27.446146 N.4        1 MOL1        -0.5969
      27    H18     21.046322   19.669905   26.539121 H          1 MOL1         0.3603
      28    H19     21.109019   18.485731   27.685250 H          1 MOL1         0.3603
      29    H20     20.988921   20.065569   28.140036 H          1 MOL1         0.3603
@<TRIPOS>BOND
    1     1     2    1
    2     1     3    1
    3     1     4    1
    4     1     5    1
    5     5     6    1
    6     5     7    1
    7     5     8    1
    8     8     9    1
    9     8    10    1
   10     8    11    1
   11    11    12    1
   12    11    13    1
   13    11    14    1
   14    14    15    1
   15    14    16    1
   16    14    17    1
   17    17    18    1
   18    17    19    1
   19    17    20    1
   20    20    21    1
   21    20    22    1
   22    20    23    1
   23    23    24    1
   24    23    25    1
   25    23    26    1
   26    26    27    1
   27    26    28    1
   28    26    29    1
@<TRIPOS>SUBSTRUCTURE
       1 MOL1            1 RESIDUE      1      MOL     
@<SCITEGIC>MOL_PROPERTY
VM2 Rank
SciTegic.value.IntegerValue
315

@<SCITEGIC>MOL_PROPERTY
Conf_Id
SciTegic.value.IntegerValue
2753

@<SCITEGIC>MOL_PROPERTY
Probability
SciTegic.value.DoubleValue
0.00

@<SCITEGIC>MOL_PROPERTY
Sum Probability
SciTegic.value.DoubleValue
99.71

@<SCITEGIC>MOL_PROPERTY
Delta G
SciTegic.value.DoubleValue
4.230

@<SCITEGIC>MOL_PROPERTY
G
SciTegic.value.DoubleValue
62.377

@<SCITEGIC>MOL_PROPERTY
E
SciTegic.value.DoubleValue
24.985

@<SCITEGIC>MOL_PROPERTY
-TS
SciTegic.value.DoubleValue
37.392

@<SCITEGIC>MOL_PROPERTY
U+W
SciTegic.value.DoubleValue
0.841

@<SCITEGIC>MOL_PROPERTY
U
SciTegic.value.DoubleValue
52.756

@<SCITEGIC>MOL_PROPERTY
W
SciTegic.value.DoubleValue
-51.915

@<SCITEGIC>MOL_PROPERTY
W(PB)
SciTegic.value.DoubleValue
-54.383

@<SCITEGIC>MOL_PROPERTY
W(SA)
SciTegic.value.DoubleValue
2.468

@<SCITEGIC>MOL_PROPERTY
Valence
SciTegic.value.DoubleValue
5.463

@<SCITEGIC>MOL_PROPERTY
Coulomb
SciTegic.value.DoubleValue
46.244

@<SCITEGIC>MOL_PROPERTY
VdW
SciTegic.value.DoubleValue
1.049

@<SCITEGIC>MOL_PROPERTY
VdW6
SciTegic.value.DoubleValue
-9.558

@<SCITEGIC>MOL_PROPERTY
VdW12
SciTegic.value.DoubleValue
10.607

@<SCITEGIC>MOL_PROPERTY
Bond
SciTegic.value.DoubleValue
0.295

@<SCITEGIC>MOL_PROPERTY
Angle
SciTegic.value.DoubleValue
1.568

@<SCITEGIC>MOL_PROPERTY
Pdih
SciTegic.value.DoubleValue
3.600

@<SCITEGIC>MOL_PROPERTY
Idih
SciTegic.value.DoubleValue
0.000

@<SCITEGIC>MOL_PROPERTY
Tether
SciTegic.value.DoubleValue
0.000

@<TRIPOS>MOLECULE
guest-3_vm2.mol2 : vm2 ligand conformer 316
          29          28           1
SMALL
USER_CHARGES
 
@<TRIPOS>ATOM
       1    C1      19.361510   17.521878   20.692290 C.3        1 MOL1        -0.2427
       2    H1      19.807871   16.825687   21.414126 H          1 MOL1         0.0958
       3    H2      18.307362   17.665454   20.959365 H          1 MOL1         0.0958
       4    H3      19.388986   17.044319   19.704313 H          1 MOL1         0.0958
       5    C2      20.129469   18.862865   20.665733 C.3        1 MOL1        -0.1412
       6    H4      19.647187   19.552568   19.959043 H          1 MOL1         0.0947
       7    H5      21.141533   18.682436   20.277252 H          1 MOL1         0.0947
       8    C3      20.243960   19.531301   22.056683 C.3        1 MOL1        -0.1437
       9    H6      20.735014   18.838529   22.750111 H          1 MOL1         0.0947
      10    H7      20.912370   20.398944   21.969984 H          1 MOL1         0.0947
      11    C4      18.881355   20.005234   22.625334 C.3        1 MOL1        -0.1437
      12    H8      18.177924   19.167123   22.710760 H          1 MOL1         0.0947
      13    H9      18.435294   20.703594   21.903906 H          1 MOL1         0.0947
      14    C5      19.004783   20.724851   23.993796 C.3        1 MOL1        -0.1437
      15    H10     19.987821   21.206943   24.084902 H          1 MOL1         0.0947
      16    H11     18.271752   21.543090   24.017219 H          1 MOL1         0.0947
      17    C6      18.737480   19.824171   25.227448 C.3        1 MOL1        -0.1437
      18    H12     17.708301   19.441814   25.182864 H          1 MOL1         0.0947
      19    H13     18.790331   20.455217   26.124285 H          1 MOL1         0.0947
      20    C7      19.718739   18.635771   25.374217 C.3        1 MOL1        -0.1477
      21    H14     19.594870   17.952873   24.524633 H          1 MOL1         0.0947
      22    H15     20.755721   18.995793   25.348423 H          1 MOL1         0.0947
      23    C8      19.485741   17.827965   26.665464 C.3        1 MOL1         0.0145
      24    H16     20.130430   16.944854   26.661218 H          1 MOL1         0.0921
      25    H17     18.446360   17.491285   26.706898 H          1 MOL1         0.0921
      26    N1      19.780964   18.603966   27.934036 N.4        1 MOL1        -0.5969
      27    H18     20.753040   18.928659   27.963775 H          1 MOL1         0.3603
      28    H19     19.629303   18.033580   28.773210 H          1 MOL1         0.3603
      29    H20     19.182282   19.431086   28.020991 H          1 MOL1         0.3603
@<TRIPOS>BOND
    1     1     2    1
    2     1     3    1
    3     1     4    1
    4     1     5    1
    5     5     6    1
    6     5     7    1
    7     5     8    1
    8     8     9    1
    9     8    10    1
   10     8    11    1
   11    11    12    1
   12    11    13    1
   13    11    14    1
   14    14    15    1
   15    14    16    1
   16    14    17    1
   17    17    18    1
   18    17    19    1
   19    17    20    1
   20    20    21    1
   21    20    22    1
   22    20    23    1
   23    23    24    1
   24    23    25    1
   25    23    26    1
   26    26    27    1
   27    26    28    1
   28    26    29    1
@<TRIPOS>SUBSTRUCTURE
       1 MOL1            1 RESIDUE      1      MOL     
@<SCITEGIC>MOL_PROPERTY
VM2 Rank
SciTegic.value.IntegerValue
316

@<SCITEGIC>MOL_PROPERTY
Conf_Id
SciTegic.value.IntegerValue
509

@<SCITEGIC>MOL_PROPERTY
Probability
SciTegic.value.DoubleValue
0.00

@<SCITEGIC>MOL_PROPERTY
Sum Probability
SciTegic.value.DoubleValue
99.72

@<SCITEGIC>MOL_PROPERTY
Delta G
SciTegic.value.DoubleValue
4.233

@<SCITEGIC>MOL_PROPERTY
G
SciTegic.value.DoubleValue
62.379

@<SCITEGIC>MOL_PROPERTY
E
SciTegic.value.DoubleValue
24.633

@<SCITEGIC>MOL_PROPERTY
-TS
SciTegic.value.DoubleValue
37.746

@<SCITEGIC>MOL_PROPERTY
U+W
SciTegic.value.DoubleValue
0.488

@<SCITEGIC>MOL_PROPERTY
U
SciTegic.value.DoubleValue
52.520

@<SCITEGIC>MOL_PROPERTY
W
SciTegic.value.DoubleValue
-52.032

@<SCITEGIC>MOL_PROPERTY
W(PB)
SciTegic.value.DoubleValue
-54.435

@<SCITEGIC>MOL_PROPERTY
W(SA)
SciTegic.value.DoubleValue
2.403

@<SCITEGIC>MOL_PROPERTY
Valence
SciTegic.value.DoubleValue
6.252

@<SCITEGIC>MOL_PROPERTY
Coulomb
SciTegic.value.DoubleValue
45.283

@<SCITEGIC>MOL_PROPERTY
VdW
SciTegic.value.DoubleValue
0.985

@<SCITEGIC>MOL_PROPERTY
VdW6
SciTegic.value.DoubleValue
-9.837

@<SCITEGIC>MOL_PROPERTY
VdW12
SciTegic.value.DoubleValue
10.822

@<SCITEGIC>MOL_PROPERTY
Bond
SciTegic.value.DoubleValue
0.297

@<SCITEGIC>MOL_PROPERTY
Angle
SciTegic.value.DoubleValue
1.468

@<SCITEGIC>MOL_PROPERTY
Pdih
SciTegic.value.DoubleValue
4.487

@<SCITEGIC>MOL_PROPERTY
Idih
SciTegic.value.DoubleValue
0.000

@<SCITEGIC>MOL_PROPERTY
Tether
SciTegic.value.DoubleValue
0.000

@<TRIPOS>MOLECULE
guest-3_vm2.mol2 : vm2 ligand conformer 317
          29          28           1
SMALL
USER_CHARGES
 
@<TRIPOS>ATOM
       1    C1      21.139134   17.943602   21.694131 C.3        1 MOL1        -0.2427
       2    H1      20.991786   17.158740   22.447196 H          1 MOL1         0.0958
       3    H2      21.757786   17.524408   20.890120 H          1 MOL1         0.0958
       4    H3      21.707528   18.760959   22.154609 H          1 MOL1         0.0958
       5    C2      19.785998   18.436676   21.132755 C.3        1 MOL1        -0.1412
       6    H4      19.309257   17.611931   20.584832 H          1 MOL1         0.0947
       7    H5      19.957857   19.235531   20.397934 H          1 MOL1         0.0947
       8    C3      18.813216   18.932101   22.229113 C.3        1 MOL1        -0.1437
       9    H6      17.836628   19.132725   21.767589 H          1 MOL1         0.0947
      10    H7      18.650141   18.124429   22.953386 H          1 MOL1         0.0947
      11    C4      19.301335   20.216230   22.946579 C.3        1 MOL1        -0.1437
      12    H8      19.478958   20.994582   22.191903 H          1 MOL1         0.0947
      13    H9      20.269429   20.049914   23.432481 H          1 MOL1         0.0947
      14    C5      18.289424   20.765574   23.982786 C.3        1 MOL1        -0.1437
      15    H10     18.683887   21.705558   24.392620 H          1 MOL1         0.0947
      16    H11     17.362155   21.036398   23.459336 H          1 MOL1         0.0947
      17    C6      17.933201   19.818417   25.160916 C.3        1 MOL1        -0.1437
      18    H12     17.422909   18.917735   24.794491 H          1 MOL1         0.0947
      19    H13     17.192887   20.338157   25.784710 H          1 MOL1         0.0947
      20    C7      19.127887   19.426620   26.067447 C.3        1 MOL1        -0.1477
      21    H14     19.808048   20.280815   26.183538 H          1 MOL1         0.0947
      22    H15     18.743986   19.197788   27.070542 H          1 MOL1         0.0947
      23    C8      19.900418   18.193800   25.559567 C.3        1 MOL1         0.0145
      24    H16     20.306350   18.384695   24.564531 H          1 MOL1         0.0921
      25    H17     19.222218   17.338864   25.493305 H          1 MOL1         0.0921
      26    N1      21.053386   17.804980   26.461707 N.4        1 MOL1        -0.5969
      27    H18     21.743141   18.558921   26.545816 H          1 MOL1         0.3603
      28    H19     21.551945   16.980452   26.109583 H          1 MOL1         0.3603
      29    H20     20.735816   17.579549   27.410236 H          1 MOL1         0.3603
@<TRIPOS>BOND
    1     1     2    1
    2     1     3    1
    3     1     4    1
    4     1     5    1
    5     5     6    1
    6     5     7    1
    7     5     8    1
    8     8     9    1
    9     8    10    1
   10     8    11    1
   11    11    12    1
   12    11    13    1
   13    11    14    1
   14    14    15    1
   15    14    16    1
   16    14    17    1
   17    17    18    1
   18    17    19    1
   19    17    20    1
   20    20    21    1
   21    20    22    1
   22    20    23    1
   23    23    24    1
   24    23    25    1
   25    23    26    1
   26    26    27    1
   27    26    28    1
   28    26    29    1
@<TRIPOS>SUBSTRUCTURE
       1 MOL1            1 RESIDUE      1      MOL     
@<SCITEGIC>MOL_PROPERTY
VM2 Rank
SciTegic.value.IntegerValue
317

@<SCITEGIC>MOL_PROPERTY
Conf_Id
SciTegic.value.IntegerValue
961

@<SCITEGIC>MOL_PROPERTY
Probability
SciTegic.value.DoubleValue
0.00

@<SCITEGIC>MOL_PROPERTY
Sum Probability
SciTegic.value.DoubleValue
99.72

@<SCITEGIC>MOL_PROPERTY
Delta G
SciTegic.value.DoubleValue
4.234

@<SCITEGIC>MOL_PROPERTY
G
SciTegic.value.DoubleValue
62.380

@<SCITEGIC>MOL_PROPERTY
E
SciTegic.value.DoubleValue
24.084

@<SCITEGIC>MOL_PROPERTY
-TS
SciTegic.value.DoubleValue
38.296

@<SCITEGIC>MOL_PROPERTY
U+W
SciTegic.value.DoubleValue
-0.061

@<SCITEGIC>MOL_PROPERTY
U
SciTegic.value.DoubleValue
52.818

@<SCITEGIC>MOL_PROPERTY
W
SciTegic.value.DoubleValue
-52.879

@<SCITEGIC>MOL_PROPERTY
W(PB)
SciTegic.value.DoubleValue
-55.252

@<SCITEGIC>MOL_PROPERTY
W(SA)
SciTegic.value.DoubleValue
2.373

@<SCITEGIC>MOL_PROPERTY
Valence
SciTegic.value.DoubleValue
5.947

@<SCITEGIC>MOL_PROPERTY
Coulomb
SciTegic.value.DoubleValue
46.653

@<SCITEGIC>MOL_PROPERTY
VdW
SciTegic.value.DoubleValue
0.217

@<SCITEGIC>MOL_PROPERTY
VdW6
SciTegic.value.DoubleValue
-11.208

@<SCITEGIC>MOL_PROPERTY
VdW12
SciTegic.value.DoubleValue
11.426

@<SCITEGIC>MOL_PROPERTY
Bond
SciTegic.value.DoubleValue
0.301

@<SCITEGIC>MOL_PROPERTY
Angle
SciTegic.value.DoubleValue
1.903

@<SCITEGIC>MOL_PROPERTY
Pdih
SciTegic.value.DoubleValue
3.744

@<SCITEGIC>MOL_PROPERTY
Idih
SciTegic.value.DoubleValue
0.000

@<SCITEGIC>MOL_PROPERTY
Tether
SciTegic.value.DoubleValue
0.000

@<TRIPOS>MOLECULE
guest-3_vm2.mol2 : vm2 ligand conformer 318
          29          28           1
SMALL
USER_CHARGES
 
@<TRIPOS>ATOM
       1    C1      20.808362   19.432529   20.600081 C.3        1 MOL1        -0.2427
       2    H1      20.231391   19.832294   19.756140 H          1 MOL1         0.0958
       3    H2      20.893069   20.217542   21.361870 H          1 MOL1         0.0958
       4    H3      21.821243   19.210555   20.240047 H          1 MOL1         0.0958
       5    C2      20.145700   18.158926   21.171700 C.3        1 MOL1        -0.1412
       6    H4      20.728652   17.789396   22.025796 H          1 MOL1         0.0947
       7    H5      20.190348   17.365875   20.412291 H          1 MOL1         0.0947
       8    C3      18.665336   18.365619   21.581912 C.3        1 MOL1        -0.1437
       9    H6      18.080514   18.614635   20.685772 H          1 MOL1         0.0947
      10    H7      18.262884   17.410849   21.947309 H          1 MOL1         0.0947
      11    C4      18.420988   19.458988   22.653869 C.3        1 MOL1        -0.1437
      12    H8      17.340894   19.518843   22.846279 H          1 MOL1         0.0947
      13    H9      18.712093   20.441268   22.258764 H          1 MOL1         0.0947
      14    C5      19.156240   19.191320   23.988643 C.3        1 MOL1        -0.1437
      15    H10     18.892108   18.186429   24.339929 H          1 MOL1         0.0947
      16    H11     20.241744   19.211269   23.825138 H          1 MOL1         0.0947
      17    C6      18.783732   20.238106   25.064896 C.3        1 MOL1        -0.1437
      18    H12     17.718868   20.140983   25.317934 H          1 MOL1         0.0947
      19    H13     18.907068   21.243870   24.639883 H          1 MOL1         0.0947
      20    C7      19.631122   20.155286   26.360201 C.3        1 MOL1        -0.1477
      21    H14     20.693759   20.313093   26.132662 H          1 MOL1         0.0947
      22    H15     19.334923   20.989613   27.009811 H          1 MOL1         0.0947
      23    C8      19.450487   18.849266   27.161210 C.3        1 MOL1         0.0145
      24    H16     18.398154   18.552884   27.155760 H          1 MOL1         0.0921
      25    H17     19.748527   19.023764   28.198606 H          1 MOL1         0.0921
      26    N1      20.282034   17.687961   26.652488 N.4        1 MOL1        -0.5969
      27    H18     20.056438   17.457177   25.680768 H          1 MOL1         0.3603
      28    H19     20.130883   16.839635   27.209424 H          1 MOL1         0.3603
      29    H20     21.285440   17.895534   26.690136 H          1 MOL1         0.3603
@<TRIPOS>BOND
    1     1     2    1
    2     1     3    1
    3     1     4    1
    4     1     5    1
    5     5     6    1
    6     5     7    1
    7     5     8    1
    8     8     9    1
    9     8    10    1
   10     8    11    1
   11    11    12    1
   12    11    13    1
   13    11    14    1
   14    14    15    1
   15    14    16    1
   16    14    17    1
   17    17    18    1
   18    17    19    1
   19    17    20    1
   20    20    21    1
   21    20    22    1
   22    20    23    1
   23    23    24    1
   24    23    25    1
   25    23    26    1
   26    26    27    1
   27    26    28    1
   28    26    29    1
@<TRIPOS>SUBSTRUCTURE
       1 MOL1            1 RESIDUE      1      MOL     
@<SCITEGIC>MOL_PROPERTY
VM2 Rank
SciTegic.value.IntegerValue
318

@<SCITEGIC>MOL_PROPERTY
Conf_Id
SciTegic.value.IntegerValue
829

@<SCITEGIC>MOL_PROPERTY
Probability
SciTegic.value.DoubleValue
0.00

@<SCITEGIC>MOL_PROPERTY
Sum Probability
SciTegic.value.DoubleValue
99.72

@<SCITEGIC>MOL_PROPERTY
Delta G
SciTegic.value.DoubleValue
4.237

@<SCITEGIC>MOL_PROPERTY
G
SciTegic.value.DoubleValue
62.383

@<SCITEGIC>MOL_PROPERTY
E
SciTegic.value.DoubleValue
24.599

@<SCITEGIC>MOL_PROPERTY
-TS
SciTegic.value.DoubleValue
37.784

@<SCITEGIC>MOL_PROPERTY
U+W
SciTegic.value.DoubleValue
0.454

@<SCITEGIC>MOL_PROPERTY
U
SciTegic.value.DoubleValue
52.666

@<SCITEGIC>MOL_PROPERTY
W
SciTegic.value.DoubleValue
-52.211

@<SCITEGIC>MOL_PROPERTY
W(PB)
SciTegic.value.DoubleValue
-54.642

@<SCITEGIC>MOL_PROPERTY
W(SA)
SciTegic.value.DoubleValue
2.431

@<SCITEGIC>MOL_PROPERTY
Valence
SciTegic.value.DoubleValue
5.120

@<SCITEGIC>MOL_PROPERTY
Coulomb
SciTegic.value.DoubleValue
46.798

@<SCITEGIC>MOL_PROPERTY
VdW
SciTegic.value.DoubleValue
0.748

@<SCITEGIC>MOL_PROPERTY
VdW6
SciTegic.value.DoubleValue
-10.097

@<SCITEGIC>MOL_PROPERTY
VdW12
SciTegic.value.DoubleValue
10.844

@<SCITEGIC>MOL_PROPERTY
Bond
SciTegic.value.DoubleValue
0.281

@<SCITEGIC>MOL_PROPERTY
Angle
SciTegic.value.DoubleValue
1.589

@<SCITEGIC>MOL_PROPERTY
Pdih
SciTegic.value.DoubleValue
3.250

@<SCITEGIC>MOL_PROPERTY
Idih
SciTegic.value.DoubleValue
0.000

@<SCITEGIC>MOL_PROPERTY
Tether
SciTegic.value.DoubleValue
0.000

@<TRIPOS>MOLECULE
guest-3_vm2.mol2 : vm2 ligand conformer 319
          29          28           1
SMALL
USER_CHARGES
 
@<TRIPOS>ATOM
       1    C1      20.687618   17.870425   21.053673 C.3        1 MOL1        -0.2427
       2    H1      20.598393   16.968104   20.435018 H          1 MOL1         0.0958
       3    H2      21.677860   18.305647   20.866515 H          1 MOL1         0.0958
       4    H3      20.649672   17.558155   22.103002 H          1 MOL1         0.0958
       5    C2      19.567561   18.878067   20.704464 C.3        1 MOL1        -0.1412
       6    H4      18.580728   18.410961   20.829081 H          1 MOL1         0.0947
       7    H5      19.653598   19.122311   19.636383 H          1 MOL1         0.0947
       8    C3      19.647353   20.194540   21.519542 C.3        1 MOL1        -0.1437
       9    H6      20.690904   20.415923   21.782421 H          1 MOL1         0.0947
      10    H7      19.325209   21.019231   20.868811 H          1 MOL1         0.0947
      11    C4      18.758718   20.229597   22.789709 C.3        1 MOL1        -0.1437
      12    H8      17.704880   20.115422   22.500608 H          1 MOL1         0.0947
      13    H9      18.845426   21.227304   23.241667 H          1 MOL1         0.0947
      14    C5      19.119185   19.163816   23.849979 C.3        1 MOL1        -0.1437
      15    H10     18.905823   18.163228   23.452434 H          1 MOL1         0.0947
      16    H11     20.196433   19.210005   24.057144 H          1 MOL1         0.0947
      17    C6      18.318620   19.364098   25.158881 C.3        1 MOL1        -0.1437
      18    H12     17.244734   19.370835   24.926377 H          1 MOL1         0.0947
      19    H13     18.544448   20.350332   25.585946 H          1 MOL1         0.0947
      20    C7      18.588030   18.260074   26.211859 C.3        1 MOL1        -0.1477
      21    H14     17.962336   18.441214   27.095876 H          1 MOL1         0.0947
      22    H15     18.272316   17.289331   25.807093 H          1 MOL1         0.0947
      23    C8      20.062995   18.156868   26.649928 C.3        1 MOL1         0.0145
      24    H16     20.690970   17.929596   25.784685 H          1 MOL1         0.0921
      25    H17     20.171433   17.342506   27.371407 H          1 MOL1         0.0921
      26    N1      20.593920   19.420514   27.296967 N.4        1 MOL1        -0.5969
      27    H18     20.546411   20.219592   26.657011 H          1 MOL1         0.3603
      28    H19     21.573891   19.319744   27.583160 H          1 MOL1         0.3603
      29    H20     20.060165   19.670905   28.135756 H          1 MOL1         0.3603
@<TRIPOS>BOND
    1     1     2    1
    2     1     3    1
    3     1     4    1
    4     1     5    1
    5     5     6    1
    6     5     7    1
    7     5     8    1
    8     8     9    1
    9     8    10    1
   10     8    11    1
   11    11    12    1
   12    11    13    1
   13    11    14    1
   14    14    15    1
   15    14    16    1
   16    14    17    1
   17    17    18    1
   18    17    19    1
   19    17    20    1
   20    20    21    1
   21    20    22    1
   22    20    23    1
   23    23    24    1
   24    23    25    1
   25    23    26    1
   26    26    27    1
   27    26    28    1
   28    26    29    1
@<TRIPOS>SUBSTRUCTURE
       1 MOL1            1 RESIDUE      1      MOL     
@<SCITEGIC>MOL_PROPERTY
VM2 Rank
SciTegic.value.IntegerValue
319

@<SCITEGIC>MOL_PROPERTY
Conf_Id
SciTegic.value.IntegerValue
1290

@<SCITEGIC>MOL_PROPERTY
Probability
SciTegic.value.DoubleValue
0.00

@<SCITEGIC>MOL_PROPERTY
Sum Probability
SciTegic.value.DoubleValue
99.73

@<SCITEGIC>MOL_PROPERTY
Delta G
SciTegic.value.DoubleValue
4.243

@<SCITEGIC>MOL_PROPERTY
G
SciTegic.value.DoubleValue
62.389

@<SCITEGIC>MOL_PROPERTY
E
SciTegic.value.DoubleValue
24.564

@<SCITEGIC>MOL_PROPERTY
-TS
SciTegic.value.DoubleValue
37.825

@<SCITEGIC>MOL_PROPERTY
U+W
SciTegic.value.DoubleValue
0.420

@<SCITEGIC>MOL_PROPERTY
U
SciTegic.value.DoubleValue
52.518

@<SCITEGIC>MOL_PROPERTY
W
SciTegic.value.DoubleValue
-52.098

@<SCITEGIC>MOL_PROPERTY
W(PB)
SciTegic.value.DoubleValue
-54.555

@<SCITEGIC>MOL_PROPERTY
W(SA)
SciTegic.value.DoubleValue
2.457

@<SCITEGIC>MOL_PROPERTY
Valence
SciTegic.value.DoubleValue
5.952

@<SCITEGIC>MOL_PROPERTY
Coulomb
SciTegic.value.DoubleValue
45.696

@<SCITEGIC>MOL_PROPERTY
VdW
SciTegic.value.DoubleValue
0.869

@<SCITEGIC>MOL_PROPERTY
VdW6
SciTegic.value.DoubleValue
-9.888

@<SCITEGIC>MOL_PROPERTY
VdW12
SciTegic.value.DoubleValue
10.757

@<SCITEGIC>MOL_PROPERTY
Bond
SciTegic.value.DoubleValue
0.275

@<SCITEGIC>MOL_PROPERTY
Angle
SciTegic.value.DoubleValue
1.422

@<SCITEGIC>MOL_PROPERTY
Pdih
SciTegic.value.DoubleValue
4.256

@<SCITEGIC>MOL_PROPERTY
Idih
SciTegic.value.DoubleValue
0.000

@<SCITEGIC>MOL_PROPERTY
Tether
SciTegic.value.DoubleValue
0.000

@<TRIPOS>MOLECULE
guest-3_vm2.mol2 : vm2 ligand conformer 320
          29          28           1
SMALL
USER_CHARGES
 
@<TRIPOS>ATOM
       1    C1      21.503091   18.964665   21.717871 C.3        1 MOL1        -0.2427
       2    H1      21.420390   17.954837   22.138097 H          1 MOL1         0.0958
       3    H2      22.258950   18.929563   20.922677 H          1 MOL1         0.0958
       4    H3      21.874069   19.635878   22.503159 H          1 MOL1         0.0958
       5    C2      20.151053   19.460078   21.155904 C.3        1 MOL1        -0.1412
       6    H4      19.790018   18.761928   20.387850 H          1 MOL1         0.0947
       7    H5      20.310698   20.421194   20.647498 H          1 MOL1         0.0947
       8    C3      19.068374   19.648383   22.244983 C.3        1 MOL1        -0.1437
       9    H6      19.442073   20.347999   23.002864 H          1 MOL1         0.0947
      10    H7      18.191594   20.128586   21.789306 H          1 MOL1         0.0947
      11    C4      18.624515   18.317809   22.904203 C.3        1 MOL1        -0.1437
      12    H8      19.472739   17.815221   23.382622 H          1 MOL1         0.0947
      13    H9      18.280646   17.633069   22.116927 H          1 MOL1         0.0947
      14    C5      17.478736   18.491569   23.932046 C.3        1 MOL1        -0.1437
      15    H10     16.596593   18.889026   23.411446 H          1 MOL1         0.0947
      16    H11     17.184195   17.498645   24.298765 H          1 MOL1         0.0947
      17    C6      17.785089   19.403018   25.151640 C.3        1 MOL1        -0.1437
      18    H12     16.874281   19.444164   25.764869 H          1 MOL1         0.0947
      19    H13     17.964317   20.437078   24.828392 H          1 MOL1         0.0947
      20    C7      18.945612   18.915015   26.055862 C.3        1 MOL1        -0.1477
      21    H14     18.778860   19.295045   27.072580 H          1 MOL1         0.0947
      22    H15     18.930883   17.819449   26.128406 H          1 MOL1         0.0947
      23    C8      20.330557   19.400716   25.586165 C.3        1 MOL1         0.0145
      24    H16     20.346627   20.493644   25.563581 H          1 MOL1         0.0921
      25    H17     20.538183   19.035952   24.578616 H          1 MOL1         0.0921
      26    N1      21.456971   18.936746   26.486326 N.4        1 MOL1        -0.5969
      27    H18     21.340257   19.274176   27.447522 H          1 MOL1         0.3603
      28    H19     22.369373   19.273579   26.160040 H          1 MOL1         0.3603
      29    H20     21.513478   17.913949   26.530528 H          1 MOL1         0.3603
@<TRIPOS>BOND
    1     1     2    1
    2     1     3    1
    3     1     4    1
    4     1     5    1
    5     5     6    1
    6     5     7    1
    7     5     8    1
    8     8     9    1
    9     8    10    1
   10     8    11    1
   11    11    12    1
   12    11    13    1
   13    11    14    1
   14    14    15    1
   15    14    16    1
   16    14    17    1
   17    17    18    1
   18    17    19    1
   19    17    20    1
   20    20    21    1
   21    20    22    1
   22    20    23    1
   23    23    24    1
   24    23    25    1
   25    23    26    1
   26    26    27    1
   27    26    28    1
   28    26    29    1
@<TRIPOS>SUBSTRUCTURE
       1 MOL1            1 RESIDUE      1      MOL     
@<SCITEGIC>MOL_PROPERTY
VM2 Rank
SciTegic.value.IntegerValue
320

@<SCITEGIC>MOL_PROPERTY
Conf_Id
SciTegic.value.IntegerValue
271

@<SCITEGIC>MOL_PROPERTY
Probability
SciTegic.value.DoubleValue
0.00

@<SCITEGIC>MOL_PROPERTY
Sum Probability
SciTegic.value.DoubleValue
99.73

@<SCITEGIC>MOL_PROPERTY
Delta G
SciTegic.value.DoubleValue
4.245

@<SCITEGIC>MOL_PROPERTY
G
SciTegic.value.DoubleValue
62.391

@<SCITEGIC>MOL_PROPERTY
E
SciTegic.value.DoubleValue
24.095

@<SCITEGIC>MOL_PROPERTY
-TS
SciTegic.value.DoubleValue
38.297

@<SCITEGIC>MOL_PROPERTY
U+W
SciTegic.value.DoubleValue
-0.050

@<SCITEGIC>MOL_PROPERTY
U
SciTegic.value.DoubleValue
52.819

@<SCITEGIC>MOL_PROPERTY
W
SciTegic.value.DoubleValue
-52.869

@<SCITEGIC>MOL_PROPERTY
W(PB)
SciTegic.value.DoubleValue
-55.238

@<SCITEGIC>MOL_PROPERTY
W(SA)
SciTegic.value.DoubleValue
2.370

@<SCITEGIC>MOL_PROPERTY
Valence
SciTegic.value.DoubleValue
5.947

@<SCITEGIC>MOL_PROPERTY
Coulomb
SciTegic.value.DoubleValue
46.654

@<SCITEGIC>MOL_PROPERTY
VdW
SciTegic.value.DoubleValue
0.217

@<SCITEGIC>MOL_PROPERTY
VdW6
SciTegic.value.DoubleValue
-11.210

@<SCITEGIC>MOL_PROPERTY
VdW12
SciTegic.value.DoubleValue
11.428

@<SCITEGIC>MOL_PROPERTY
Bond
SciTegic.value.DoubleValue
0.301

@<SCITEGIC>MOL_PROPERTY
Angle
SciTegic.value.DoubleValue
1.903

@<SCITEGIC>MOL_PROPERTY
Pdih
SciTegic.value.DoubleValue
3.744

@<SCITEGIC>MOL_PROPERTY
Idih
SciTegic.value.DoubleValue
0.000

@<SCITEGIC>MOL_PROPERTY
Tether
SciTegic.value.DoubleValue
0.000

@<TRIPOS>MOLECULE
guest-3_vm2.mol2 : vm2 ligand conformer 321
          29          28           1
SMALL
USER_CHARGES
 
@<TRIPOS>ATOM
       1    C1      20.800122   17.986276   20.411494 C.3        1 MOL1        -0.2427
       2    H1      21.739143   18.550383   20.484005 H          1 MOL1         0.0958
       3    H2      20.913118   17.058430   20.987309 H          1 MOL1         0.0958
       4    H3      20.651198   17.713531   19.358657 H          1 MOL1         0.0958
       5    C2      19.610462   18.820608   20.931599 C.3        1 MOL1        -0.1412
       6    H4      18.682309   18.243493   20.816099 H          1 MOL1         0.0947
       7    H5      19.501357   19.723667   20.314799 H          1 MOL1         0.0947
       8    C3      19.795514   19.218614   22.412469 C.3        1 MOL1        -0.1437
       9    H6      19.918926   18.310099   23.011813 H          1 MOL1         0.0947
      10    H7      20.723436   19.796962   22.520023 H          1 MOL1         0.0947
      11    C4      18.602433   20.055950   22.934369 C.3        1 MOL1        -0.1437
      12    H8      17.664233   19.495172   22.823537 H          1 MOL1         0.0947
      13    H9      18.503061   20.941846   22.291911 H          1 MOL1         0.0947
      14    C5      18.765446   20.538148   24.399798 C.3        1 MOL1        -0.1437
      15    H10     19.823495   20.723239   24.628023 H          1 MOL1         0.0947
      16    H11     18.275132   21.517774   24.485345 H          1 MOL1         0.0947
      17    C6      18.123911   19.611739   25.467890 C.3        1 MOL1        -0.1437
      18    H12     17.052644   19.503218   25.249516 H          1 MOL1         0.0947
      19    H13     18.174040   20.115318   26.442586 H          1 MOL1         0.0947
      20    C7      18.750832   18.200842   25.599423 C.3        1 MOL1        -0.1477
      21    H14     18.241505   17.656015   26.405287 H          1 MOL1         0.0947
      22    H15     18.558038   17.625295   24.685843 H          1 MOL1         0.0947
      23    C8      20.266050   18.215191   25.885372 C.3        1 MOL1         0.0145
      24    H16     20.789343   18.735958   25.079495 H          1 MOL1         0.0921
      25    H17     20.638533   17.188050   25.926251 H          1 MOL1         0.0921
      26    N1      20.629230   18.890631   27.192586 N.4        1 MOL1        -0.5969
      27    H18     21.641578   18.882695   27.358072 H          1 MOL1         0.3603
      28    H19     20.189962   18.426920   27.994509 H          1 MOL1         0.3603
      29    H20     20.328023   19.870064   27.206276 H          1 MOL1         0.3603
@<TRIPOS>BOND
    1     1     2    1
    2     1     3    1
    3     1     4    1
    4     1     5    1
    5     5     6    1
    6     5     7    1
    7     5     8    1
    8     8     9    1
    9     8    10    1
   10     8    11    1
   11    11    12    1
   12    11    13    1
   13    11    14    1
   14    14    15    1
   15    14    16    1
   16    14    17    1
   17    17    18    1
   18    17    19    1
   19    17    20    1
   20    20    21    1
   21    20    22    1
   22    20    23    1
   23    23    24    1
   24    23    25    1
   25    23    26    1
   26    26    27    1
   27    26    28    1
   28    26    29    1
@<TRIPOS>SUBSTRUCTURE
       1 MOL1            1 RESIDUE      1      MOL     
@<SCITEGIC>MOL_PROPERTY
VM2 Rank
SciTegic.value.IntegerValue
321

@<SCITEGIC>MOL_PROPERTY
Conf_Id
SciTegic.value.IntegerValue
321

@<SCITEGIC>MOL_PROPERTY
Probability
SciTegic.value.DoubleValue
0.00

@<SCITEGIC>MOL_PROPERTY
Sum Probability
SciTegic.value.DoubleValue
99.74

@<SCITEGIC>MOL_PROPERTY
Delta G
SciTegic.value.DoubleValue
4.249

@<SCITEGIC>MOL_PROPERTY
G
SciTegic.value.DoubleValue
62.395

@<SCITEGIC>MOL_PROPERTY
E
SciTegic.value.DoubleValue
24.319

@<SCITEGIC>MOL_PROPERTY
-TS
SciTegic.value.DoubleValue
38.076

@<SCITEGIC>MOL_PROPERTY
U+W
SciTegic.value.DoubleValue
0.175

@<SCITEGIC>MOL_PROPERTY
U
SciTegic.value.DoubleValue
52.559

@<SCITEGIC>MOL_PROPERTY
W
SciTegic.value.DoubleValue
-52.384

@<SCITEGIC>MOL_PROPERTY
W(PB)
SciTegic.value.DoubleValue
-54.811

@<SCITEGIC>MOL_PROPERTY
W(SA)
SciTegic.value.DoubleValue
2.427

@<SCITEGIC>MOL_PROPERTY
Valence
SciTegic.value.DoubleValue
5.998

@<SCITEGIC>MOL_PROPERTY
Coulomb
SciTegic.value.DoubleValue
46.093

@<SCITEGIC>MOL_PROPERTY
VdW
SciTegic.value.DoubleValue
0.468

@<SCITEGIC>MOL_PROPERTY
VdW6
SciTegic.value.DoubleValue
-10.461

@<SCITEGIC>MOL_PROPERTY
VdW12
SciTegic.value.DoubleValue
10.929

@<SCITEGIC>MOL_PROPERTY
Bond
SciTegic.value.DoubleValue
0.286

@<SCITEGIC>MOL_PROPERTY
Angle
SciTegic.value.DoubleValue
1.671

@<SCITEGIC>MOL_PROPERTY
Pdih
SciTegic.value.DoubleValue
4.041

@<SCITEGIC>MOL_PROPERTY
Idih
SciTegic.value.DoubleValue
0.000

@<SCITEGIC>MOL_PROPERTY
Tether
SciTegic.value.DoubleValue
0.000

@<TRIPOS>MOLECULE
guest-3_vm2.mol2 : vm2 ligand conformer 322
          29          28           1
SMALL
USER_CHARGES
 
@<TRIPOS>ATOM
       1    C1      20.798165   19.438391   20.260137 C.3        1 MOL1        -0.2427
       2    H1      21.692583   19.483614   20.894944 H          1 MOL1         0.0958
       3    H2      21.126630   19.251039   19.229643 H          1 MOL1         0.0958
       4    H3      20.313150   20.422293   20.278360 H          1 MOL1         0.0958
       5    C2      19.837292   18.324068   20.732753 C.3        1 MOL1        -0.1412
       6    H4      20.325065   17.349983   20.588017 H          1 MOL1         0.0947
       7    H5      18.940184   18.316027   20.098060 H          1 MOL1         0.0947
       8    C3      19.426379   18.458582   22.218702 C.3        1 MOL1        -0.1437
       9    H6      18.827833   17.580279   22.496459 H          1 MOL1         0.0947
      10    H7      20.330062   18.437295   22.841646 H          1 MOL1         0.0947
      11    C4      18.613018   19.741875   22.516107 C.3        1 MOL1        -0.1437
      12    H8      17.801236   19.827886   21.780824 H          1 MOL1         0.0947
      13    H9      19.249350   20.625664   22.375853 H          1 MOL1         0.0947
      14    C5      17.990975   19.788188   23.935624 C.3        1 MOL1        -0.1437
      15    H10     17.395320   20.709004   24.004298 H          1 MOL1         0.0947
      16    H11     17.275893   18.963839   24.063222 H          1 MOL1         0.0947
      17    C6      19.021719   19.793085   25.094572 C.3        1 MOL1        -0.1437
      18    H12     18.635984   20.441937   25.892187 H          1 MOL1         0.0947
      19    H13     19.963479   20.249367   24.759478 H          1 MOL1         0.0947
      20    C7      19.285441   18.386390   25.689449 C.3        1 MOL1        -0.1477
      21    H14     18.355455   17.977689   26.106468 H          1 MOL1         0.0947
      22    H15     19.599585   17.693022   24.901428 H          1 MOL1         0.0947
      23    C8      20.372797   18.398908   26.780943 C.3        1 MOL1         0.0145
      24    H16     21.299428   18.811018   26.372407 H          1 MOL1         0.0921
      25    H17     20.570077   17.374447   27.108193 H          1 MOL1         0.0921
      26    N1      19.998215   19.208512   28.006714 N.4        1 MOL1        -0.5969
      27    H18     19.833493   20.193047   27.774777 H          1 MOL1         0.3603
      28    H19     20.737209   19.186596   28.718018 H          1 MOL1         0.3603
      29    H20     19.144385   18.854230   28.450238 H          1 MOL1         0.3603
@<TRIPOS>BOND
    1     1     2    1
    2     1     3    1
    3     1     4    1
    4     1     5    1
    5     5     6    1
    6     5     7    1
    7     5     8    1
    8     8     9    1
    9     8    10    1
   10     8    11    1
   11    11    12    1
   12    11    13    1
   13    11    14    1
   14    14    15    1
   15    14    16    1
   16    14    17    1
   17    17    18    1
   18    17    19    1
   19    17    20    1
   20    20    21    1
   21    20    22    1
   22    20    23    1
   23    23    24    1
   24    23    25    1
   25    23    26    1
   26    26    27    1
   27    26    28    1
   28    26    29    1
@<TRIPOS>SUBSTRUCTURE
       1 MOL1            1 RESIDUE      1      MOL     
@<SCITEGIC>MOL_PROPERTY
VM2 Rank
SciTegic.value.IntegerValue
322

@<SCITEGIC>MOL_PROPERTY
Conf_Id
SciTegic.value.IntegerValue
329

@<SCITEGIC>MOL_PROPERTY
Probability
SciTegic.value.DoubleValue
0.00

@<SCITEGIC>MOL_PROPERTY
Sum Probability
SciTegic.value.DoubleValue
99.74

@<SCITEGIC>MOL_PROPERTY
Delta G
SciTegic.value.DoubleValue
4.255

@<SCITEGIC>MOL_PROPERTY
G
SciTegic.value.DoubleValue
62.401

@<SCITEGIC>MOL_PROPERTY
E
SciTegic.value.DoubleValue
24.592

@<SCITEGIC>MOL_PROPERTY
-TS
SciTegic.value.DoubleValue
37.809

@<SCITEGIC>MOL_PROPERTY
U+W
SciTegic.value.DoubleValue
0.447

@<SCITEGIC>MOL_PROPERTY
U
SciTegic.value.DoubleValue
52.441

@<SCITEGIC>MOL_PROPERTY
W
SciTegic.value.DoubleValue
-51.994

@<SCITEGIC>MOL_PROPERTY
W(PB)
SciTegic.value.DoubleValue
-54.440

@<SCITEGIC>MOL_PROPERTY
W(SA)
SciTegic.value.DoubleValue
2.447

@<SCITEGIC>MOL_PROPERTY
Valence
SciTegic.value.DoubleValue
6.199

@<SCITEGIC>MOL_PROPERTY
Coulomb
SciTegic.value.DoubleValue
45.232

@<SCITEGIC>MOL_PROPERTY
VdW
SciTegic.value.DoubleValue
1.010

@<SCITEGIC>MOL_PROPERTY
VdW6
SciTegic.value.DoubleValue
-9.757

@<SCITEGIC>MOL_PROPERTY
VdW12
SciTegic.value.DoubleValue
10.767

@<SCITEGIC>MOL_PROPERTY
Bond
SciTegic.value.DoubleValue
0.290

@<SCITEGIC>MOL_PROPERTY
Angle
SciTegic.value.DoubleValue
1.372

@<SCITEGIC>MOL_PROPERTY
Pdih
SciTegic.value.DoubleValue
4.538

@<SCITEGIC>MOL_PROPERTY
Idih
SciTegic.value.DoubleValue
0.000

@<SCITEGIC>MOL_PROPERTY
Tether
SciTegic.value.DoubleValue
0.000

@<TRIPOS>MOLECULE
guest-3_vm2.mol2 : vm2 ligand conformer 323
          29          28           1
SMALL
USER_CHARGES
 
@<TRIPOS>ATOM
       1    C1      21.110649   18.269479   20.415417 C.3        1 MOL1        -0.2427
       2    H1      21.634528   19.143956   20.007906 H          1 MOL1         0.0958
       3    H2      21.756379   17.805992   21.172672 H          1 MOL1         0.0958
       4    H3      20.975768   17.547344   19.599720 H          1 MOL1         0.0958
       5    C2      19.747944   18.670165   21.019156 C.3        1 MOL1        -0.1412
       6    H4      19.237092   17.767027   21.377099 H          1 MOL1         0.0947
       7    H5      19.114379   19.100581   20.231143 H          1 MOL1         0.0947
       8    C3      19.913381   19.690246   22.170889 C.3        1 MOL1        -0.1437
       9    H6      20.541954   19.256758   22.957557 H          1 MOL1         0.0947
      10    H7      20.460418   20.563369   21.789366 H          1 MOL1         0.0947
      11    C4      18.563116   20.179019   22.757549 C.3        1 MOL1        -0.1437
      12    H8      17.925951   20.509314   21.925577 H          1 MOL1         0.0947
      13    H9      18.732191   21.075573   23.369568 H          1 MOL1         0.0947
      14    C5      17.789420   19.122441   23.592739 C.3        1 MOL1        -0.1437
      15    H10     16.714723   19.276793   23.424012 H          1 MOL1         0.0947
      16    H11     17.999339   18.107136   23.234424 H          1 MOL1         0.0947
      17    C6      18.035376   19.200099   25.121590 C.3        1 MOL1        -0.1437
      18    H12     17.383145   18.464828   25.613164 H          1 MOL1         0.0947
      19    H13     17.720023   20.184810   25.493615 H          1 MOL1         0.0947
      20    C7      19.497482   18.934714   25.545668 C.3        1 MOL1        -0.1477
      21    H14     19.846474   17.991865   25.103984 H          1 MOL1         0.0947
      22    H15     20.145697   19.735689   25.168963 H          1 MOL1         0.0947
      23    C8      19.632810   18.863984   27.076705 C.3        1 MOL1         0.0145
      24    H16     19.002797   18.059325   27.465335 H          1 MOL1         0.0921
      25    H17     19.299866   19.806518   27.519670 H          1 MOL1         0.0921
      26    N1      21.053821   18.607852   27.535288 N.4        1 MOL1        -0.5969
      27    H18     21.417565   17.720015   27.173506 H          1 MOL1         0.3603
      28    H19     21.121505   18.563923   28.558128 H          1 MOL1         0.3603
      29    H20     21.694261   19.346073   27.224994 H          1 MOL1         0.3603
@<TRIPOS>BOND
    1     1     2    1
    2     1     3    1
    3     1     4    1
    4     1     5    1
    5     5     6    1
    6     5     7    1
    7     5     8    1
    8     8     9    1
    9     8    10    1
   10     8    11    1
   11    11    12    1
   12    11    13    1
   13    11    14    1
   14    14    15    1
   15    14    16    1
   16    14    17    1
   17    17    18    1
   18    17    19    1
   19    17    20    1
   20    20    21    1
   21    20    22    1
   22    20    23    1
   23    23    24    1
   24    23    25    1
   25    23    26    1
   26    26    27    1
   27    26    28    1
   28    26    29    1
@<TRIPOS>SUBSTRUCTURE
       1 MOL1            1 RESIDUE      1      MOL     
@<SCITEGIC>MOL_PROPERTY
VM2 Rank
SciTegic.value.IntegerValue
323

@<SCITEGIC>MOL_PROPERTY
Conf_Id
SciTegic.value.IntegerValue
2610

@<SCITEGIC>MOL_PROPERTY
Probability
SciTegic.value.DoubleValue
0.00

@<SCITEGIC>MOL_PROPERTY
Sum Probability
SciTegic.value.DoubleValue
99.75

@<SCITEGIC>MOL_PROPERTY
Delta G
SciTegic.value.DoubleValue
4.259

@<SCITEGIC>MOL_PROPERTY
G
SciTegic.value.DoubleValue
62.406

@<SCITEGIC>MOL_PROPERTY
E
SciTegic.value.DoubleValue
24.787

@<SCITEGIC>MOL_PROPERTY
-TS
SciTegic.value.DoubleValue
37.619

@<SCITEGIC>MOL_PROPERTY
U+W
SciTegic.value.DoubleValue
0.642

@<SCITEGIC>MOL_PROPERTY
U
SciTegic.value.DoubleValue
52.710

@<SCITEGIC>MOL_PROPERTY
W
SciTegic.value.DoubleValue
-52.068

@<SCITEGIC>MOL_PROPERTY
W(PB)
SciTegic.value.DoubleValue
-54.551

@<SCITEGIC>MOL_PROPERTY
W(SA)
SciTegic.value.DoubleValue
2.483

@<SCITEGIC>MOL_PROPERTY
Valence
SciTegic.value.DoubleValue
6.349

@<SCITEGIC>MOL_PROPERTY
Coulomb
SciTegic.value.DoubleValue
45.488

@<SCITEGIC>MOL_PROPERTY
VdW
SciTegic.value.DoubleValue
0.873

@<SCITEGIC>MOL_PROPERTY
VdW6
SciTegic.value.DoubleValue
-9.182

@<SCITEGIC>MOL_PROPERTY
VdW12
SciTegic.value.DoubleValue
10.055

@<SCITEGIC>MOL_PROPERTY
Bond
SciTegic.value.DoubleValue
0.284

@<SCITEGIC>MOL_PROPERTY
Angle
SciTegic.value.DoubleValue
1.470

@<SCITEGIC>MOL_PROPERTY
Pdih
SciTegic.value.DoubleValue
4.595

@<SCITEGIC>MOL_PROPERTY
Idih
SciTegic.value.DoubleValue
0.000

@<SCITEGIC>MOL_PROPERTY
Tether
SciTegic.value.DoubleValue
0.000

@<TRIPOS>MOLECULE
guest-3_vm2.mol2 : vm2 ligand conformer 324
          29          28           1
SMALL
USER_CHARGES
 
@<TRIPOS>ATOM
       1    C1      20.296766   18.068329   20.228653 C.3        1 MOL1        -0.2427
       2    H1      19.291420   17.629325   20.214886 H          1 MOL1         0.0958
       3    H2      20.683358   18.040777   19.201669 H          1 MOL1         0.0958
       4    H3      20.942026   17.431686   20.847792 H          1 MOL1         0.0958
       5    C2      20.274218   19.519555   20.759494 C.3        1 MOL1        -0.1412
       6    H4      19.602966   20.129556   20.138992 H          1 MOL1         0.0947
       7    H5      21.277166   19.954336   20.646468 H          1 MOL1         0.0947
       8    C3      19.852094   19.622393   22.244832 C.3        1 MOL1        -0.1437
       9    H6      20.547452   19.031012   22.854668 H          1 MOL1         0.0947
      10    H7      19.957034   20.667636   22.566205 H          1 MOL1         0.0947
      11    C4      18.398761   19.155412   22.502882 C.3        1 MOL1        -0.1437
      12    H8      18.317240   18.076077   22.318316 H          1 MOL1         0.0947
      13    H9      17.733547   19.642441   21.776713 H          1 MOL1         0.0947
      14    C5      17.872964   19.464657   23.928371 C.3        1 MOL1        -0.1437
      15    H10     17.856236   20.549897   24.099101 H          1 MOL1         0.0947
      16    H11     16.822997   19.143193   23.969027 H          1 MOL1         0.0947
      17    C6      18.640592   18.750091   25.071073 C.3        1 MOL1        -0.1437
      18    H12     19.070636   17.807716   24.704490 H          1 MOL1         0.0947
      19    H13     17.915807   18.472103   25.847859 H          1 MOL1         0.0947
      20    C7      19.740841   19.629848   25.717375 C.3        1 MOL1        -0.1477
      21    H14     20.439841   19.987138   24.953071 H          1 MOL1         0.0947
      22    H15     19.287990   20.525341   26.163279 H          1 MOL1         0.0947
      23    C8      20.547187   18.875825   26.792142 C.3        1 MOL1         0.0145
      24    H16     21.354134   19.517258   27.156742 H          1 MOL1         0.0921
      25    H17     20.995012   17.979451   26.354707 H          1 MOL1         0.0921
      26    N1      19.720577   18.451890   27.990177 N.4        1 MOL1        -0.5969
      27    H18     19.290507   19.255800   28.459244 H          1 MOL1         0.3603
      28    H19     20.288666   17.963876   28.691364 H          1 MOL1         0.3603
      29    H20     18.962865   17.816153   27.721948 H          1 MOL1         0.3603
@<TRIPOS>BOND
    1     1     2    1
    2     1     3    1
    3     1     4    1
    4     1     5    1
    5     5     6    1
    6     5     7    1
    7     5     8    1
    8     8     9    1
    9     8    10    1
   10     8    11    1
   11    11    12    1
   12    11    13    1
   13    11    14    1
   14    14    15    1
   15    14    16    1
   16    14    17    1
   17    17    18    1
   18    17    19    1
   19    17    20    1
   20    20    21    1
   21    20    22    1
   22    20    23    1
   23    23    24    1
   24    23    25    1
   25    23    26    1
   26    26    27    1
   27    26    28    1
   28    26    29    1
@<TRIPOS>SUBSTRUCTURE
       1 MOL1            1 RESIDUE      1      MOL     
@<SCITEGIC>MOL_PROPERTY
VM2 Rank
SciTegic.value.IntegerValue
324

@<SCITEGIC>MOL_PROPERTY
Conf_Id
SciTegic.value.IntegerValue
1592

@<SCITEGIC>MOL_PROPERTY
Probability
SciTegic.value.DoubleValue
0.00

@<SCITEGIC>MOL_PROPERTY
Sum Probability
SciTegic.value.DoubleValue
99.75

@<SCITEGIC>MOL_PROPERTY
Delta G
SciTegic.value.DoubleValue
4.260

@<SCITEGIC>MOL_PROPERTY
G
SciTegic.value.DoubleValue
62.407

@<SCITEGIC>MOL_PROPERTY
E
SciTegic.value.DoubleValue
24.597

@<SCITEGIC>MOL_PROPERTY
-TS
SciTegic.value.DoubleValue
37.809

@<SCITEGIC>MOL_PROPERTY
U+W
SciTegic.value.DoubleValue
0.453

@<SCITEGIC>MOL_PROPERTY
U
SciTegic.value.DoubleValue
52.441

@<SCITEGIC>MOL_PROPERTY
W
SciTegic.value.DoubleValue
-51.988

@<SCITEGIC>MOL_PROPERTY
W(PB)
SciTegic.value.DoubleValue
-54.438

@<SCITEGIC>MOL_PROPERTY
W(SA)
SciTegic.value.DoubleValue
2.451

@<SCITEGIC>MOL_PROPERTY
Valence
SciTegic.value.DoubleValue
6.199

@<SCITEGIC>MOL_PROPERTY
Coulomb
SciTegic.value.DoubleValue
45.232

@<SCITEGIC>MOL_PROPERTY
VdW
SciTegic.value.DoubleValue
1.010

@<SCITEGIC>MOL_PROPERTY
VdW6
SciTegic.value.DoubleValue
-9.756

@<SCITEGIC>MOL_PROPERTY
VdW12
SciTegic.value.DoubleValue
10.766

@<SCITEGIC>MOL_PROPERTY
Bond
SciTegic.value.DoubleValue
0.290

@<SCITEGIC>MOL_PROPERTY
Angle
SciTegic.value.DoubleValue
1.373

@<SCITEGIC>MOL_PROPERTY
Pdih
SciTegic.value.DoubleValue
4.536

@<SCITEGIC>MOL_PROPERTY
Idih
SciTegic.value.DoubleValue
0.000

@<SCITEGIC>MOL_PROPERTY
Tether
SciTegic.value.DoubleValue
0.000

@<TRIPOS>MOLECULE
guest-3_vm2.mol2 : vm2 ligand conformer 325
          29          28           1
SMALL
USER_CHARGES
 
@<TRIPOS>ATOM
       1    C1      20.063429   18.279176   19.713909 C.3        1 MOL1        -0.2427
       2    H1      21.152606   18.358465   19.825373 H          1 MOL1         0.0958
       3    H2      19.741027   17.325550   20.149637 H          1 MOL1         0.0958
       4    H3      19.837755   18.243295   18.640262 H          1 MOL1         0.0958
       5    C2      19.348144   19.478551   20.376341 C.3        1 MOL1        -0.1412
       6    H4      18.259794   19.358277   20.282818 H          1 MOL1         0.0947
       7    H5      19.605024   20.391847   19.821652 H          1 MOL1         0.0947
       8    C3      19.726853   19.680011   21.863714 C.3        1 MOL1        -0.1437
       9    H6      20.815162   19.802300   21.950893 H          1 MOL1         0.0947
      10    H7      19.281719   20.624505   22.200307 H          1 MOL1         0.0947
      11    C4      19.255412   18.523186   22.781784 C.3        1 MOL1        -0.1437
      12    H8      19.707407   17.583669   22.438795 H          1 MOL1         0.0947
      13    H9      18.168140   18.393981   22.691436 H          1 MOL1         0.0947
      14    C5      19.634589   18.717185   24.270936 C.3        1 MOL1        -0.1437
      15    H10     19.440311   17.769066   24.786627 H          1 MOL1         0.0947
      16    H11     20.713103   18.909985   24.353487 H          1 MOL1         0.0947
      17    C6      18.838018   19.846242   24.972320 C.3        1 MOL1        -0.1437
      18    H12     17.767091   19.601109   24.957185 H          1 MOL1         0.0947
      19    H13     18.945864   20.779709   24.406409 H          1 MOL1         0.0947
      20    C7      19.280109   20.129652   26.430918 C.3        1 MOL1        -0.1477
      21    H14     20.333371   20.439170   26.457717 H          1 MOL1         0.0947
      22    H15     18.704050   20.990842   26.794747 H          1 MOL1         0.0947
      23    C8      19.046846   18.961842   27.411651 C.3        1 MOL1         0.0145
      24    H16     18.100405   18.465732   27.180561 H          1 MOL1         0.0921
      25    H17     18.982561   19.358615   28.428467 H          1 MOL1         0.0921
      26    N1      20.150601   17.922154   27.413427 N.4        1 MOL1        -0.5969
      27    H18     20.272929   17.496115   26.490418 H          1 MOL1         0.3603
      28    H19     19.956274   17.162490   28.075094 H          1 MOL1         0.3603
      29    H20     21.053122   18.328298   27.681462 H          1 MOL1         0.3603
@<TRIPOS>BOND
    1     1     2    1
    2     1     3    1
    3     1     4    1
    4     1     5    1
    5     5     6    1
    6     5     7    1
    7     5     8    1
    8     8     9    1
    9     8    10    1
   10     8    11    1
   11    11    12    1
   12    11    13    1
   13    11    14    1
   14    14    15    1
   15    14    16    1
   16    14    17    1
   17    17    18    1
   18    17    19    1
   19    17    20    1
   20    20    21    1
   21    20    22    1
   22    20    23    1
   23    23    24    1
   24    23    25    1
   25    23    26    1
   26    26    27    1
   27    26    28    1
   28    26    29    1
@<TRIPOS>SUBSTRUCTURE
       1 MOL1            1 RESIDUE      1      MOL     
@<SCITEGIC>MOL_PROPERTY
VM2 Rank
SciTegic.value.IntegerValue
325

@<SCITEGIC>MOL_PROPERTY
Conf_Id
SciTegic.value.IntegerValue
291

@<SCITEGIC>MOL_PROPERTY
Probability
SciTegic.value.DoubleValue
0.00

@<SCITEGIC>MOL_PROPERTY
Sum Probability
SciTegic.value.DoubleValue
99.75

@<SCITEGIC>MOL_PROPERTY
Delta G
SciTegic.value.DoubleValue
4.262

@<SCITEGIC>MOL_PROPERTY
G
SciTegic.value.DoubleValue
62.408

@<SCITEGIC>MOL_PROPERTY
E
SciTegic.value.DoubleValue
25.016

@<SCITEGIC>MOL_PROPERTY
-TS
SciTegic.value.DoubleValue
37.392

@<SCITEGIC>MOL_PROPERTY
U+W
SciTegic.value.DoubleValue
0.871

@<SCITEGIC>MOL_PROPERTY
U
SciTegic.value.DoubleValue
52.756

@<SCITEGIC>MOL_PROPERTY
W
SciTegic.value.DoubleValue
-51.884

@<SCITEGIC>MOL_PROPERTY
W(PB)
SciTegic.value.DoubleValue
-54.369

@<SCITEGIC>MOL_PROPERTY
W(SA)
SciTegic.value.DoubleValue
2.485

@<SCITEGIC>MOL_PROPERTY
Valence
SciTegic.value.DoubleValue
5.462

@<SCITEGIC>MOL_PROPERTY
Coulomb
SciTegic.value.DoubleValue
46.244

@<SCITEGIC>MOL_PROPERTY
VdW
SciTegic.value.DoubleValue
1.049

@<SCITEGIC>MOL_PROPERTY
VdW6
SciTegic.value.DoubleValue
-9.558

@<SCITEGIC>MOL_PROPERTY
VdW12
SciTegic.value.DoubleValue
10.607

@<SCITEGIC>MOL_PROPERTY
Bond
SciTegic.value.DoubleValue
0.295

@<SCITEGIC>MOL_PROPERTY
Angle
SciTegic.value.DoubleValue
1.567

@<SCITEGIC>MOL_PROPERTY
Pdih
SciTegic.value.DoubleValue
3.600

@<SCITEGIC>MOL_PROPERTY
Idih
SciTegic.value.DoubleValue
0.000

@<SCITEGIC>MOL_PROPERTY
Tether
SciTegic.value.DoubleValue
0.000

@<TRIPOS>MOLECULE
guest-3_vm2.mol2 : vm2 ligand conformer 326
          29          28           1
SMALL
USER_CHARGES
 
@<TRIPOS>ATOM
       1    C1      20.434360   19.852464   20.107613 C.3        1 MOL1        -0.2427
       2    H1      21.274921   19.224993   19.783886 H          1 MOL1         0.0958
       3    H2      20.229947   20.574372   19.306393 H          1 MOL1         0.0958
       4    H3      20.756129   20.416842   20.989851 H          1 MOL1         0.0958
       5    C2      19.181864   18.991254   20.392566 C.3        1 MOL1        -0.1412
       6    H4      18.912151   18.468331   19.464302 H          1 MOL1         0.0947
       7    H5      18.324156   19.632990   20.637654 H          1 MOL1         0.0947
       8    C3      19.403218   17.937208   21.507830 C.3        1 MOL1        -0.1437
       9    H6      18.853269   17.026970   21.231441 H          1 MOL1         0.0947
      10    H7      20.460860   17.642333   21.547799 H          1 MOL1         0.0947
      11    C4      18.916865   18.365487   22.916623 C.3        1 MOL1        -0.1437
      12    H8      19.060740   17.512901   23.591966 H          1 MOL1         0.0947
      13    H9      17.834922   18.553854   22.886569 H          1 MOL1         0.0947
      14    C5      19.639391   19.610179   23.488675 C.3        1 MOL1        -0.1437
      15    H10     20.726732   19.455099   23.464692 H          1 MOL1         0.0947
      16    H11     19.429751   20.472741   22.843524 H          1 MOL1         0.0947
      17    C6      19.197404   19.977965   24.926652 C.3        1 MOL1        -0.1437
      18    H12     18.107042   20.111534   24.954977 H          1 MOL1         0.0947
      19    H13     19.633743   20.953074   25.184469 H          1 MOL1         0.0947
      20    C7      19.626154   18.943176   25.993579 C.3        1 MOL1        -0.1477
      21    H14     19.134000   17.980371   25.808902 H          1 MOL1         0.0947
      22    H15     20.708888   18.771928   25.928485 H          1 MOL1         0.0947
      23    C8      19.269412   19.422112   27.411692 C.3        1 MOL1         0.0145
      24    H16     18.189913   19.578648   27.486704 H          1 MOL1         0.0921
      25    H17     19.770180   20.372252   27.616395 H          1 MOL1         0.0921
      26    N1      19.675332   18.438155   28.489769 N.4        1 MOL1        -0.5969
      27    H18     20.686505   18.267725   28.490002 H          1 MOL1         0.3603
      28    H19     19.215724   17.529351   28.370097 H          1 MOL1         0.3603
      29    H20     19.429059   18.776626   29.426527 H          1 MOL1         0.3603
@<TRIPOS>BOND
    1     1     2    1
    2     1     3    1
    3     1     4    1
    4     1     5    1
    5     5     6    1
    6     5     7    1
    7     5     8    1
    8     8     9    1
    9     8    10    1
   10     8    11    1
   11    11    12    1
   12    11    13    1
   13    11    14    1
   14    14    15    1
   15    14    16    1
   16    14    17    1
   17    17    18    1
   18    17    19    1
   19    17    20    1
   20    20    21    1
   21    20    22    1
   22    20    23    1
   23    23    24    1
   24    23    25    1
   25    23    26    1
   26    26    27    1
   27    26    28    1
   28    26    29    1
@<TRIPOS>SUBSTRUCTURE
       1 MOL1            1 RESIDUE      1      MOL     
@<SCITEGIC>MOL_PROPERTY
VM2 Rank
SciTegic.value.IntegerValue
326

@<SCITEGIC>MOL_PROPERTY
Conf_Id
SciTegic.value.IntegerValue
1024

@<SCITEGIC>MOL_PROPERTY
Probability
SciTegic.value.DoubleValue
0.00

@<SCITEGIC>MOL_PROPERTY
Sum Probability
SciTegic.value.DoubleValue
99.76

@<SCITEGIC>MOL_PROPERTY
Delta G
SciTegic.value.DoubleValue
4.275

@<SCITEGIC>MOL_PROPERTY
G
SciTegic.value.DoubleValue
62.422

@<SCITEGIC>MOL_PROPERTY
E
SciTegic.value.DoubleValue
24.848

@<SCITEGIC>MOL_PROPERTY
-TS
SciTegic.value.DoubleValue
37.574

@<SCITEGIC>MOL_PROPERTY
U+W
SciTegic.value.DoubleValue
0.704

@<SCITEGIC>MOL_PROPERTY
U
SciTegic.value.DoubleValue
52.141

@<SCITEGIC>MOL_PROPERTY
W
SciTegic.value.DoubleValue
-51.437

@<SCITEGIC>MOL_PROPERTY
W(PB)
SciTegic.value.DoubleValue
-53.913

@<SCITEGIC>MOL_PROPERTY
W(SA)
SciTegic.value.DoubleValue
2.475

@<SCITEGIC>MOL_PROPERTY
Valence
SciTegic.value.DoubleValue
6.258

@<SCITEGIC>MOL_PROPERTY
Coulomb
SciTegic.value.DoubleValue
44.846

@<SCITEGIC>MOL_PROPERTY
VdW
SciTegic.value.DoubleValue
1.036

@<SCITEGIC>MOL_PROPERTY
VdW6
SciTegic.value.DoubleValue
-9.043

@<SCITEGIC>MOL_PROPERTY
VdW12
SciTegic.value.DoubleValue
10.080

@<SCITEGIC>MOL_PROPERTY
Bond
SciTegic.value.DoubleValue
0.275

@<SCITEGIC>MOL_PROPERTY
Angle
SciTegic.value.DoubleValue
1.500

@<SCITEGIC>MOL_PROPERTY
Pdih
SciTegic.value.DoubleValue
4.484

@<SCITEGIC>MOL_PROPERTY
Idih
SciTegic.value.DoubleValue
0.000

@<SCITEGIC>MOL_PROPERTY
Tether
SciTegic.value.DoubleValue
0.000

@<TRIPOS>MOLECULE
guest-3_vm2.mol2 : vm2 ligand conformer 327
          29          28           1
SMALL
USER_CHARGES
 
@<TRIPOS>ATOM
       1    C1      20.221606   19.477331   19.867674 C.3        1 MOL1        -0.2427
       2    H1      21.052673   19.580732   19.158064 H          1 MOL1         0.0958
       3    H2      19.405731   18.951372   19.355099 H          1 MOL1         0.0958
       4    H3      19.875576   20.487467   20.119581 H          1 MOL1         0.0958
       5    C2      20.677607   18.703736   21.125465 C.3        1 MOL1        -0.1412
       6    H4      21.472361   19.265043   21.636334 H          1 MOL1         0.0947
       7    H5      21.126863   17.751124   20.811720 H          1 MOL1         0.0947
       8    C3      19.527012   18.407390   22.117200 C.3        1 MOL1        -0.1437
       9    H6      18.747654   17.824220   21.607696 H          1 MOL1         0.0947
      10    H7      19.916252   17.761581   22.912900 H          1 MOL1         0.0947
      11    C4      18.898652   19.685349   22.729969 C.3        1 MOL1        -0.1437
      12    H8      18.404948   20.249562   21.927817 H          1 MOL1         0.0947
      13    H9      19.681678   20.344587   23.128850 H          1 MOL1         0.0947
      14    C5      17.844117   19.386231   23.827221 C.3        1 MOL1        -0.1437
      15    H10     17.040744   20.130997   23.741535 H          1 MOL1         0.0947
      16    H11     17.366467   18.414056   23.642972 H          1 MOL1         0.0947
      17    C6      18.385703   19.450143   25.278638 C.3        1 MOL1        -0.1437
      18    H12     17.543167   19.301575   25.968269 H          1 MOL1         0.0947
      19    H13     18.768195   20.460826   25.474382 H          1 MOL1         0.0947
      20    C7      19.482571   18.405081   25.595257 C.3        1 MOL1        -0.1477
      21    H14     19.133340   17.407859   25.296685 H          1 MOL1         0.0947
      22    H15     20.387602   18.616532   25.011878 H          1 MOL1         0.0947
      23    C8      19.848061   18.366309   27.091388 C.3        1 MOL1         0.0145
      24    H16     20.569867   17.564336   27.268459 H          1 MOL1         0.0921
      25    H17     18.953167   18.157040   27.683621 H          1 MOL1         0.0921
      26    N1      20.458671   19.656430   27.602187 N.4        1 MOL1        -0.5969
      27    H18     21.319630   19.895141   27.099271 H          1 MOL1         0.3603
      28    H19     20.699323   19.595770   28.597654 H          1 MOL1         0.3603
      29    H20     19.815848   20.447484   27.495999 H          1 MOL1         0.3603
@<TRIPOS>BOND
    1     1     2    1
    2     1     3    1
    3     1     4    1
    4     1     5    1
    5     5     6    1
    6     5     7    1
    7     5     8    1
    8     8     9    1
    9     8    10    1
   10     8    11    1
   11    11    12    1
   12    11    13    1
   13    11    14    1
   14    14    15    1
   15    14    16    1
   16    14    17    1
   17    17    18    1
   18    17    19    1
   19    17    20    1
   20    20    21    1
   21    20    22    1
   22    20    23    1
   23    23    24    1
   24    23    25    1
   25    23    26    1
   26    26    27    1
   27    26    28    1
   28    26    29    1
@<TRIPOS>SUBSTRUCTURE
       1 MOL1            1 RESIDUE      1      MOL     
@<SCITEGIC>MOL_PROPERTY
VM2 Rank
SciTegic.value.IntegerValue
327

@<SCITEGIC>MOL_PROPERTY
Conf_Id
SciTegic.value.IntegerValue
199

@<SCITEGIC>MOL_PROPERTY
Probability
SciTegic.value.DoubleValue
0.00

@<SCITEGIC>MOL_PROPERTY
Sum Probability
SciTegic.value.DoubleValue
99.76

@<SCITEGIC>MOL_PROPERTY
Delta G
SciTegic.value.DoubleValue
4.281

@<SCITEGIC>MOL_PROPERTY
G
SciTegic.value.DoubleValue
62.427

@<SCITEGIC>MOL_PROPERTY
E
SciTegic.value.DoubleValue
24.611

@<SCITEGIC>MOL_PROPERTY
-TS
SciTegic.value.DoubleValue
37.816

@<SCITEGIC>MOL_PROPERTY
U+W
SciTegic.value.DoubleValue
0.466

@<SCITEGIC>MOL_PROPERTY
U
SciTegic.value.DoubleValue
52.654

@<SCITEGIC>MOL_PROPERTY
W
SciTegic.value.DoubleValue
-52.187

@<SCITEGIC>MOL_PROPERTY
W(PB)
SciTegic.value.DoubleValue
-54.637

@<SCITEGIC>MOL_PROPERTY
W(SA)
SciTegic.value.DoubleValue
2.450

@<SCITEGIC>MOL_PROPERTY
Valence
SciTegic.value.DoubleValue
6.239

@<SCITEGIC>MOL_PROPERTY
Coulomb
SciTegic.value.DoubleValue
45.412

@<SCITEGIC>MOL_PROPERTY
VdW
SciTegic.value.DoubleValue
1.003

@<SCITEGIC>MOL_PROPERTY
VdW6
SciTegic.value.DoubleValue
-9.762

@<SCITEGIC>MOL_PROPERTY
VdW12
SciTegic.value.DoubleValue
10.765

@<SCITEGIC>MOL_PROPERTY
Bond
SciTegic.value.DoubleValue
0.289

@<SCITEGIC>MOL_PROPERTY
Angle
SciTegic.value.DoubleValue
1.372

@<SCITEGIC>MOL_PROPERTY
Pdih
SciTegic.value.DoubleValue
4.577

@<SCITEGIC>MOL_PROPERTY
Idih
SciTegic.value.DoubleValue
0.000

@<SCITEGIC>MOL_PROPERTY
Tether
SciTegic.value.DoubleValue
0.000

@<TRIPOS>MOLECULE
guest-3_vm2.mol2 : vm2 ligand conformer 328
          29          28           1
SMALL
USER_CHARGES
 
@<TRIPOS>ATOM
       1    C1      19.534947   20.341442   20.482618 C.3        1 MOL1        -0.2427
       2    H1      18.911385   20.754798   21.285188 H          1 MOL1         0.0958
       3    H2      20.499038   20.866236   20.489785 H          1 MOL1         0.0958
       4    H3      19.037567   20.564232   19.529830 H          1 MOL1         0.0958
       5    C2      19.731017   18.817554   20.647572 C.3        1 MOL1        -0.1412
       6    H4      20.252003   18.430368   19.760844 H          1 MOL1         0.0947
       7    H5      18.753650   18.317455   20.661081 H          1 MOL1         0.0947
       8    C3      20.550333   18.432533   21.906110 C.3        1 MOL1        -0.1437
       9    H6      20.652480   17.339188   21.941574 H          1 MOL1         0.0947
      10    H7      21.570291   18.825502   21.794883 H          1 MOL1         0.0947
      11    C4      19.975443   18.929804   23.258107 C.3        1 MOL1        -0.1437
      12    H8      19.950934   20.027241   23.274818 H          1 MOL1         0.0947
      13    H9      20.675567   18.623203   24.045014 H          1 MOL1         0.0947
      14    C5      18.570555   18.364134   23.582413 C.3        1 MOL1        -0.1437
      15    H10     17.885121   18.590500   22.756001 H          1 MOL1         0.0947
      16    H11     18.624841   17.268638   23.644672 H          1 MOL1         0.0947
      17    C6      17.936257   18.924264   24.882017 C.3        1 MOL1        -0.1437
      18    H12     16.935993   18.480010   24.979651 H          1 MOL1         0.0947
      19    H13     17.772172   20.006521   24.785224 H          1 MOL1         0.0947
      20    C7      18.726616   18.621387   26.179840 C.3        1 MOL1        -0.1477
      21    H14     18.017769   18.569105   27.016975 H          1 MOL1         0.0947
      22    H15     19.200033   17.632863   26.112184 H          1 MOL1         0.0947
      23    C8      19.777381   19.699215   26.510591 C.3        1 MOL1         0.0145
      24    H16     19.283315   20.667333   26.628871 H          1 MOL1         0.0921
      25    H17     20.502434   19.784215   25.699083 H          1 MOL1         0.0921
      26    N1      20.541452   19.407668   27.785731 N.4        1 MOL1        -0.5969
      27    H18     19.918834   19.347821   28.598271 H          1 MOL1         0.3603
      28    H19     21.232053   20.137912   27.991702 H          1 MOL1         0.3603
      29    H20     21.051884   18.520090   27.730582 H          1 MOL1         0.3603
@<TRIPOS>BOND
    1     1     2    1
    2     1     3    1
    3     1     4    1
    4     1     5    1
    5     5     6    1
    6     5     7    1
    7     5     8    1
    8     8     9    1
    9     8    10    1
   10     8    11    1
   11    11    12    1
   12    11    13    1
   13    11    14    1
   14    14    15    1
   15    14    16    1
   16    14    17    1
   17    17    18    1
   18    17    19    1
   19    17    20    1
   20    20    21    1
   21    20    22    1
   22    20    23    1
   23    23    24    1
   24    23    25    1
   25    23    26    1
   26    26    27    1
   27    26    28    1
   28    26    29    1
@<TRIPOS>SUBSTRUCTURE
       1 MOL1            1 RESIDUE      1      MOL     
@<SCITEGIC>MOL_PROPERTY
VM2 Rank
SciTegic.value.IntegerValue
328

@<SCITEGIC>MOL_PROPERTY
Conf_Id
SciTegic.value.IntegerValue
302

@<SCITEGIC>MOL_PROPERTY
Probability
SciTegic.value.DoubleValue
0.00

@<SCITEGIC>MOL_PROPERTY
Sum Probability
SciTegic.value.DoubleValue
99.77

@<SCITEGIC>MOL_PROPERTY
Delta G
SciTegic.value.DoubleValue
4.289

@<SCITEGIC>MOL_PROPERTY
G
SciTegic.value.DoubleValue
62.436

@<SCITEGIC>MOL_PROPERTY
E
SciTegic.value.DoubleValue
24.533

@<SCITEGIC>MOL_PROPERTY
-TS
SciTegic.value.DoubleValue
37.903

@<SCITEGIC>MOL_PROPERTY
U+W
SciTegic.value.DoubleValue
0.388

@<SCITEGIC>MOL_PROPERTY
U
SciTegic.value.DoubleValue
52.651

@<SCITEGIC>MOL_PROPERTY
W
SciTegic.value.DoubleValue
-52.263

@<SCITEGIC>MOL_PROPERTY
W(PB)
SciTegic.value.DoubleValue
-54.692

@<SCITEGIC>MOL_PROPERTY
W(SA)
SciTegic.value.DoubleValue
2.429

@<SCITEGIC>MOL_PROPERTY
Valence
SciTegic.value.DoubleValue
6.081

@<SCITEGIC>MOL_PROPERTY
Coulomb
SciTegic.value.DoubleValue
45.696

@<SCITEGIC>MOL_PROPERTY
VdW
SciTegic.value.DoubleValue
0.874

@<SCITEGIC>MOL_PROPERTY
VdW6
SciTegic.value.DoubleValue
-10.147

@<SCITEGIC>MOL_PROPERTY
VdW12
SciTegic.value.DoubleValue
11.021

@<SCITEGIC>MOL_PROPERTY
Bond
SciTegic.value.DoubleValue
0.303

@<SCITEGIC>MOL_PROPERTY
Angle
SciTegic.value.DoubleValue
1.914

@<SCITEGIC>MOL_PROPERTY
Pdih
SciTegic.value.DoubleValue
3.864

@<SCITEGIC>MOL_PROPERTY
Idih
SciTegic.value.DoubleValue
0.000

@<SCITEGIC>MOL_PROPERTY
Tether
SciTegic.value.DoubleValue
0.000

@<TRIPOS>MOLECULE
guest-3_vm2.mol2 : vm2 ligand conformer 329
          29          28           1
SMALL
USER_CHARGES
 
@<TRIPOS>ATOM
       1    C1      20.406086   20.454831   20.758543 C.3        1 MOL1        -0.2427
       2    H1      19.494722   20.999175   21.034725 H          1 MOL1         0.0958
       3    H2      21.181671   20.682702   21.501182 H          1 MOL1         0.0958
       4    H3      20.743190   20.846648   19.790166 H          1 MOL1         0.0958
       5    C2      20.154122   18.932687   20.667378 C.3        1 MOL1        -0.1412
       6    H4      21.057866   18.448347   20.271893 H          1 MOL1         0.0947
       7    H5      19.354530   18.731935   19.940709 H          1 MOL1         0.0947
       8    C3      19.800819   18.287260   22.028722 C.3        1 MOL1        -0.1437
       9    H6      19.771804   17.196790   21.897859 H          1 MOL1         0.0947
      10    H7      20.609297   18.485468   22.742156 H          1 MOL1         0.0947
      11    C4      18.437363   18.758600   22.597486 C.3        1 MOL1        -0.1437
      12    H8      17.660559   18.528390   21.855384 H          1 MOL1         0.0947
      13    H9      18.420435   19.848427   22.726055 H          1 MOL1         0.0947
      14    C5      18.059280   18.069207   23.934485 C.3        1 MOL1        -0.1437
      15    H10     16.973921   17.897772   23.935887 H          1 MOL1         0.0947
      16    H11     18.515478   17.071411   23.992486 H          1 MOL1         0.0947
      17    C6      18.403708   18.886497   25.206484 C.3        1 MOL1        -0.1437
      18    H12     18.033487   18.329008   26.076814 H          1 MOL1         0.0947
      19    H13     17.848128   19.834392   25.191645 H          1 MOL1         0.0947
      20    C7      19.912913   19.180942   25.386235 C.3        1 MOL1        -0.1477
      21    H14     20.489610   18.248172   25.331712 H          1 MOL1         0.0947
      22    H15     20.260224   19.821405   24.566074 H          1 MOL1         0.0947
      23    C8      20.224465   19.902629   26.711473 C.3        1 MOL1         0.0145
      24    H16     19.630968   20.818243   26.780716 H          1 MOL1         0.0921
      25    H17     21.282079   20.179242   26.733014 H          1 MOL1         0.0921
      26    N1      19.945243   19.065348   27.944192 N.4        1 MOL1        -0.5969
      27    H18     20.493133   18.198718   27.947463 H          1 MOL1         0.3603
      28    H19     18.957491   18.799772   28.006859 H          1 MOL1         0.3603
      29    H20     20.176236   19.569662   28.807246 H          1 MOL1         0.3603
@<TRIPOS>BOND
    1     1     2    1
    2     1     3    1
    3     1     4    1
    4     1     5    1
    5     5     6    1
    6     5     7    1
    7     5     8    1
    8     8     9    1
    9     8    10    1
   10     8    11    1
   11    11    12    1
   12    11    13    1
   13    11    14    1
   14    14    15    1
   15    14    16    1
   16    14    17    1
   17    17    18    1
   18    17    19    1
   19    17    20    1
   20    20    21    1
   21    20    22    1
   22    20    23    1
   23    23    24    1
   24    23    25    1
   25    23    26    1
   26    26    27    1
   27    26    28    1
   28    26    29    1
@<TRIPOS>SUBSTRUCTURE
       1 MOL1            1 RESIDUE      1      MOL     
@<SCITEGIC>MOL_PROPERTY
VM2 Rank
SciTegic.value.IntegerValue
329

@<SCITEGIC>MOL_PROPERTY
Conf_Id
SciTegic.value.IntegerValue
2489

@<SCITEGIC>MOL_PROPERTY
Probability
SciTegic.value.DoubleValue
0.00

@<SCITEGIC>MOL_PROPERTY
Sum Probability
SciTegic.value.DoubleValue
99.77

@<SCITEGIC>MOL_PROPERTY
Delta G
SciTegic.value.DoubleValue
4.296

@<SCITEGIC>MOL_PROPERTY
G
SciTegic.value.DoubleValue
62.443

@<SCITEGIC>MOL_PROPERTY
E
SciTegic.value.DoubleValue
24.697

@<SCITEGIC>MOL_PROPERTY
-TS
SciTegic.value.DoubleValue
37.746

@<SCITEGIC>MOL_PROPERTY
U+W
SciTegic.value.DoubleValue
0.552

@<SCITEGIC>MOL_PROPERTY
U
SciTegic.value.DoubleValue
52.520

@<SCITEGIC>MOL_PROPERTY
W
SciTegic.value.DoubleValue
-51.968

@<SCITEGIC>MOL_PROPERTY
W(PB)
SciTegic.value.DoubleValue
-54.398

@<SCITEGIC>MOL_PROPERTY
W(SA)
SciTegic.value.DoubleValue
2.429

@<SCITEGIC>MOL_PROPERTY
Valence
SciTegic.value.DoubleValue
6.252

@<SCITEGIC>MOL_PROPERTY
Coulomb
SciTegic.value.DoubleValue
45.283

@<SCITEGIC>MOL_PROPERTY
VdW
SciTegic.value.DoubleValue
0.985

@<SCITEGIC>MOL_PROPERTY
VdW6
SciTegic.value.DoubleValue
-9.837

@<SCITEGIC>MOL_PROPERTY
VdW12
SciTegic.value.DoubleValue
10.823

@<SCITEGIC>MOL_PROPERTY
Bond
SciTegic.value.DoubleValue
0.297

@<SCITEGIC>MOL_PROPERTY
Angle
SciTegic.value.DoubleValue
1.468

@<SCITEGIC>MOL_PROPERTY
Pdih
SciTegic.value.DoubleValue
4.488

@<SCITEGIC>MOL_PROPERTY
Idih
SciTegic.value.DoubleValue
0.000

@<SCITEGIC>MOL_PROPERTY
Tether
SciTegic.value.DoubleValue
0.000

@<TRIPOS>MOLECULE
guest-3_vm2.mol2 : vm2 ligand conformer 330
          29          28           1
SMALL
USER_CHARGES
 
@<TRIPOS>ATOM
       1    C1      21.293404   18.781891   20.427453 C.3        1 MOL1        -0.2427
       2    H1      21.657024   19.458726   19.643420 H          1 MOL1         0.0958
       3    H2      22.075796   18.702056   21.193423 H          1 MOL1         0.0958
       4    H3      21.152439   17.790378   19.977725 H          1 MOL1         0.0958
       5    C2      19.975669   19.308870   21.033990 C.3        1 MOL1        -0.1412
       6    H4      19.224039   19.407839   20.238450 H          1 MOL1         0.0947
       7    H5      20.145559   20.316314   21.435168 H          1 MOL1         0.0947
       8    C3      19.442623   18.368641   22.141353 C.3        1 MOL1        -0.1437
       9    H6      19.320302   17.362454   21.717352 H          1 MOL1         0.0947
      10    H7      20.192297   18.275413   22.935802 H          1 MOL1         0.0947
      11    C4      18.078941   18.820021   22.726956 C.3        1 MOL1        -0.1437
      12    H8      17.634760   17.994792   23.300250 H          1 MOL1         0.0947
      13    H9      17.388413   19.000007   21.891476 H          1 MOL1         0.0947
      14    C5      18.134761   20.093505   23.614443 C.3        1 MOL1        -0.1437
      15    H10     18.943710   20.761381   23.293763 H          1 MOL1         0.0947
      16    H11     17.206526   20.659415   23.455091 H          1 MOL1         0.0947
      17    C6      18.254927   19.817221   25.135345 C.3        1 MOL1        -0.1437
      18    H12     17.383368   19.239077   25.472451 H          1 MOL1         0.0947
      19    H13     18.206736   20.778918   25.664958 H          1 MOL1         0.0947
      20    C7      19.550040   19.082521   25.548761 C.3        1 MOL1        -0.1477
      21    H14     19.551868   18.067813   25.131613 H          1 MOL1         0.0947
      22    H15     20.422201   19.609619   25.139680 H          1 MOL1         0.0947
      23    C8      19.678337   18.991293   27.079315 C.3        1 MOL1         0.0145
      24    H16     18.818812   18.454234   27.489469 H          1 MOL1         0.0921
      25    H17     19.692755   19.996882   27.508279 H          1 MOL1         0.0921
      26    N1      20.935299   18.274037   27.527384 N.4        1 MOL1        -0.5969
      27    H18     21.001336   18.224901   28.550093 H          1 MOL1         0.3603
      28    H19     21.783022   18.746060   27.195703 H          1 MOL1         0.3603
      29    H20     20.969816   17.310199   27.179190 H          1 MOL1         0.3603
@<TRIPOS>BOND
    1     1     2    1
    2     1     3    1
    3     1     4    1
    4     1     5    1
    5     5     6    1
    6     5     7    1
    7     5     8    1
    8     8     9    1
    9     8    10    1
   10     8    11    1
   11    11    12    1
   12    11    13    1
   13    11    14    1
   14    14    15    1
   15    14    16    1
   16    14    17    1
   17    17    18    1
   18    17    19    1
   19    17    20    1
   20    20    21    1
   21    20    22    1
   22    20    23    1
   23    23    24    1
   24    23    25    1
   25    23    26    1
   26    26    27    1
   27    26    28    1
   28    26    29    1
@<TRIPOS>SUBSTRUCTURE
       1 MOL1            1 RESIDUE      1      MOL     
@<SCITEGIC>MOL_PROPERTY
VM2 Rank
SciTegic.value.IntegerValue
330

@<SCITEGIC>MOL_PROPERTY
Conf_Id
SciTegic.value.IntegerValue
2006

@<SCITEGIC>MOL_PROPERTY
Probability
SciTegic.value.DoubleValue
0.00

@<SCITEGIC>MOL_PROPERTY
Sum Probability
SciTegic.value.DoubleValue
99.77

@<SCITEGIC>MOL_PROPERTY
Delta G
SciTegic.value.DoubleValue
4.296

@<SCITEGIC>MOL_PROPERTY
G
SciTegic.value.DoubleValue
62.443

@<SCITEGIC>MOL_PROPERTY
E
SciTegic.value.DoubleValue
24.825

@<SCITEGIC>MOL_PROPERTY
-TS
SciTegic.value.DoubleValue
37.618

@<SCITEGIC>MOL_PROPERTY
U+W
SciTegic.value.DoubleValue
0.680

@<SCITEGIC>MOL_PROPERTY
U
SciTegic.value.DoubleValue
52.710

@<SCITEGIC>MOL_PROPERTY
W
SciTegic.value.DoubleValue
-52.030

@<SCITEGIC>MOL_PROPERTY
W(PB)
SciTegic.value.DoubleValue
-54.518

@<SCITEGIC>MOL_PROPERTY
W(SA)
SciTegic.value.DoubleValue
2.488

@<SCITEGIC>MOL_PROPERTY
Valence
SciTegic.value.DoubleValue
6.349

@<SCITEGIC>MOL_PROPERTY
Coulomb
SciTegic.value.DoubleValue
45.489

@<SCITEGIC>MOL_PROPERTY
VdW
SciTegic.value.DoubleValue
0.873

@<SCITEGIC>MOL_PROPERTY
VdW6
SciTegic.value.DoubleValue
-9.182

@<SCITEGIC>MOL_PROPERTY
VdW12
SciTegic.value.DoubleValue
10.055

@<SCITEGIC>MOL_PROPERTY
Bond
SciTegic.value.DoubleValue
0.284

@<SCITEGIC>MOL_PROPERTY
Angle
SciTegic.value.DoubleValue
1.472

@<SCITEGIC>MOL_PROPERTY
Pdih
SciTegic.value.DoubleValue
4.593

@<SCITEGIC>MOL_PROPERTY
Idih
SciTegic.value.DoubleValue
0.000

@<SCITEGIC>MOL_PROPERTY
Tether
SciTegic.value.DoubleValue
0.000

@<TRIPOS>MOLECULE
guest-3_vm2.mol2 : vm2 ligand conformer 331
          29          28           1
SMALL
USER_CHARGES
 
@<TRIPOS>ATOM
       1    C1      19.750433   17.529333   20.922119 C.3        1 MOL1        -0.2427
       2    H1      19.118138   17.725591   20.046542 H          1 MOL1         0.0958
       3    H2      20.391751   16.669833   20.688021 H          1 MOL1         0.0958
       4    H3      19.101071   17.239313   21.757546 H          1 MOL1         0.0958
       5    C2      20.608624   18.765067   21.274870 C.3        1 MOL1        -0.1412
       6    H4      21.322286   18.944523   20.458706 H          1 MOL1         0.0947
       7    H5      21.217526   18.552226   22.163451 H          1 MOL1         0.0947
       8    C3      19.774745   20.053545   21.492077 C.3        1 MOL1        -0.1437
       9    H6      20.458709   20.883941   21.715098 H          1 MOL1         0.0947
      10    H7      19.279174   20.318069   20.547866 H          1 MOL1         0.0947
      11    C4      18.702007   19.970650   22.608703 C.3        1 MOL1        -0.1437
      12    H8      17.942773   19.222893   22.343723 H          1 MOL1         0.0947
      13    H9      18.175091   20.933774   22.651496 H          1 MOL1         0.0947
      14    C5      19.286050   19.651405   24.005515 C.3        1 MOL1        -0.1437
      15    H10     19.750427   18.659147   23.979902 H          1 MOL1         0.0947
      16    H11     20.071767   20.379894   24.248431 H          1 MOL1         0.0947
      17    C6      18.194141   19.677467   25.101013 C.3        1 MOL1        -0.1437
      18    H12     17.466799   18.875861   24.911755 H          1 MOL1         0.0947
      19    H13     17.636225   20.621092   25.026124 H          1 MOL1         0.0947
      20    C7      18.734899   19.552005   26.548292 C.3        1 MOL1        -0.1477
      21    H14     19.415070   20.383593   26.775674 H          1 MOL1         0.0947
      22    H15     17.885246   19.661226   27.235311 H          1 MOL1         0.0947
      23    C8      19.421963   18.206588   26.861076 C.3        1 MOL1         0.0145
      24    H16     18.871427   17.389425   26.387332 H          1 MOL1         0.0921
      25    H17     19.408697   18.042880   27.942047 H          1 MOL1         0.0921
      26    N1      20.871139   18.131939   26.421334 N.4        1 MOL1        -0.5969
      27    H18     21.444278   18.845057   26.884355 H          1 MOL1         0.3603
      28    H19     20.968887   18.273049   25.411977 H          1 MOL1         0.3603
      29    H20     21.289223   17.221676   26.643452 H          1 MOL1         0.3603
@<TRIPOS>BOND
    1     1     2    1
    2     1     3    1
    3     1     4    1
    4     1     5    1
    5     5     6    1
    6     5     7    1
    7     5     8    1
    8     8     9    1
    9     8    10    1
   10     8    11    1
   11    11    12    1
   12    11    13    1
   13    11    14    1
   14    14    15    1
   15    14    16    1
   16    14    17    1
   17    17    18    1
   18    17    19    1
   19    17    20    1
   20    20    21    1
   21    20    22    1
   22    20    23    1
   23    23    24    1
   24    23    25    1
   25    23    26    1
   26    26    27    1
   27    26    28    1
   28    26    29    1
@<TRIPOS>SUBSTRUCTURE
       1 MOL1            1 RESIDUE      1      MOL     
@<SCITEGIC>MOL_PROPERTY
VM2 Rank
SciTegic.value.IntegerValue
331

@<SCITEGIC>MOL_PROPERTY
Conf_Id
SciTegic.value.IntegerValue
2333

@<SCITEGIC>MOL_PROPERTY
Probability
SciTegic.value.DoubleValue
0.00

@<SCITEGIC>MOL_PROPERTY
Sum Probability
SciTegic.value.DoubleValue
99.78

@<SCITEGIC>MOL_PROPERTY
Delta G
SciTegic.value.DoubleValue
4.304

@<SCITEGIC>MOL_PROPERTY
G
SciTegic.value.DoubleValue
62.450

@<SCITEGIC>MOL_PROPERTY
E
SciTegic.value.DoubleValue
24.676

@<SCITEGIC>MOL_PROPERTY
-TS
SciTegic.value.DoubleValue
37.774

@<SCITEGIC>MOL_PROPERTY
U+W
SciTegic.value.DoubleValue
0.532

@<SCITEGIC>MOL_PROPERTY
U
SciTegic.value.DoubleValue
52.871

@<SCITEGIC>MOL_PROPERTY
W
SciTegic.value.DoubleValue
-52.339

@<SCITEGIC>MOL_PROPERTY
W(PB)
SciTegic.value.DoubleValue
-54.758

@<SCITEGIC>MOL_PROPERTY
W(SA)
SciTegic.value.DoubleValue
2.419

@<SCITEGIC>MOL_PROPERTY
Valence
SciTegic.value.DoubleValue
5.127

@<SCITEGIC>MOL_PROPERTY
Coulomb
SciTegic.value.DoubleValue
47.022

@<SCITEGIC>MOL_PROPERTY
VdW
SciTegic.value.DoubleValue
0.721

@<SCITEGIC>MOL_PROPERTY
VdW6
SciTegic.value.DoubleValue
-10.158

@<SCITEGIC>MOL_PROPERTY
VdW12
SciTegic.value.DoubleValue
10.879

@<SCITEGIC>MOL_PROPERTY
Bond
SciTegic.value.DoubleValue
0.284

@<SCITEGIC>MOL_PROPERTY
Angle
SciTegic.value.DoubleValue
1.604

@<SCITEGIC>MOL_PROPERTY
Pdih
SciTegic.value.DoubleValue
3.240

@<SCITEGIC>MOL_PROPERTY
Idih
SciTegic.value.DoubleValue
0.000

@<SCITEGIC>MOL_PROPERTY
Tether
SciTegic.value.DoubleValue
0.000

@<TRIPOS>MOLECULE
guest-3_vm2.mol2 : vm2 ligand conformer 332
          29          28           1
SMALL
USER_CHARGES
 
@<TRIPOS>ATOM
       1    C1      20.671582   18.091058   20.538897 C.3        1 MOL1        -0.2427
       2    H1      21.177722   18.076136   19.564987 H          1 MOL1         0.0958
       3    H2      21.315797   17.571998   21.260397 H          1 MOL1         0.0958
       4    H3      19.740462   17.520031   20.435954 H          1 MOL1         0.0958
       5    C2      20.398025   19.545416   20.984266 C.3        1 MOL1        -0.1412
       6    H4      19.732459   20.034792   20.259537 H          1 MOL1         0.0947
       7    H5      21.342446   20.106929   20.962370 H          1 MOL1         0.0947
       8    C3      19.791480   19.647389   22.404323 C.3        1 MOL1        -0.1437
       9    H6      20.480104   19.179338   23.119459 H          1 MOL1         0.0947
      10    H7      19.720128   20.708704   22.678856 H          1 MOL1         0.0947
      11    C4      18.391472   18.997024   22.520901 C.3        1 MOL1        -0.1437
      12    H8      18.476097   17.909438   22.395611 H          1 MOL1         0.0947
      13    H9      17.762628   19.353523   21.693560 H          1 MOL1         0.0947
      14    C5      17.657283   19.296456   23.853345 C.3        1 MOL1        -0.1437
      15    H10     17.472032   20.375127   23.949293 H          1 MOL1         0.0947
      16    H11     16.663876   18.830652   23.793657 H          1 MOL1         0.0947
      17    C6      18.367537   18.755009   25.121440 C.3        1 MOL1        -0.1437
      18    H12     18.942460   17.854236   24.869107 H          1 MOL1         0.0947
      19    H13     17.599111   18.434095   25.838481 H          1 MOL1         0.0947
      20    C7      19.266737   19.805811   25.821355 C.3        1 MOL1        -0.1477
      21    H14     20.054483   20.161739   25.148153 H          1 MOL1         0.0947
      22    H15     18.660505   20.684342   26.079043 H          1 MOL1         0.0947
      23    C8      19.910142   19.266326   27.112945 C.3        1 MOL1         0.0145
      24    H16     19.130923   18.906221   27.790079 H          1 MOL1         0.0921
      25    H17     20.451240   20.073732   27.613771 H          1 MOL1         0.0921
      26    N1      20.889743   18.133511   26.877529 N.4        1 MOL1        -0.5969
      27    H18     20.436897   17.326544   26.437217 H          1 MOL1         0.3603
      28    H19     21.306625   17.802912   27.754739 H          1 MOL1         0.3603
      29    H20     21.662360   18.419259   26.267247 H          1 MOL1         0.3603
@<TRIPOS>BOND
    1     1     2    1
    2     1     3    1
    3     1     4    1
    4     1     5    1
    5     5     6    1
    6     5     7    1
    7     5     8    1
    8     8     9    1
    9     8    10    1
   10     8    11    1
   11    11    12    1
   12    11    13    1
   13    11    14    1
   14    14    15    1
   15    14    16    1
   16    14    17    1
   17    17    18    1
   18    17    19    1
   19    17    20    1
   20    20    21    1
   21    20    22    1
   22    20    23    1
   23    23    24    1
   24    23    25    1
   25    23    26    1
   26    26    27    1
   27    26    28    1
   28    26    29    1
@<TRIPOS>SUBSTRUCTURE
       1 MOL1            1 RESIDUE      1      MOL     
@<SCITEGIC>MOL_PROPERTY
VM2 Rank
SciTegic.value.IntegerValue
332

@<SCITEGIC>MOL_PROPERTY
Conf_Id
SciTegic.value.IntegerValue
315

@<SCITEGIC>MOL_PROPERTY
Probability
SciTegic.value.DoubleValue
0.00

@<SCITEGIC>MOL_PROPERTY
Sum Probability
SciTegic.value.DoubleValue
99.78

@<SCITEGIC>MOL_PROPERTY
Delta G
SciTegic.value.DoubleValue
4.308

@<SCITEGIC>MOL_PROPERTY
G
SciTegic.value.DoubleValue
62.454

@<SCITEGIC>MOL_PROPERTY
E
SciTegic.value.DoubleValue
24.674

@<SCITEGIC>MOL_PROPERTY
-TS
SciTegic.value.DoubleValue
37.781

@<SCITEGIC>MOL_PROPERTY
U+W
SciTegic.value.DoubleValue
0.529

@<SCITEGIC>MOL_PROPERTY
U
SciTegic.value.DoubleValue
53.096

@<SCITEGIC>MOL_PROPERTY
W
SciTegic.value.DoubleValue
-52.567

@<SCITEGIC>MOL_PROPERTY
W(PB)
SciTegic.value.DoubleValue
-55.017

@<SCITEGIC>MOL_PROPERTY
W(SA)
SciTegic.value.DoubleValue
2.450

@<SCITEGIC>MOL_PROPERTY
Valence
SciTegic.value.DoubleValue
6.150

@<SCITEGIC>MOL_PROPERTY
Coulomb
SciTegic.value.DoubleValue
46.035

@<SCITEGIC>MOL_PROPERTY
VdW
SciTegic.value.DoubleValue
0.911

@<SCITEGIC>MOL_PROPERTY
VdW6
SciTegic.value.DoubleValue
-9.858

@<SCITEGIC>MOL_PROPERTY
VdW12
SciTegic.value.DoubleValue
10.769

@<SCITEGIC>MOL_PROPERTY
Bond
SciTegic.value.DoubleValue
0.290

@<SCITEGIC>MOL_PROPERTY
Angle
SciTegic.value.DoubleValue
1.426

@<SCITEGIC>MOL_PROPERTY
Pdih
SciTegic.value.DoubleValue
4.434

@<SCITEGIC>MOL_PROPERTY
Idih
SciTegic.value.DoubleValue
0.000

@<SCITEGIC>MOL_PROPERTY
Tether
SciTegic.value.DoubleValue
0.000

@<TRIPOS>MOLECULE
guest-3_vm2.mol2 : vm2 ligand conformer 333
          29          28           1
SMALL
USER_CHARGES
 
@<TRIPOS>ATOM
       1    C1      20.698500   20.194482   20.981194 C.3        1 MOL1        -0.2427
       2    H1      20.096571   20.475985   20.107474 H          1 MOL1         0.0958
       3    H2      20.366284   20.796197   21.836352 H          1 MOL1         0.0958
       4    H3      21.741643   20.464638   20.772158 H          1 MOL1         0.0958
       5    C2      20.579037   18.681701   21.273073 C.3        1 MOL1        -0.1412
       6    H4      21.173058   18.427308   22.160800 H          1 MOL1         0.0947
       7    H5      21.030703   18.124294   20.440645 H          1 MOL1         0.0947
       8    C3      19.116013   18.201453   21.450930 C.3        1 MOL1        -0.1437
       9    H6      18.578027   18.346575   20.504037 H          1 MOL1         0.0947
      10    H7      19.119099   17.117707   21.631450 H          1 MOL1         0.0947
      11    C4      18.320748   18.898820   22.584829 C.3        1 MOL1        -0.1437
      12    H8      17.303541   18.483819   22.596874 H          1 MOL1         0.0947
      13    H9      18.207850   19.967746   22.360241 H          1 MOL1         0.0947
      14    C5      18.955400   18.722228   23.984878 C.3        1 MOL1        -0.1437
      15    H10     19.101089   17.652361   24.187894 H          1 MOL1         0.0947
      16    H11     19.942360   19.198401   23.991980 H          1 MOL1         0.0947
      17    C6      18.076956   19.348425   25.093602 C.3        1 MOL1        -0.1437
      18    H12     17.049568   18.973069   24.989265 H          1 MOL1         0.0947
      19    H13     18.022062   20.435953   24.946328 H          1 MOL1         0.0947
      20    C7      18.554901   19.046971   26.537025 C.3        1 MOL1        -0.1477
      21    H14     17.817673   19.472119   27.230982 H          1 MOL1         0.0947
      22    H15     18.553526   17.964527   26.721927 H          1 MOL1         0.0947
      23    C8      19.932953   19.642194   26.893006 C.3        1 MOL1         0.0145
      24    H16     20.010812   19.734814   27.979667 H          1 MOL1         0.0921
      25    H17     20.029219   20.641246   26.459520 H          1 MOL1         0.0921
      26    N1      21.109491   18.801726   26.436464 N.4        1 MOL1        -0.5969
      27    H18     21.110340   18.670356   25.421075 H          1 MOL1         0.3603
      28    H19     21.096655   17.869388   26.863071 H          1 MOL1         0.3603
      29    H20     22.005451   19.233576   26.688400 H          1 MOL1         0.3603
@<TRIPOS>BOND
    1     1     2    1
    2     1     3    1
    3     1     4    1
    4     1     5    1
    5     5     6    1
    6     5     7    1
    7     5     8    1
    8     8     9    1
    9     8    10    1
   10     8    11    1
   11    11    12    1
   12    11    13    1
   13    11    14    1
   14    14    15    1
   15    14    16    1
   16    14    17    1
   17    17    18    1
   18    17    19    1
   19    17    20    1
   20    20    21    1
   21    20    22    1
   22    20    23    1
   23    23    24    1
   24    23    25    1
   25    23    26    1
   26    26    27    1
   27    26    28    1
   28    26    29    1
@<TRIPOS>SUBSTRUCTURE
       1 MOL1            1 RESIDUE      1      MOL     
@<SCITEGIC>MOL_PROPERTY
VM2 Rank
SciTegic.value.IntegerValue
333

@<SCITEGIC>MOL_PROPERTY
Conf_Id
SciTegic.value.IntegerValue
2921

@<SCITEGIC>MOL_PROPERTY
Probability
SciTegic.value.DoubleValue
0.00

@<SCITEGIC>MOL_PROPERTY
Sum Probability
SciTegic.value.DoubleValue
99.78

@<SCITEGIC>MOL_PROPERTY
Delta G
SciTegic.value.DoubleValue
4.309

@<SCITEGIC>MOL_PROPERTY
G
SciTegic.value.DoubleValue
62.455

@<SCITEGIC>MOL_PROPERTY
E
SciTegic.value.DoubleValue
24.681

@<SCITEGIC>MOL_PROPERTY
-TS
SciTegic.value.DoubleValue
37.774

@<SCITEGIC>MOL_PROPERTY
U+W
SciTegic.value.DoubleValue
0.537

@<SCITEGIC>MOL_PROPERTY
U
SciTegic.value.DoubleValue
52.871

@<SCITEGIC>MOL_PROPERTY
W
SciTegic.value.DoubleValue
-52.335

@<SCITEGIC>MOL_PROPERTY
W(PB)
SciTegic.value.DoubleValue
-54.773

@<SCITEGIC>MOL_PROPERTY
W(SA)
SciTegic.value.DoubleValue
2.438

@<SCITEGIC>MOL_PROPERTY
Valence
SciTegic.value.DoubleValue
5.127

@<SCITEGIC>MOL_PROPERTY
Coulomb
SciTegic.value.DoubleValue
47.022

@<SCITEGIC>MOL_PROPERTY
VdW
SciTegic.value.DoubleValue
0.721

@<SCITEGIC>MOL_PROPERTY
VdW6
SciTegic.value.DoubleValue
-10.158

@<SCITEGIC>MOL_PROPERTY
VdW12
SciTegic.value.DoubleValue
10.880

@<SCITEGIC>MOL_PROPERTY
Bond
SciTegic.value.DoubleValue
0.284

@<SCITEGIC>MOL_PROPERTY
Angle
SciTegic.value.DoubleValue
1.604

@<SCITEGIC>MOL_PROPERTY
Pdih
SciTegic.value.DoubleValue
3.240

@<SCITEGIC>MOL_PROPERTY
Idih
SciTegic.value.DoubleValue
0.000

@<SCITEGIC>MOL_PROPERTY
Tether
SciTegic.value.DoubleValue
0.000

@<TRIPOS>MOLECULE
guest-3_vm2.mol2 : vm2 ligand conformer 334
          29          28           1
SMALL
USER_CHARGES
 
@<TRIPOS>ATOM
       1    C1      19.847412   18.145518   19.833300 C.3        1 MOL1        -0.2427
       2    H1      20.902704   18.391763   19.657335 H          1 MOL1         0.0958
       3    H2      19.716297   17.071524   19.647944 H          1 MOL1         0.0958
       4    H3      19.241666   18.690594   19.097651 H          1 MOL1         0.0958
       5    C2      19.427345   18.504907   21.274232 C.3        1 MOL1        -0.1412
       6    H4      20.028968   17.912681   21.976345 H          1 MOL1         0.0947
       7    H5      18.376502   18.223117   21.428449 H          1 MOL1         0.0947
       8    C3      19.613045   20.011946   21.563045 C.3        1 MOL1        -0.1437
       9    H6      20.678190   20.269733   21.484203 H          1 MOL1         0.0947
      10    H7      19.100443   20.590370   20.782066 H          1 MOL1         0.0947
      11    C4      19.073024   20.471716   22.941913 C.3        1 MOL1        -0.1437
      12    H8      17.986823   20.314792   22.993799 H          1 MOL1         0.0947
      13    H9      19.217839   21.558996   23.007030 H          1 MOL1         0.0947
      14    C5      19.771490   19.817316   24.162194 C.3        1 MOL1        -0.1437
      15    H10     20.799285   19.531795   23.899151 H          1 MOL1         0.0947
      16    H11     19.859640   20.574977   24.952189 H          1 MOL1         0.0947
      17    C6      18.999505   18.598217   24.729150 C.3        1 MOL1        -0.1437
      18    H12     18.810088   17.869056   23.932599 H          1 MOL1         0.0947
      19    H13     18.010255   18.920542   25.080420 H          1 MOL1         0.0947
      20    C7      19.755131   17.881338   25.875939 C.3        1 MOL1        -0.1477
      21    H14     19.172587   17.011071   26.206198 H          1 MOL1         0.0947
      22    H15     20.704500   17.485865   25.491042 H          1 MOL1         0.0947
      23    C8      20.051420   18.781251   27.092630 C.3        1 MOL1         0.0145
      24    H16     20.668610   19.628991   26.784269 H          1 MOL1         0.0921
      25    H17     20.608497   18.209739   27.839961 H          1 MOL1         0.0921
      26    N1      18.805628   19.325790   27.762597 N.4        1 MOL1        -0.5969
      27    H18     18.251252   19.898297   27.118240 H          1 MOL1         0.3603
      28    H19     19.033819   19.914880   28.570878 H          1 MOL1         0.3603
      29    H20     18.196780   18.573654   28.101321 H          1 MOL1         0.3603
@<TRIPOS>BOND
    1     1     2    1
    2     1     3    1
    3     1     4    1
    4     1     5    1
    5     5     6    1
    6     5     7    1
    7     5     8    1
    8     8     9    1
    9     8    10    1
   10     8    11    1
   11    11    12    1
   12    11    13    1
   13    11    14    1
   14    14    15    1
   15    14    16    1
   16    14    17    1
   17    17    18    1
   18    17    19    1
   19    17    20    1
   20    20    21    1
   21    20    22    1
   22    20    23    1
   23    23    24    1
   24    23    25    1
   25    23    26    1
   26    26    27    1
   27    26    28    1
   28    26    29    1
@<TRIPOS>SUBSTRUCTURE
       1 MOL1            1 RESIDUE      1      MOL     
@<SCITEGIC>MOL_PROPERTY
VM2 Rank
SciTegic.value.IntegerValue
334

@<SCITEGIC>MOL_PROPERTY
Conf_Id
SciTegic.value.IntegerValue
1047

@<SCITEGIC>MOL_PROPERTY
Probability
SciTegic.value.DoubleValue
0.00

@<SCITEGIC>MOL_PROPERTY
Sum Probability
SciTegic.value.DoubleValue
99.79

@<SCITEGIC>MOL_PROPERTY
Delta G
SciTegic.value.DoubleValue
4.310

@<SCITEGIC>MOL_PROPERTY
G
SciTegic.value.DoubleValue
62.456

@<SCITEGIC>MOL_PROPERTY
E
SciTegic.value.DoubleValue
24.578

@<SCITEGIC>MOL_PROPERTY
-TS
SciTegic.value.DoubleValue
37.879

@<SCITEGIC>MOL_PROPERTY
U+W
SciTegic.value.DoubleValue
0.433

@<SCITEGIC>MOL_PROPERTY
U
SciTegic.value.DoubleValue
52.490

@<SCITEGIC>MOL_PROPERTY
W
SciTegic.value.DoubleValue
-52.056

@<SCITEGIC>MOL_PROPERTY
W(PB)
SciTegic.value.DoubleValue
-54.496

@<SCITEGIC>MOL_PROPERTY
W(SA)
SciTegic.value.DoubleValue
2.440

@<SCITEGIC>MOL_PROPERTY
Valence
SciTegic.value.DoubleValue
6.033

@<SCITEGIC>MOL_PROPERTY
Coulomb
SciTegic.value.DoubleValue
45.582

@<SCITEGIC>MOL_PROPERTY
VdW
SciTegic.value.DoubleValue
0.875

@<SCITEGIC>MOL_PROPERTY
VdW6
SciTegic.value.DoubleValue
-9.906

@<SCITEGIC>MOL_PROPERTY
VdW12
SciTegic.value.DoubleValue
10.781

@<SCITEGIC>MOL_PROPERTY
Bond
SciTegic.value.DoubleValue
0.281

@<SCITEGIC>MOL_PROPERTY
Angle
SciTegic.value.DoubleValue
1.358

@<SCITEGIC>MOL_PROPERTY
Pdih
SciTegic.value.DoubleValue
4.393

@<SCITEGIC>MOL_PROPERTY
Idih
SciTegic.value.DoubleValue
0.000

@<SCITEGIC>MOL_PROPERTY
Tether
SciTegic.value.DoubleValue
0.000

@<TRIPOS>MOLECULE
guest-3_vm2.mol2 : vm2 ligand conformer 335
          29          28           1
SMALL
USER_CHARGES
 
@<TRIPOS>ATOM
       1    C1      19.879571   18.092027   20.274120 C.3        1 MOL1        -0.2427
       2    H1      19.544779   18.940531   19.663408 H          1 MOL1         0.0958
       3    H2      20.929708   18.256044   20.545536 H          1 MOL1         0.0958
       4    H3      19.837890   17.190996   19.648573 H          1 MOL1         0.0958
       5    C2      18.988896   17.922648   21.525705 C.3        1 MOL1        -0.1412
       6    H4      19.364506   17.090088   22.136782 H          1 MOL1         0.0947
       7    H5      17.978100   17.635869   21.203554 H          1 MOL1         0.0947
       8    C3      18.889015   19.202636   22.389923 C.3        1 MOL1        -0.1437
       9    H6      18.498765   20.028430   21.779450 H          1 MOL1         0.0947
      10    H7      18.145016   19.024000   23.175846 H          1 MOL1         0.0947
      11    C4      20.238158   19.620592   23.028320 C.3        1 MOL1        -0.1437
      12    H8      20.956175   19.850937   22.230660 H          1 MOL1         0.0947
      13    H9      20.673920   18.782382   23.585790 H          1 MOL1         0.0947
      14    C5      20.132530   20.867776   23.941752 C.3        1 MOL1        -0.1437
      15    H10     21.141124   21.132199   24.288128 H          1 MOL1         0.0947
      16    H11     19.795256   21.719293   23.334824 H          1 MOL1         0.0947
      17    C6      19.200266   20.742813   25.177621 C.3        1 MOL1        -0.1437
      18    H12     18.155923   20.609351   24.865831 H          1 MOL1         0.0947
      19    H13     19.224478   21.707877   25.702408 H          1 MOL1         0.0947
      20    C7      19.603027   19.641134   26.190465 C.3        1 MOL1        -0.1477
      21    H14     20.696787   19.583075   26.268449 H          1 MOL1         0.0947
      22    H15     19.236392   19.930388   27.184380 H          1 MOL1         0.0947
      23    C8      19.017292   18.257307   25.849860 C.3        1 MOL1         0.0145
      24    H16     19.367541   17.928694   24.869694 H          1 MOL1         0.0921
      25    H17     17.926196   18.319315   25.819397 H          1 MOL1         0.0921
      26    N1      19.395246   17.191067   26.857234 N.4        1 MOL1        -0.5969
      27    H18     18.992773   16.278758   26.615953 H          1 MOL1         0.3603
      28    H19     19.065413   17.423122   27.799976 H          1 MOL1         0.3603
      29    H20     20.411020   17.064163   26.915698 H          1 MOL1         0.3603
@<TRIPOS>BOND
    1     1     2    1
    2     1     3    1
    3     1     4    1
    4     1     5    1
    5     5     6    1
    6     5     7    1
    7     5     8    1
    8     8     9    1
    9     8    10    1
   10     8    11    1
   11    11    12    1
   12    11    13    1
   13    11    14    1
   14    14    15    1
   15    14    16    1
   16    14    17    1
   17    17    18    1
   18    17    19    1
   19    17    20    1
   20    20    21    1
   21    20    22    1
   22    20    23    1
   23    23    24    1
   24    23    25    1
   25    23    26    1
   26    26    27    1
   27    26    28    1
   28    26    29    1
@<TRIPOS>SUBSTRUCTURE
       1 MOL1            1 RESIDUE      1      MOL     
@<SCITEGIC>MOL_PROPERTY
VM2 Rank
SciTegic.value.IntegerValue
335

@<SCITEGIC>MOL_PROPERTY
Conf_Id
SciTegic.value.IntegerValue
1444

@<SCITEGIC>MOL_PROPERTY
Probability
SciTegic.value.DoubleValue
0.00

@<SCITEGIC>MOL_PROPERTY
Sum Probability
SciTegic.value.DoubleValue
99.79

@<SCITEGIC>MOL_PROPERTY
Delta G
SciTegic.value.DoubleValue
4.311

@<SCITEGIC>MOL_PROPERTY
G
SciTegic.value.DoubleValue
62.457

@<SCITEGIC>MOL_PROPERTY
E
SciTegic.value.DoubleValue
24.289

@<SCITEGIC>MOL_PROPERTY
-TS
SciTegic.value.DoubleValue
38.168

@<SCITEGIC>MOL_PROPERTY
U+W
SciTegic.value.DoubleValue
0.145

@<SCITEGIC>MOL_PROPERTY
U
SciTegic.value.DoubleValue
52.832

@<SCITEGIC>MOL_PROPERTY
W
SciTegic.value.DoubleValue
-52.687

@<SCITEGIC>MOL_PROPERTY
W(PB)
SciTegic.value.DoubleValue
-55.127

@<SCITEGIC>MOL_PROPERTY
W(SA)
SciTegic.value.DoubleValue
2.440

@<SCITEGIC>MOL_PROPERTY
Valence
SciTegic.value.DoubleValue
6.054

@<SCITEGIC>MOL_PROPERTY
Coulomb
SciTegic.value.DoubleValue
46.264

@<SCITEGIC>MOL_PROPERTY
VdW
SciTegic.value.DoubleValue
0.513

@<SCITEGIC>MOL_PROPERTY
VdW6
SciTegic.value.DoubleValue
-10.689

@<SCITEGIC>MOL_PROPERTY
VdW12
SciTegic.value.DoubleValue
11.203

@<SCITEGIC>MOL_PROPERTY
Bond
SciTegic.value.DoubleValue
0.303

@<SCITEGIC>MOL_PROPERTY
Angle
SciTegic.value.DoubleValue
2.010

@<SCITEGIC>MOL_PROPERTY
Pdih
SciTegic.value.DoubleValue
3.740

@<SCITEGIC>MOL_PROPERTY
Idih
SciTegic.value.DoubleValue
0.000

@<SCITEGIC>MOL_PROPERTY
Tether
SciTegic.value.DoubleValue
0.000

@<TRIPOS>MOLECULE
guest-3_vm2.mol2 : vm2 ligand conformer 336
          29          28           1
SMALL
USER_CHARGES
 
@<TRIPOS>ATOM
       1    C1      18.938750   19.226244   20.046671 C.3        1 MOL1        -0.2427
       2    H1      18.841713   20.290503   19.795926 H          1 MOL1         0.0958
       3    H2      18.876755   18.653504   19.112349 H          1 MOL1         0.0958
       4    H3      18.081039   18.939236   20.667671 H          1 MOL1         0.0958
       5    C2      20.277245   18.945305   20.766061 C.3        1 MOL1        -0.1412
       6    H4      21.101881   19.135705   20.065106 H          1 MOL1         0.0947
       7    H5      20.343224   17.879936   21.024217 H          1 MOL1         0.0947
       8    C3      20.492986   19.817556   22.029034 C.3        1 MOL1        -0.1437
       9    H6      21.476354   19.581214   22.458247 H          1 MOL1         0.0947
      10    H7      20.543153   20.872555   21.726446 H          1 MOL1         0.0947
      11    C4      19.413696   19.668121   23.132254 C.3        1 MOL1        -0.1437
      12    H8      18.441049   20.003828   22.749148 H          1 MOL1         0.0947
      13    H9      19.664857   20.357680   23.946043 H          1 MOL1         0.0947
      14    C5      19.286433   18.222846   23.679062 C.3        1 MOL1        -0.1437
      15    H10     18.931624   17.574488   22.867120 H          1 MOL1         0.0947
      16    H11     20.272312   17.835513   23.970586 H          1 MOL1         0.0947
      17    C6      18.292236   18.092255   24.862167 C.3        1 MOL1        -0.1437
      18    H12     17.822370   17.100481   24.806818 H          1 MOL1         0.0947
      19    H13     17.472871   18.816155   24.752645 H          1 MOL1         0.0947
      20    C7      18.939568   18.224404   26.263662 C.3        1 MOL1        -0.1477
      21    H14     18.169829   18.038718   27.024542 H          1 MOL1         0.0947
      22    H15     19.698373   17.440998   26.391723 H          1 MOL1         0.0947
      23    C8      19.577383   19.599929   26.525501 C.3        1 MOL1         0.0145
      24    H16     18.833725   20.386501   26.371929 H          1 MOL1         0.0921
      25    H17     20.402878   19.760654   25.827535 H          1 MOL1         0.0921
      26    N1      20.125703   19.741338   27.930587 N.4        1 MOL1        -0.5969
      27    H18     20.548342   20.663564   28.083790 H          1 MOL1         0.3603
      28    H19     20.850274   19.043585   28.129527 H          1 MOL1         0.3603
      29    H20     19.393558   19.626815   28.639314 H          1 MOL1         0.3603
@<TRIPOS>BOND
    1     1     2    1
    2     1     3    1
    3     1     4    1
    4     1     5    1
    5     5     6    1
    6     5     7    1
    7     5     8    1
    8     8     9    1
    9     8    10    1
   10     8    11    1
   11    11    12    1
   12    11    13    1
   13    11    14    1
   14    14    15    1
   15    14    16    1
   16    14    17    1
   17    17    18    1
   18    17    19    1
   19    17    20    1
   20    20    21    1
   21    20    22    1
   22    20    23    1
   23    23    24    1
   24    23    25    1
   25    23    26    1
   26    26    27    1
   27    26    28    1
   28    26    29    1
@<TRIPOS>SUBSTRUCTURE
       1 MOL1            1 RESIDUE      1      MOL     
@<SCITEGIC>MOL_PROPERTY
VM2 Rank
SciTegic.value.IntegerValue
336

@<SCITEGIC>MOL_PROPERTY
Conf_Id
SciTegic.value.IntegerValue
2625

@<SCITEGIC>MOL_PROPERTY
Probability
SciTegic.value.DoubleValue
0.00

@<SCITEGIC>MOL_PROPERTY
Sum Probability
SciTegic.value.DoubleValue
99.80

@<SCITEGIC>MOL_PROPERTY
Delta G
SciTegic.value.DoubleValue
4.327

@<SCITEGIC>MOL_PROPERTY
G
SciTegic.value.DoubleValue
62.473

@<SCITEGIC>MOL_PROPERTY
E
SciTegic.value.DoubleValue
24.639

@<SCITEGIC>MOL_PROPERTY
-TS
SciTegic.value.DoubleValue
37.834

@<SCITEGIC>MOL_PROPERTY
U+W
SciTegic.value.DoubleValue
0.494

@<SCITEGIC>MOL_PROPERTY
U
SciTegic.value.DoubleValue
52.510

@<SCITEGIC>MOL_PROPERTY
W
SciTegic.value.DoubleValue
-52.016

@<SCITEGIC>MOL_PROPERTY
W(PB)
SciTegic.value.DoubleValue
-54.486

@<SCITEGIC>MOL_PROPERTY
W(SA)
SciTegic.value.DoubleValue
2.471

@<SCITEGIC>MOL_PROPERTY
Valence
SciTegic.value.DoubleValue
6.159

@<SCITEGIC>MOL_PROPERTY
Coulomb
SciTegic.value.DoubleValue
45.451

@<SCITEGIC>MOL_PROPERTY
VdW
SciTegic.value.DoubleValue
0.900

@<SCITEGIC>MOL_PROPERTY
VdW6
SciTegic.value.DoubleValue
-10.010

@<SCITEGIC>MOL_PROPERTY
VdW12
SciTegic.value.DoubleValue
10.911

@<SCITEGIC>MOL_PROPERTY
Bond
SciTegic.value.DoubleValue
0.308

@<SCITEGIC>MOL_PROPERTY
Angle
SciTegic.value.DoubleValue
1.698

@<SCITEGIC>MOL_PROPERTY
Pdih
SciTegic.value.DoubleValue
4.153

@<SCITEGIC>MOL_PROPERTY
Idih
SciTegic.value.DoubleValue
0.000

@<SCITEGIC>MOL_PROPERTY
Tether
SciTegic.value.DoubleValue
0.000

@<TRIPOS>MOLECULE
guest-3_vm2.mol2 : vm2 ligand conformer 337
          29          28           1
SMALL
USER_CHARGES
 
@<TRIPOS>ATOM
       1    C1      20.341579   18.252707   19.723180 C.3        1 MOL1        -0.2427
       2    H1      20.411051   19.236430   19.240774 H          1 MOL1         0.0958
       3    H2      21.355137   17.936173   20.002006 H          1 MOL1         0.0958
       4    H3      19.957852   17.539999   18.981667 H          1 MOL1         0.0958
       5    C2      19.417380   18.304729   20.958045 C.3        1 MOL1        -0.1412
       6    H4      19.340885   17.300722   21.398449 H          1 MOL1         0.0947
       7    H5      18.404044   18.590993   20.643232 H          1 MOL1         0.0947
       8    C3      19.935160   19.301817   22.018000 C.3        1 MOL1        -0.1437
       9    H6      20.949515   19.013674   22.326481 H          1 MOL1         0.0947
      10    H7      20.011495   20.303105   21.571844 H          1 MOL1         0.0947
      11    C4      19.011919   19.356707   23.255826 C.3        1 MOL1        -0.1437
      12    H8      18.925872   18.350859   23.685020 H          1 MOL1         0.0947
      13    H9      18.000762   19.653908   22.945102 H          1 MOL1         0.0947
      14    C5      19.535230   20.353578   24.317784 C.3        1 MOL1        -0.1437
      15    H10     20.551394   20.083317   24.630063 H          1 MOL1         0.0947
      16    H11     19.624448   21.345870   23.854222 H          1 MOL1         0.0947
      17    C6      18.613178   20.481691   25.556902 C.3        1 MOL1        -0.1437
      18    H12     17.639687   20.873588   25.231381 H          1 MOL1         0.0947
      19    H13     19.032133   21.244847   26.227276 H          1 MOL1         0.0947
      20    C7      18.374448   19.181645   26.371009 C.3        1 MOL1        -0.1477
      21    H14     17.687094   19.424956   27.192036 H          1 MOL1         0.0947
      22    H15     17.854450   18.428761   25.765204 H          1 MOL1         0.0947
      23    C8      19.649777   18.577366   26.994307 C.3        1 MOL1         0.0145
      24    H16     19.368819   17.935271   27.833475 H          1 MOL1         0.0921
      25    H17     20.287910   19.377762   27.378191 H          1 MOL1         0.0921
      26    N1      20.465329   17.727758   26.039947 N.4        1 MOL1        -0.5969
      27    H18     20.741623   18.258125   25.208108 H          1 MOL1         0.3603
      28    H19     19.938336   16.909381   25.718045 H          1 MOL1         0.3603
      29    H20     21.323212   17.377551   26.480566 H          1 MOL1         0.3603
@<TRIPOS>BOND
    1     1     2    1
    2     1     3    1
    3     1     4    1
    4     1     5    1
    5     5     6    1
    6     5     7    1
    7     5     8    1
    8     8     9    1
    9     8    10    1
   10     8    11    1
   11    11    12    1
   12    11    13    1
   13    11    14    1
   14    14    15    1
   15    14    16    1
   16    14    17    1
   17    17    18    1
   18    17    19    1
   19    17    20    1
   20    20    21    1
   21    20    22    1
   22    20    23    1
   23    23    24    1
   24    23    25    1
   25    23    26    1
   26    26    27    1
   27    26    28    1
   28    26    29    1
@<TRIPOS>SUBSTRUCTURE
       1 MOL1            1 RESIDUE      1      MOL     
@<SCITEGIC>MOL_PROPERTY
VM2 Rank
SciTegic.value.IntegerValue
337

@<SCITEGIC>MOL_PROPERTY
Conf_Id
SciTegic.value.IntegerValue
2123

@<SCITEGIC>MOL_PROPERTY
Probability
SciTegic.value.DoubleValue
0.00

@<SCITEGIC>MOL_PROPERTY
Sum Probability
SciTegic.value.DoubleValue
99.80

@<SCITEGIC>MOL_PROPERTY
Delta G
SciTegic.value.DoubleValue
4.335

@<SCITEGIC>MOL_PROPERTY
G
SciTegic.value.DoubleValue
62.482

@<SCITEGIC>MOL_PROPERTY
E
SciTegic.value.DoubleValue
24.523

@<SCITEGIC>MOL_PROPERTY
-TS
SciTegic.value.DoubleValue
37.959

@<SCITEGIC>MOL_PROPERTY
U+W
SciTegic.value.DoubleValue
0.378

@<SCITEGIC>MOL_PROPERTY
U
SciTegic.value.DoubleValue
52.294

@<SCITEGIC>MOL_PROPERTY
W
SciTegic.value.DoubleValue
-51.916

@<SCITEGIC>MOL_PROPERTY
W(PB)
SciTegic.value.DoubleValue
-54.355

@<SCITEGIC>MOL_PROPERTY
W(SA)
SciTegic.value.DoubleValue
2.439

@<SCITEGIC>MOL_PROPERTY
Valence
SciTegic.value.DoubleValue
4.642

@<SCITEGIC>MOL_PROPERTY
Coulomb
SciTegic.value.DoubleValue
47.211

@<SCITEGIC>MOL_PROPERTY
VdW
SciTegic.value.DoubleValue
0.441

@<SCITEGIC>MOL_PROPERTY
VdW6
SciTegic.value.DoubleValue
-9.834

@<SCITEGIC>MOL_PROPERTY
VdW12
SciTegic.value.DoubleValue
10.275

@<SCITEGIC>MOL_PROPERTY
Bond
SciTegic.value.DoubleValue
0.247

@<SCITEGIC>MOL_PROPERTY
Angle
SciTegic.value.DoubleValue
1.461

@<SCITEGIC>MOL_PROPERTY
Pdih
SciTegic.value.DoubleValue
2.934

@<SCITEGIC>MOL_PROPERTY
Idih
SciTegic.value.DoubleValue
0.000

@<SCITEGIC>MOL_PROPERTY
Tether
SciTegic.value.DoubleValue
0.000

@<TRIPOS>MOLECULE
guest-3_vm2.mol2 : vm2 ligand conformer 338
          29          28           1
SMALL
USER_CHARGES
 
@<TRIPOS>ATOM
       1    C1      20.453372   19.702689   20.310389 C.3        1 MOL1        -0.2427
       2    H1      21.159781   18.901532   20.560369 H          1 MOL1         0.0958
       3    H2      19.666696   19.281571   19.671004 H          1 MOL1         0.0958
       4    H3      20.999283   20.451451   19.721968 H          1 MOL1         0.0958
       5    C2      19.851962   20.346718   21.580030 C.3        1 MOL1        -0.1412
       6    H4      19.254219   21.220000   21.283694 H          1 MOL1         0.0947
       7    H5      20.660197   20.729817   22.218498 H          1 MOL1         0.0947
       8    C3      18.953660   19.384473   22.393881 C.3        1 MOL1        -0.1437
       9    H6      18.478519   19.961524   23.196611 H          1 MOL1         0.0947
      10    H7      18.138321   19.015833   21.756513 H          1 MOL1         0.0947
      11    C4      19.726287   18.183364   22.996214 C.3        1 MOL1        -0.1437
      12    H8      20.585669   18.534959   23.580254 H          1 MOL1         0.0947
      13    H9      20.148556   17.583011   22.180041 H          1 MOL1         0.0947
      14    C5      18.843638   17.248413   23.860958 C.3        1 MOL1        -0.1437
      15    H10     18.052793   16.826358   23.225639 H          1 MOL1         0.0947
      16    H11     19.453396   16.392779   24.182275 H          1 MOL1         0.0947
      17    C6      18.182719   17.885164   25.113894 C.3        1 MOL1        -0.1437
      18    H12     17.584492   17.101953   25.599736 H          1 MOL1         0.0947
      19    H13     17.461952   18.660557   24.822451 H          1 MOL1         0.0947
      20    C7      19.176663   18.443557   26.163675 C.3        1 MOL1        -0.1477
      21    H14     18.695884   18.411839   27.150491 H          1 MOL1         0.0947
      22    H15     20.060018   17.794507   26.228345 H          1 MOL1         0.0947
      23    C8      19.601573   19.898426   25.886395 C.3        1 MOL1         0.0145
      24    H16     18.717142   20.540883   25.869132 H          1 MOL1         0.0921
      25    H17     20.094213   19.970443   24.915053 H          1 MOL1         0.0921
      26    N1      20.554127   20.445196   26.929565 N.4        1 MOL1        -0.5969
      27    H18     20.138843   20.436496   27.867043 H          1 MOL1         0.3603
      28    H19     20.821835   21.415316   26.730295 H          1 MOL1         0.3603
      29    H20     21.420791   19.899461   26.978416 H          1 MOL1         0.3603
@<TRIPOS>BOND
    1     1     2    1
    2     1     3    1
    3     1     4    1
    4     1     5    1
    5     5     6    1
    6     5     7    1
    7     5     8    1
    8     8     9    1
    9     8    10    1
   10     8    11    1
   11    11    12    1
   12    11    13    1
   13    11    14    1
   14    14    15    1
   15    14    16    1
   16    14    17    1
   17    17    18    1
   18    17    19    1
   19    17    20    1
   20    20    21    1
   21    20    22    1
   22    20    23    1
   23    23    24    1
   24    23    25    1
   25    23    26    1
   26    26    27    1
   27    26    28    1
   28    26    29    1
@<TRIPOS>SUBSTRUCTURE
       1 MOL1            1 RESIDUE      1      MOL     
@<SCITEGIC>MOL_PROPERTY
VM2 Rank
SciTegic.value.IntegerValue
338

@<SCITEGIC>MOL_PROPERTY
Conf_Id
SciTegic.value.IntegerValue
2080

@<SCITEGIC>MOL_PROPERTY
Probability
SciTegic.value.DoubleValue
0.00

@<SCITEGIC>MOL_PROPERTY
Sum Probability
SciTegic.value.DoubleValue
99.80

@<SCITEGIC>MOL_PROPERTY
Delta G
SciTegic.value.DoubleValue
4.339

@<SCITEGIC>MOL_PROPERTY
G
SciTegic.value.DoubleValue
62.486

@<SCITEGIC>MOL_PROPERTY
E
SciTegic.value.DoubleValue
24.317

@<SCITEGIC>MOL_PROPERTY
-TS
SciTegic.value.DoubleValue
38.169

@<SCITEGIC>MOL_PROPERTY
U+W
SciTegic.value.DoubleValue
0.172

@<SCITEGIC>MOL_PROPERTY
U
SciTegic.value.DoubleValue
52.832

@<SCITEGIC>MOL_PROPERTY
W
SciTegic.value.DoubleValue
-52.660

@<SCITEGIC>MOL_PROPERTY
W(PB)
SciTegic.value.DoubleValue
-55.092

@<SCITEGIC>MOL_PROPERTY
W(SA)
SciTegic.value.DoubleValue
2.433

@<SCITEGIC>MOL_PROPERTY
Valence
SciTegic.value.DoubleValue
6.054

@<SCITEGIC>MOL_PROPERTY
Coulomb
SciTegic.value.DoubleValue
46.264

@<SCITEGIC>MOL_PROPERTY
VdW
SciTegic.value.DoubleValue
0.513

@<SCITEGIC>MOL_PROPERTY
VdW6
SciTegic.value.DoubleValue
-10.689

@<SCITEGIC>MOL_PROPERTY
VdW12
SciTegic.value.DoubleValue
11.203

@<SCITEGIC>MOL_PROPERTY
Bond
SciTegic.value.DoubleValue
0.304

@<SCITEGIC>MOL_PROPERTY
Angle
SciTegic.value.DoubleValue
2.010

@<SCITEGIC>MOL_PROPERTY
Pdih
SciTegic.value.DoubleValue
3.740

@<SCITEGIC>MOL_PROPERTY
Idih
SciTegic.value.DoubleValue
0.000

@<SCITEGIC>MOL_PROPERTY
Tether
SciTegic.value.DoubleValue
0.000

@<TRIPOS>MOLECULE
guest-3_vm2.mol2 : vm2 ligand conformer 339
          29          28           1
SMALL
USER_CHARGES
 
@<TRIPOS>ATOM
       1    C1      20.791467   18.404161   20.417684 C.3        1 MOL1        -0.2427
       2    H1      21.352576   18.450264   21.357282 H          1 MOL1         0.0958
       3    H2      21.063562   17.467269   19.914615 H          1 MOL1         0.0958
       4    H3      21.127907   19.233225   19.781700 H          1 MOL1         0.0958
       5    C2      19.263599   18.469764   20.647425 C.3        1 MOL1        -0.1412
       6    H4      18.928342   17.603712   21.234880 H          1 MOL1         0.0947
       7    H5      18.771021   18.380380   19.669042 H          1 MOL1         0.0947
       8    C3      18.795088   19.788018   21.315799 C.3        1 MOL1        -0.1437
       9    H6      19.458206   20.616179   21.030289 H          1 MOL1         0.0947
      10    H7      17.808223   20.045284   20.906824 H          1 MOL1         0.0947
      11    C4      18.655879   19.722037   22.858626 C.3        1 MOL1        -0.1437
      12    H8      17.917424   18.951803   23.117139 H          1 MOL1         0.0947
      13    H9      18.239916   20.677287   23.207216 H          1 MOL1         0.0947
      14    C5      19.983873   19.448927   23.606053 C.3        1 MOL1        -0.1437
      15    H10     20.320508   18.423925   23.403453 H          1 MOL1         0.0947
      16    H11     20.760300   20.120454   23.214645 H          1 MOL1         0.0947
      17    C6      19.883943   19.653399   25.137642 C.3        1 MOL1        -0.1437
      18    H12     19.564948   20.682931   25.351408 H          1 MOL1         0.0947
      19    H13     20.890594   19.547655   25.563089 H          1 MOL1         0.0947
      20    C7      18.923537   18.655159   25.831494 C.3        1 MOL1        -0.1477
      21    H14     17.907600   18.782347   25.437330 H          1 MOL1         0.0947
      22    H15     19.223133   17.623693   25.603253 H          1 MOL1         0.0947
      23    C8      18.868413   18.848516   27.359177 C.3        1 MOL1         0.0145
      24    H16     18.107813   18.185833   27.780923 H          1 MOL1         0.0921
      25    H17     18.588144   19.879821   27.589922 H          1 MOL1         0.0921
      26    N1      20.178200   18.548019   28.061100 N.4        1 MOL1        -0.5969
      27    H18     20.483565   17.582648   27.899603 H          1 MOL1         0.3603
      28    H19     20.103319   18.673156   29.076636 H          1 MOL1         0.3603
      29    H20     20.931687   19.162638   27.737583 H          1 MOL1         0.3603
@<TRIPOS>BOND
    1     1     2    1
    2     1     3    1
    3     1     4    1
    4     1     5    1
    5     5     6    1
    6     5     7    1
    7     5     8    1
    8     8     9    1
    9     8    10    1
   10     8    11    1
   11    11    12    1
   12    11    13    1
   13    11    14    1
   14    14    15    1
   15    14    16    1
   16    14    17    1
   17    17    18    1
   18    17    19    1
   19    17    20    1
   20    20    21    1
   21    20    22    1
   22    20    23    1
   23    23    24    1
   24    23    25    1
   25    23    26    1
   26    26    27    1
   27    26    28    1
   28    26    29    1
@<TRIPOS>SUBSTRUCTURE
       1 MOL1            1 RESIDUE      1      MOL     
@<SCITEGIC>MOL_PROPERTY
VM2 Rank
SciTegic.value.IntegerValue
339

@<SCITEGIC>MOL_PROPERTY
Conf_Id
SciTegic.value.IntegerValue
648

@<SCITEGIC>MOL_PROPERTY
Probability
SciTegic.value.DoubleValue
0.00

@<SCITEGIC>MOL_PROPERTY
Sum Probability
SciTegic.value.DoubleValue
99.81

@<SCITEGIC>MOL_PROPERTY
Delta G
SciTegic.value.DoubleValue
4.352

@<SCITEGIC>MOL_PROPERTY
G
SciTegic.value.DoubleValue
62.498

@<SCITEGIC>MOL_PROPERTY
E
SciTegic.value.DoubleValue
24.766

@<SCITEGIC>MOL_PROPERTY
-TS
SciTegic.value.DoubleValue
37.733

@<SCITEGIC>MOL_PROPERTY
U+W
SciTegic.value.DoubleValue
0.621

@<SCITEGIC>MOL_PROPERTY
U
SciTegic.value.DoubleValue
52.316

@<SCITEGIC>MOL_PROPERTY
W
SciTegic.value.DoubleValue
-51.695

@<SCITEGIC>MOL_PROPERTY
W(PB)
SciTegic.value.DoubleValue
-54.162

@<SCITEGIC>MOL_PROPERTY
W(SA)
SciTegic.value.DoubleValue
2.468

@<SCITEGIC>MOL_PROPERTY
Valence
SciTegic.value.DoubleValue
6.187

@<SCITEGIC>MOL_PROPERTY
Coulomb
SciTegic.value.DoubleValue
45.052

@<SCITEGIC>MOL_PROPERTY
VdW
SciTegic.value.DoubleValue
1.077

@<SCITEGIC>MOL_PROPERTY
VdW6
SciTegic.value.DoubleValue
-9.659

@<SCITEGIC>MOL_PROPERTY
VdW12
SciTegic.value.DoubleValue
10.736

@<SCITEGIC>MOL_PROPERTY
Bond
SciTegic.value.DoubleValue
0.292

@<SCITEGIC>MOL_PROPERTY
Angle
SciTegic.value.DoubleValue
1.476

@<SCITEGIC>MOL_PROPERTY
Pdih
SciTegic.value.DoubleValue
4.419

@<SCITEGIC>MOL_PROPERTY
Idih
SciTegic.value.DoubleValue
0.000

@<SCITEGIC>MOL_PROPERTY
Tether
SciTegic.value.DoubleValue
0.000

@<TRIPOS>MOLECULE
guest-3_vm2.mol2 : vm2 ligand conformer 340
          29          28           1
SMALL
USER_CHARGES
 
@<TRIPOS>ATOM
       1    C1      19.350056   18.293203   19.752400 C.3        1 MOL1        -0.2427
       2    H1      19.555683   19.244883   19.245185 H          1 MOL1         0.0958
       3    H2      20.184462   17.609565   19.548380 H          1 MOL1         0.0958
       4    H3      18.444529   17.862023   19.306157 H          1 MOL1         0.0958
       5    C2      19.162706   18.503306   21.269855 C.3        1 MOL1        -0.1412
       6    H4      18.929601   17.540125   21.744821 H          1 MOL1         0.0947
       7    H5      18.296577   19.157789   21.434486 H          1 MOL1         0.0947
       8    C3      20.425855   19.114666   21.920692 C.3        1 MOL1        -0.1437
       9    H6      21.292613   18.484416   21.678158 H          1 MOL1         0.0947
      10    H7      20.629489   20.100664   21.480754 H          1 MOL1         0.0947
      11    C4      20.327237   19.241872   23.460576 C.3        1 MOL1        -0.1437
      12    H8      21.303625   19.570678   23.841657 H          1 MOL1         0.0947
      13    H9      20.146848   18.248531   23.885698 H          1 MOL1         0.0947
      14    C5      19.239920   20.245348   23.924794 C.3        1 MOL1        -0.1437
      15    H10     19.405105   21.193659   23.394960 H          1 MOL1         0.0947
      16    H11     18.240740   19.901060   23.627949 H          1 MOL1         0.0947
      17    C6      19.257212   20.538118   25.448097 C.3        1 MOL1        -0.1437
      18    H12     18.851898   21.548246   25.598965 H          1 MOL1         0.0947
      19    H13     20.289851   20.581539   25.818900 H          1 MOL1         0.0947
      20    C7      18.404676   19.569228   26.310342 C.3        1 MOL1        -0.1477
      21    H14     18.388140   19.936516   27.345055 H          1 MOL1         0.0947
      22    H15     17.363200   19.598335   25.963656 H          1 MOL1         0.0947
      23    C8      18.880392   18.104079   26.317792 C.3        1 MOL1         0.0145
      24    H16     18.824637   17.690976   25.308388 H          1 MOL1         0.0921
      25    H17     18.220175   17.513469   26.958678 H          1 MOL1         0.0921
      26    N1      20.295946   17.928180   26.830452 N.4        1 MOL1        -0.5969
      27    H18     20.394608   18.266342   27.793327 H          1 MOL1         0.3603
      28    H19     20.969567   18.444767   26.256724 H          1 MOL1         0.3603
      29    H20     20.583608   16.943490   26.826876 H          1 MOL1         0.3603
@<TRIPOS>BOND
    1     1     2    1
    2     1     3    1
    3     1     4    1
    4     1     5    1
    5     5     6    1
    6     5     7    1
    7     5     8    1
    8     8     9    1
    9     8    10    1
   10     8    11    1
   11    11    12    1
   12    11    13    1
   13    11    14    1
   14    14    15    1
   15    14    16    1
   16    14    17    1
   17    17    18    1
   18    17    19    1
   19    17    20    1
   20    20    21    1
   21    20    22    1
   22    20    23    1
   23    23    24    1
   24    23    25    1
   25    23    26    1
   26    26    27    1
   27    26    28    1
   28    26    29    1
@<TRIPOS>SUBSTRUCTURE
       1 MOL1            1 RESIDUE      1      MOL     
@<SCITEGIC>MOL_PROPERTY
VM2 Rank
SciTegic.value.IntegerValue
340

@<SCITEGIC>MOL_PROPERTY
Conf_Id
SciTegic.value.IntegerValue
666

@<SCITEGIC>MOL_PROPERTY
Probability
SciTegic.value.DoubleValue
0.00

@<SCITEGIC>MOL_PROPERTY
Sum Probability
SciTegic.value.DoubleValue
99.81

@<SCITEGIC>MOL_PROPERTY
Delta G
SciTegic.value.DoubleValue
4.353

@<SCITEGIC>MOL_PROPERTY
G
SciTegic.value.DoubleValue
62.499

@<SCITEGIC>MOL_PROPERTY
E
SciTegic.value.DoubleValue
24.720

@<SCITEGIC>MOL_PROPERTY
-TS
SciTegic.value.DoubleValue
37.779

@<SCITEGIC>MOL_PROPERTY
U+W
SciTegic.value.DoubleValue
0.575

@<SCITEGIC>MOL_PROPERTY
U
SciTegic.value.DoubleValue
53.002

@<SCITEGIC>MOL_PROPERTY
W
SciTegic.value.DoubleValue
-52.427

@<SCITEGIC>MOL_PROPERTY
W(PB)
SciTegic.value.DoubleValue
-54.857

@<SCITEGIC>MOL_PROPERTY
W(SA)
SciTegic.value.DoubleValue
2.430

@<SCITEGIC>MOL_PROPERTY
Valence
SciTegic.value.DoubleValue
5.790

@<SCITEGIC>MOL_PROPERTY
Coulomb
SciTegic.value.DoubleValue
46.543

@<SCITEGIC>MOL_PROPERTY
VdW
SciTegic.value.DoubleValue
0.669

@<SCITEGIC>MOL_PROPERTY
VdW6
SciTegic.value.DoubleValue
-10.153

@<SCITEGIC>MOL_PROPERTY
VdW12
SciTegic.value.DoubleValue
10.822

@<SCITEGIC>MOL_PROPERTY
Bond
SciTegic.value.DoubleValue
0.297

@<SCITEGIC>MOL_PROPERTY
Angle
SciTegic.value.DoubleValue
1.685

@<SCITEGIC>MOL_PROPERTY
Pdih
SciTegic.value.DoubleValue
3.807

@<SCITEGIC>MOL_PROPERTY
Idih
SciTegic.value.DoubleValue
0.000

@<SCITEGIC>MOL_PROPERTY
Tether
SciTegic.value.DoubleValue
0.000

@<TRIPOS>MOLECULE
guest-3_vm2.mol2 : vm2 ligand conformer 341
          29          28           1
SMALL
USER_CHARGES
 
@<TRIPOS>ATOM
       1    C1      20.895796   19.352839   20.567252 C.3        1 MOL1        -0.2427
       2    H1      21.070961   18.271446   20.498454 H          1 MOL1         0.0958
       3    H2      21.469452   19.837697   19.766826 H          1 MOL1         0.0958
       4    H3      21.297448   19.712326   21.522738 H          1 MOL1         0.0958
       5    C2      19.393552   19.683261   20.430707 C.3        1 MOL1        -0.1412
       6    H4      19.072790   19.448447   19.406169 H          1 MOL1         0.0947
       7    H5      19.245876   20.765079   20.555383 H          1 MOL1         0.0947
       8    C3      18.479150   18.917320   21.420572 C.3        1 MOL1        -0.1437
       9    H6      17.440516   19.194026   21.192455 H          1 MOL1         0.0947
      10    H7      18.544663   17.836101   21.236673 H          1 MOL1         0.0947
      11    C4      18.744350   19.226206   22.917102 C.3        1 MOL1        -0.1437
      12    H8      17.779344   19.226977   23.440627 H          1 MOL1         0.0947
      13    H9      19.151752   20.240728   23.025009 H          1 MOL1         0.0947
      14    C5      19.676411   18.192830   23.600403 C.3        1 MOL1        -0.1437
      15    H10     19.193542   17.205963   23.598528 H          1 MOL1         0.0947
      16    H11     20.598123   18.078577   23.017747 H          1 MOL1         0.0947
      17    C6      20.062300   18.575867   25.050022 C.3        1 MOL1        -0.1437
      18    H12     20.570731   19.549260   25.043434 H          1 MOL1         0.0947
      19    H13     20.795443   17.845625   25.419854 H          1 MOL1         0.0947
      20    C7      18.855873   18.613150   26.020908 C.3        1 MOL1        -0.1477
      21    H14     18.157457   19.409765   25.734936 H          1 MOL1         0.0947
      22    H15     18.302365   17.667419   25.950376 H          1 MOL1         0.0947
      23    C8      19.283138   18.820461   27.486512 C.3        1 MOL1         0.0145
      24    H16     19.978197   18.030185   27.782699 H          1 MOL1         0.0921
      25    H17     18.403483   18.761521   28.133240 H          1 MOL1         0.0921
      26    N1      19.953430   20.156065   27.741523 N.4        1 MOL1        -0.5969
      27    H18     20.809190   20.262064   27.187731 H          1 MOL1         0.3603
      28    H19     20.216690   20.268023   28.726776 H          1 MOL1         0.3603
      29    H20     19.338835   20.941591   27.503980 H          1 MOL1         0.3603
@<TRIPOS>BOND
    1     1     2    1
    2     1     3    1
    3     1     4    1
    4     1     5    1
    5     5     6    1
    6     5     7    1
    7     5     8    1
    8     8     9    1
    9     8    10    1
   10     8    11    1
   11    11    12    1
   12    11    13    1
   13    11    14    1
   14    14    15    1
   15    14    16    1
   16    14    17    1
   17    17    18    1
   18    17    19    1
   19    17    20    1
   20    20    21    1
   21    20    22    1
   22    20    23    1
   23    23    24    1
   24    23    25    1
   25    23    26    1
   26    26    27    1
   27    26    28    1
   28    26    29    1
@<TRIPOS>SUBSTRUCTURE
       1 MOL1            1 RESIDUE      1      MOL     
@<SCITEGIC>MOL_PROPERTY
VM2 Rank
SciTegic.value.IntegerValue
341

@<SCITEGIC>MOL_PROPERTY
Conf_Id
SciTegic.value.IntegerValue
2608

@<SCITEGIC>MOL_PROPERTY
Probability
SciTegic.value.DoubleValue
0.00

@<SCITEGIC>MOL_PROPERTY
Sum Probability
SciTegic.value.DoubleValue
99.81

@<SCITEGIC>MOL_PROPERTY
Delta G
SciTegic.value.DoubleValue
4.358

@<SCITEGIC>MOL_PROPERTY
G
SciTegic.value.DoubleValue
62.504

@<SCITEGIC>MOL_PROPERTY
E
SciTegic.value.DoubleValue
24.712

@<SCITEGIC>MOL_PROPERTY
-TS
SciTegic.value.DoubleValue
37.792

@<SCITEGIC>MOL_PROPERTY
U+W
SciTegic.value.DoubleValue
0.567

@<SCITEGIC>MOL_PROPERTY
U
SciTegic.value.DoubleValue
52.514

@<SCITEGIC>MOL_PROPERTY
W
SciTegic.value.DoubleValue
-51.947

@<SCITEGIC>MOL_PROPERTY
W(PB)
SciTegic.value.DoubleValue
-54.383

@<SCITEGIC>MOL_PROPERTY
W(SA)
SciTegic.value.DoubleValue
2.436

@<SCITEGIC>MOL_PROPERTY
Valence
SciTegic.value.DoubleValue
6.227

@<SCITEGIC>MOL_PROPERTY
Coulomb
SciTegic.value.DoubleValue
45.243

@<SCITEGIC>MOL_PROPERTY
VdW
SciTegic.value.DoubleValue
1.044

@<SCITEGIC>MOL_PROPERTY
VdW6
SciTegic.value.DoubleValue
-9.693

@<SCITEGIC>MOL_PROPERTY
VdW12
SciTegic.value.DoubleValue
10.737

@<SCITEGIC>MOL_PROPERTY
Bond
SciTegic.value.DoubleValue
0.292

@<SCITEGIC>MOL_PROPERTY
Angle
SciTegic.value.DoubleValue
1.377

@<SCITEGIC>MOL_PROPERTY
Pdih
SciTegic.value.DoubleValue
4.558

@<SCITEGIC>MOL_PROPERTY
Idih
SciTegic.value.DoubleValue
0.000

@<SCITEGIC>MOL_PROPERTY
Tether
SciTegic.value.DoubleValue
0.000

@<TRIPOS>MOLECULE
guest-3_vm2.mol2 : vm2 ligand conformer 342
          29          28           1
SMALL
USER_CHARGES
 
@<TRIPOS>ATOM
       1    C1      20.482693   20.079939   20.505974 C.3        1 MOL1        -0.2427
       2    H1      20.384731   20.710983   21.398008 H          1 MOL1         0.0958
       3    H2      21.382820   19.460823   20.612222 H          1 MOL1         0.0958
       4    H3      20.633013   20.746690   19.647082 H          1 MOL1         0.0958
       5    C2      19.227131   19.205578   20.297063 C.3        1 MOL1        -0.1412
       6    H4      19.301291   18.710430   19.318783 H          1 MOL1         0.0947
       7    H5      18.338843   19.850507   20.245104 H          1 MOL1         0.0947
       8    C3      19.017351   18.120193   21.383616 C.3        1 MOL1        -0.1437
       9    H6      18.131734   17.535150   21.099403 H          1 MOL1         0.0947
      10    H7      19.855962   17.410385   21.376075 H          1 MOL1         0.0947
      11    C4      18.792656   18.673313   22.815046 C.3        1 MOL1        -0.1437
      12    H8      18.059417   18.028720   23.316999 H          1 MOL1         0.0947
      13    H9      18.338505   19.672373   22.764833 H          1 MOL1         0.0947
      14    C5      20.086741   18.708847   23.668210 C.3        1 MOL1        -0.1437
      15    H10     20.451556   17.684291   23.824027 H          1 MOL1         0.0947
      16    H11     20.879793   19.230825   23.119823 H          1 MOL1         0.0947
      17    C6      19.905739   19.406147   25.038899 C.3        1 MOL1        -0.1437
      18    H12     19.555008   20.435789   24.883276 H          1 MOL1         0.0947
      19    H13     20.892168   19.484828   25.514585 H          1 MOL1         0.0947
      20    C7      18.933973   18.662462   25.989187 C.3        1 MOL1        -0.1477
      21    H14     17.934078   18.620493   25.539792 H          1 MOL1         0.0947
      22    H15     19.262110   17.623536   26.126012 H          1 MOL1         0.0947
      23    C8      18.807861   19.347050   27.363871 C.3        1 MOL1         0.0145
      24    H16     18.040298   18.837778   27.952954 H          1 MOL1         0.0921
      25    H17     18.500606   20.387775   27.230193 H          1 MOL1         0.0921
      26    N1      20.089855   19.334471   28.173134 N.4        1 MOL1        -0.5969
      27    H18     20.846861   19.830514   27.692476 H          1 MOL1         0.3603
      28    H19     20.417900   18.379493   28.351149 H          1 MOL1         0.3603
      29    H20     19.967774   19.784997   29.086755 H          1 MOL1         0.3603
@<TRIPOS>BOND
    1     1     2    1
    2     1     3    1
    3     1     4    1
    4     1     5    1
    5     5     6    1
    6     5     7    1
    7     5     8    1
    8     8     9    1
    9     8    10    1
   10     8    11    1
   11    11    12    1
   12    11    13    1
   13    11    14    1
   14    14    15    1
   15    14    16    1
   16    14    17    1
   17    17    18    1
   18    17    19    1
   19    17    20    1
   20    20    21    1
   21    20    22    1
   22    20    23    1
   23    23    24    1
   24    23    25    1
   25    23    26    1
   26    26    27    1
   27    26    28    1
   28    26    29    1
@<TRIPOS>SUBSTRUCTURE
       1 MOL1            1 RESIDUE      1      MOL     
@<SCITEGIC>MOL_PROPERTY
VM2 Rank
SciTegic.value.IntegerValue
342

@<SCITEGIC>MOL_PROPERTY
Conf_Id
SciTegic.value.IntegerValue
2941

@<SCITEGIC>MOL_PROPERTY
Probability
SciTegic.value.DoubleValue
0.00

@<SCITEGIC>MOL_PROPERTY
Sum Probability
SciTegic.value.DoubleValue
99.82

@<SCITEGIC>MOL_PROPERTY
Delta G
SciTegic.value.DoubleValue
4.364

@<SCITEGIC>MOL_PROPERTY
G
SciTegic.value.DoubleValue
62.511

@<SCITEGIC>MOL_PROPERTY
E
SciTegic.value.DoubleValue
24.744

@<SCITEGIC>MOL_PROPERTY
-TS
SciTegic.value.DoubleValue
37.767

@<SCITEGIC>MOL_PROPERTY
U+W
SciTegic.value.DoubleValue
0.599

@<SCITEGIC>MOL_PROPERTY
U
SciTegic.value.DoubleValue
52.368

@<SCITEGIC>MOL_PROPERTY
W
SciTegic.value.DoubleValue
-51.769

@<SCITEGIC>MOL_PROPERTY
W(PB)
SciTegic.value.DoubleValue
-54.214

@<SCITEGIC>MOL_PROPERTY
W(SA)
SciTegic.value.DoubleValue
2.445

@<SCITEGIC>MOL_PROPERTY
Valence
SciTegic.value.DoubleValue
6.262

@<SCITEGIC>MOL_PROPERTY
Coulomb
SciTegic.value.DoubleValue
45.003

@<SCITEGIC>MOL_PROPERTY
VdW
SciTegic.value.DoubleValue
1.103

@<SCITEGIC>MOL_PROPERTY
VdW6
SciTegic.value.DoubleValue
-9.650

@<SCITEGIC>MOL_PROPERTY
VdW12
SciTegic.value.DoubleValue
10.753

@<SCITEGIC>MOL_PROPERTY
Bond
SciTegic.value.DoubleValue
0.297

@<SCITEGIC>MOL_PROPERTY
Angle
SciTegic.value.DoubleValue
1.422

@<SCITEGIC>MOL_PROPERTY
Pdih
SciTegic.value.DoubleValue
4.543

@<SCITEGIC>MOL_PROPERTY
Idih
SciTegic.value.DoubleValue
0.000

@<SCITEGIC>MOL_PROPERTY
Tether
SciTegic.value.DoubleValue
0.000

@<TRIPOS>MOLECULE
guest-3_vm2.mol2 : vm2 ligand conformer 343
          29          28           1
SMALL
USER_CHARGES
 
@<TRIPOS>ATOM
       1    C1      19.920190   19.901626   19.787455 C.3        1 MOL1        -0.2427
       2    H1      19.489560   19.052674   19.240569 H          1 MOL1         0.0958
       3    H2      19.493117   20.822925   19.370511 H          1 MOL1         0.0958
       4    H3      21.001690   19.916517   19.599431 H          1 MOL1         0.0958
       5    C2      19.620607   19.797093   21.297830 C.3        1 MOL1        -0.1412
       6    H4      18.533315   19.826333   21.448084 H          1 MOL1         0.0947
       7    H5      20.037588   20.673472   21.813324 H          1 MOL1         0.0947
       8    C3      20.209686   18.503115   21.907333 C.3        1 MOL1        -0.1437
       9    H6      19.754861   17.626179   21.426374 H          1 MOL1         0.0947
      10    H7      21.283344   18.457607   21.678216 H          1 MOL1         0.0947
      11    C4      20.030993   18.406358   23.442209 C.3        1 MOL1        -0.1437
      12    H8      20.509097   19.274753   23.908366 H          1 MOL1         0.0947
      13    H9      20.578044   17.522316   23.796989 H          1 MOL1         0.0947
      14    C5      18.548064   18.292489   23.881154 C.3        1 MOL1        -0.1437
      15    H10     17.992055   19.199957   23.612128 H          1 MOL1         0.0947
      16    H11     18.087688   17.473256   23.311754 H          1 MOL1         0.0947
      17    C6      18.355647   17.993811   25.391197 C.3        1 MOL1        -0.1437
      18    H12     19.125421   17.295469   25.745437 H          1 MOL1         0.0947
      19    H13     17.402874   17.458901   25.507356 H          1 MOL1         0.0947
      20    C7      18.290728   19.247964   26.303298 C.3        1 MOL1        -0.1477
      21    H14     17.468206   19.894710   25.970303 H          1 MOL1         0.0947
      22    H15     18.031866   18.932073   27.322616 H          1 MOL1         0.0947
      23    C8      19.582392   20.085284   26.362778 C.3        1 MOL1         0.0145
      24    H16     19.432066   20.933375   27.036265 H          1 MOL1         0.0921
      25    H17     19.813363   20.481589   25.371694 H          1 MOL1         0.0921
      26    N1      20.785693   19.310260   26.861746 N.4        1 MOL1        -0.5969
      27    H18     20.635896   18.946994   27.808748 H          1 MOL1         0.3603
      28    H19     21.628995   19.893533   26.893591 H          1 MOL1         0.3603
      29    H20     20.992067   18.508481   26.258135 H          1 MOL1         0.3603
@<TRIPOS>BOND
    1     1     2    1
    2     1     3    1
    3     1     4    1
    4     1     5    1
    5     5     6    1
    6     5     7    1
    7     5     8    1
    8     8     9    1
    9     8    10    1
   10     8    11    1
   11    11    12    1
   12    11    13    1
   13    11    14    1
   14    14    15    1
   15    14    16    1
   16    14    17    1
   17    17    18    1
   18    17    19    1
   19    17    20    1
   20    20    21    1
   21    20    22    1
   22    20    23    1
   23    23    24    1
   24    23    25    1
   25    23    26    1
   26    26    27    1
   27    26    28    1
   28    26    29    1
@<TRIPOS>SUBSTRUCTURE
       1 MOL1            1 RESIDUE      1      MOL     
@<SCITEGIC>MOL_PROPERTY
VM2 Rank
SciTegic.value.IntegerValue
343

@<SCITEGIC>MOL_PROPERTY
Conf_Id
SciTegic.value.IntegerValue
2334

@<SCITEGIC>MOL_PROPERTY
Probability
SciTegic.value.DoubleValue
0.00

@<SCITEGIC>MOL_PROPERTY
Sum Probability
SciTegic.value.DoubleValue
99.82

@<SCITEGIC>MOL_PROPERTY
Delta G
SciTegic.value.DoubleValue
4.384

@<SCITEGIC>MOL_PROPERTY
G
SciTegic.value.DoubleValue
62.530

@<SCITEGIC>MOL_PROPERTY
E
SciTegic.value.DoubleValue
24.752

@<SCITEGIC>MOL_PROPERTY
-TS
SciTegic.value.DoubleValue
37.779

@<SCITEGIC>MOL_PROPERTY
U+W
SciTegic.value.DoubleValue
0.607

@<SCITEGIC>MOL_PROPERTY
U
SciTegic.value.DoubleValue
53.002

@<SCITEGIC>MOL_PROPERTY
W
SciTegic.value.DoubleValue
-52.395

@<SCITEGIC>MOL_PROPERTY
W(PB)
SciTegic.value.DoubleValue
-54.842

@<SCITEGIC>MOL_PROPERTY
W(SA)
SciTegic.value.DoubleValue
2.448

@<SCITEGIC>MOL_PROPERTY
Valence
SciTegic.value.DoubleValue
5.790

@<SCITEGIC>MOL_PROPERTY
Coulomb
SciTegic.value.DoubleValue
46.543

@<SCITEGIC>MOL_PROPERTY
VdW
SciTegic.value.DoubleValue
0.670

@<SCITEGIC>MOL_PROPERTY
VdW6
SciTegic.value.DoubleValue
-10.153

@<SCITEGIC>MOL_PROPERTY
VdW12
SciTegic.value.DoubleValue
10.823

@<SCITEGIC>MOL_PROPERTY
Bond
SciTegic.value.DoubleValue
0.297

@<SCITEGIC>MOL_PROPERTY
Angle
SciTegic.value.DoubleValue
1.687

@<SCITEGIC>MOL_PROPERTY
Pdih
SciTegic.value.DoubleValue
3.806

@<SCITEGIC>MOL_PROPERTY
Idih
SciTegic.value.DoubleValue
0.000

@<SCITEGIC>MOL_PROPERTY
Tether
SciTegic.value.DoubleValue
0.000

@<TRIPOS>MOLECULE
guest-3_vm2.mol2 : vm2 ligand conformer 344
          29          28           1
SMALL
USER_CHARGES
 
@<TRIPOS>ATOM
       1    C1      19.991982   18.182915   19.900651 C.3        1 MOL1        -0.2427
       2    H1      19.834954   17.122749   19.663164 H          1 MOL1         0.0958
       3    H2      19.332625   18.775026   19.252642 H          1 MOL1         0.0958
       4    H3      21.031424   18.433228   19.651421 H          1 MOL1         0.0958
       5    C2      19.696339   18.456971   21.390496 C.3        1 MOL1        -0.1412
       6    H4      20.352962   17.834468   22.014110 H          1 MOL1         0.0947
       7    H5      18.662433   18.157130   21.603208 H          1 MOL1         0.0947
       8    C3      19.891987   19.947987   21.745696 C.3        1 MOL1        -0.1437
       9    H6      20.866505   20.279578   21.361446 H          1 MOL1         0.0947
      10    H7      19.137363   20.549724   21.220753 H          1 MOL1         0.0947
      11    C4      19.842361   20.263431   23.263102 C.3        1 MOL1        -0.1437
      12    H8      20.045894   21.337223   23.376063 H          1 MOL1         0.0947
      13    H9      20.669445   19.759729   23.776981 H          1 MOL1         0.0947
      14    C5      18.484376   19.965658   23.957084 C.3        1 MOL1        -0.1437
      15    H10     18.334696   20.703696   24.756351 H          1 MOL1         0.0947
      16    H11     17.666609   20.146305   23.246063 H          1 MOL1         0.0947
      17    C6      18.328482   18.544068   24.567646 C.3        1 MOL1        -0.1437
      18    H12     18.368448   17.783754   23.779898 H          1 MOL1         0.0947
      19    H13     17.320887   18.465861   24.998844 H          1 MOL1         0.0947
      20    C7      19.359105   18.177079   25.665260 C.3        1 MOL1        -0.1477
      21    H14     19.107799   17.185992   26.065781 H          1 MOL1         0.0947
      22    H15     20.360986   18.082515   25.228770 H          1 MOL1         0.0947
      23    C8      19.390398   19.192125   26.822756 C.3        1 MOL1         0.0145
      24    H16     18.393970   19.277385   27.264525 H          1 MOL1         0.0921
      25    H17     19.685413   20.174189   26.443997 H          1 MOL1         0.0921
      26    N1      20.358969   18.807766   27.922308 N.4        1 MOL1        -0.5969
      27    H18     20.121074   17.902516   28.341051 H          1 MOL1         0.3603
      28    H19     20.364654   19.496513   28.682695 H          1 MOL1         0.3603
      29    H20     21.321369   18.736907   27.575772 H          1 MOL1         0.3603
@<TRIPOS>BOND
    1     1     2    1
    2     1     3    1
    3     1     4    1
    4     1     5    1
    5     5     6    1
    6     5     7    1
    7     5     8    1
    8     8     9    1
    9     8    10    1
   10     8    11    1
   11    11    12    1
   12    11    13    1
   13    11    14    1
   14    14    15    1
   15    14    16    1
   16    14    17    1
   17    17    18    1
   18    17    19    1
   19    17    20    1
   20    20    21    1
   21    20    22    1
   22    20    23    1
   23    23    24    1
   24    23    25    1
   25    23    26    1
   26    26    27    1
   27    26    28    1
   28    26    29    1
@<TRIPOS>SUBSTRUCTURE
       1 MOL1            1 RESIDUE      1      MOL     
@<SCITEGIC>MOL_PROPERTY
VM2 Rank
SciTegic.value.IntegerValue
344

@<SCITEGIC>MOL_PROPERTY
Conf_Id
SciTegic.value.IntegerValue
2008

@<SCITEGIC>MOL_PROPERTY
Probability
SciTegic.value.DoubleValue
0.00

@<SCITEGIC>MOL_PROPERTY
Sum Probability
SciTegic.value.DoubleValue
99.82

@<SCITEGIC>MOL_PROPERTY
Delta G
SciTegic.value.DoubleValue
4.385

@<SCITEGIC>MOL_PROPERTY
G
SciTegic.value.DoubleValue
62.532

@<SCITEGIC>MOL_PROPERTY
E
SciTegic.value.DoubleValue
25.143

@<SCITEGIC>MOL_PROPERTY
-TS
SciTegic.value.DoubleValue
37.389

@<SCITEGIC>MOL_PROPERTY
U+W
SciTegic.value.DoubleValue
0.998

@<SCITEGIC>MOL_PROPERTY
U
SciTegic.value.DoubleValue
53.173

@<SCITEGIC>MOL_PROPERTY
W
SciTegic.value.DoubleValue
-52.174

@<SCITEGIC>MOL_PROPERTY
W(PB)
SciTegic.value.DoubleValue
-54.622

@<SCITEGIC>MOL_PROPERTY
W(SA)
SciTegic.value.DoubleValue
2.448

@<SCITEGIC>MOL_PROPERTY
Valence
SciTegic.value.DoubleValue
6.654

@<SCITEGIC>MOL_PROPERTY
Coulomb
SciTegic.value.DoubleValue
45.652

@<SCITEGIC>MOL_PROPERTY
VdW
SciTegic.value.DoubleValue
0.867

@<SCITEGIC>MOL_PROPERTY
VdW6
SciTegic.value.DoubleValue
-10.075

@<SCITEGIC>MOL_PROPERTY
VdW12
SciTegic.value.DoubleValue
10.943

@<SCITEGIC>MOL_PROPERTY
Bond
SciTegic.value.DoubleValue
0.342

@<SCITEGIC>MOL_PROPERTY
Angle
SciTegic.value.DoubleValue
2.207

@<SCITEGIC>MOL_PROPERTY
Pdih
SciTegic.value.DoubleValue
4.105

@<SCITEGIC>MOL_PROPERTY
Idih
SciTegic.value.DoubleValue
0.000

@<SCITEGIC>MOL_PROPERTY
Tether
SciTegic.value.DoubleValue
0.000

@<TRIPOS>MOLECULE
guest-3_vm2.mol2 : vm2 ligand conformer 345
          29          28           1
SMALL
USER_CHARGES
 
@<TRIPOS>ATOM
       1    C1      19.246497   19.067782   19.689001 C.3        1 MOL1        -0.2427
       2    H1      20.294350   18.975433   19.375166 H          1 MOL1         0.0958
       3    H2      18.614919   18.758433   18.846193 H          1 MOL1         0.0958
       4    H3      19.038024   20.126704   19.886020 H          1 MOL1         0.0958
       5    C2      18.959029   18.192686   20.929951 C.3        1 MOL1        -0.1412
       6    H4      19.064376   17.135258   20.649799 H          1 MOL1         0.0947
       7    H5      17.913551   18.325650   21.241362 H          1 MOL1         0.0947
       8    C3      19.900732   18.486892   22.122339 C.3        1 MOL1        -0.1437
       9    H6      19.702281   17.749344   22.908946 H          1 MOL1         0.0947
      10    H7      20.942456   18.325901   21.812509 H          1 MOL1         0.0947
      11    C4      19.746338   19.921831   22.688643 C.3        1 MOL1        -0.1437
      12    H8      18.687875   20.149919   22.874325 H          1 MOL1         0.0947
      13    H9      20.082072   20.635674   21.924894 H          1 MOL1         0.0947
      14    C5      20.577750   20.165201   23.975061 C.3        1 MOL1        -0.1437
      15    H10     21.459984   19.510423   23.988630 H          1 MOL1         0.0947
      16    H11     20.971578   21.190407   23.939155 H          1 MOL1         0.0947
      17    C6      19.782911   20.017156   25.298240 C.3        1 MOL1        -0.1437
      18    H12     18.966075   20.751913   25.316128 H          1 MOL1         0.0947
      19    H13     20.452234   20.284031   26.126591 H          1 MOL1         0.0947
      20    C7      19.204061   18.601640   25.539268 C.3        1 MOL1        -0.1477
      21    H14     18.470821   18.368143   24.757304 H          1 MOL1         0.0947
      22    H15     20.001026   17.849866   25.466563 H          1 MOL1         0.0947
      23    C8      18.497408   18.472392   26.902402 C.3        1 MOL1         0.0145
      24    H16     18.020178   17.491038   26.971137 H          1 MOL1         0.0921
      25    H17     17.720064   19.236427   26.988256 H          1 MOL1         0.0921
      26    N1      19.429274   18.612422   28.090094 N.4        1 MOL1        -0.5969
      27    H18     19.885776   19.529704   28.108213 H          1 MOL1         0.3603
      28    H19     20.170995   17.904657   28.077158 H          1 MOL1         0.3603
      29    H20     18.929946   18.507560   28.980172 H          1 MOL1         0.3603
@<TRIPOS>BOND
    1     1     2    1
    2     1     3    1
    3     1     4    1
    4     1     5    1
    5     5     6    1
    6     5     7    1
    7     5     8    1
    8     8     9    1
    9     8    10    1
   10     8    11    1
   11    11    12    1
   12    11    13    1
   13    11    14    1
   14    14    15    1
   15    14    16    1
   16    14    17    1
   17    17    18    1
   18    17    19    1
   19    17    20    1
   20    20    21    1
   21    20    22    1
   22    20    23    1
   23    23    24    1
   24    23    25    1
   25    23    26    1
   26    26    27    1
   27    26    28    1
   28    26    29    1
@<TRIPOS>SUBSTRUCTURE
       1 MOL1            1 RESIDUE      1      MOL     
@<SCITEGIC>MOL_PROPERTY
VM2 Rank
SciTegic.value.IntegerValue
345

@<SCITEGIC>MOL_PROPERTY
Conf_Id
SciTegic.value.IntegerValue
676

@<SCITEGIC>MOL_PROPERTY
Probability
SciTegic.value.DoubleValue
0.00

@<SCITEGIC>MOL_PROPERTY
Sum Probability
SciTegic.value.DoubleValue
99.83

@<SCITEGIC>MOL_PROPERTY
Delta G
SciTegic.value.DoubleValue
4.401

@<SCITEGIC>MOL_PROPERTY
G
SciTegic.value.DoubleValue
62.547

@<SCITEGIC>MOL_PROPERTY
E
SciTegic.value.DoubleValue
24.733

@<SCITEGIC>MOL_PROPERTY
-TS
SciTegic.value.DoubleValue
37.814

@<SCITEGIC>MOL_PROPERTY
U+W
SciTegic.value.DoubleValue
0.589

@<SCITEGIC>MOL_PROPERTY
U
SciTegic.value.DoubleValue
52.521

@<SCITEGIC>MOL_PROPERTY
W
SciTegic.value.DoubleValue
-51.932

@<SCITEGIC>MOL_PROPERTY
W(PB)
SciTegic.value.DoubleValue
-54.379

@<SCITEGIC>MOL_PROPERTY
W(SA)
SciTegic.value.DoubleValue
2.446

@<SCITEGIC>MOL_PROPERTY
Valence
SciTegic.value.DoubleValue
6.295

@<SCITEGIC>MOL_PROPERTY
Coulomb
SciTegic.value.DoubleValue
45.163

@<SCITEGIC>MOL_PROPERTY
VdW
SciTegic.value.DoubleValue
1.063

@<SCITEGIC>MOL_PROPERTY
VdW6
SciTegic.value.DoubleValue
-9.724

@<SCITEGIC>MOL_PROPERTY
VdW12
SciTegic.value.DoubleValue
10.787

@<SCITEGIC>MOL_PROPERTY
Bond
SciTegic.value.DoubleValue
0.294

@<SCITEGIC>MOL_PROPERTY
Angle
SciTegic.value.DoubleValue
1.413

@<SCITEGIC>MOL_PROPERTY
Pdih
SciTegic.value.DoubleValue
4.589

@<SCITEGIC>MOL_PROPERTY
Idih
SciTegic.value.DoubleValue
0.000

@<SCITEGIC>MOL_PROPERTY
Tether
SciTegic.value.DoubleValue
0.000

@<TRIPOS>MOLECULE
guest-3_vm2.mol2 : vm2 ligand conformer 346
          29          28           1
SMALL
USER_CHARGES
 
@<TRIPOS>ATOM
       1    C1      20.762548   18.283143   20.779970 C.3        1 MOL1        -0.2427
       2    H1      21.830166   18.180543   20.546433 H          1 MOL1         0.0958
       3    H2      20.511089   17.518827   21.523245 H          1 MOL1         0.0958
       4    H3      20.198890   18.062380   19.864231 H          1 MOL1         0.0958
       5    C2      20.455064   19.711753   21.285906 C.3        1 MOL1        -0.1412
       6    H4      20.761630   20.420309   20.503723 H          1 MOL1         0.0947
       7    H5      21.071508   19.946531   22.164780 H          1 MOL1         0.0947
       8    C3      18.955139   19.945122   21.601750 C.3        1 MOL1        -0.1437
       9    H6      18.708035   20.982201   21.335789 H          1 MOL1         0.0947
      10    H7      18.327442   19.316631   20.955154 H          1 MOL1         0.0947
      11    C4      18.564484   19.740624   23.088049 C.3        1 MOL1        -0.1437
      12    H8      17.506682   20.012604   23.206839 H          1 MOL1         0.0947
      13    H9      19.135103   20.445523   23.707077 H          1 MOL1         0.0947
      14    C5      18.773662   18.297759   23.608099 C.3        1 MOL1        -0.1437
      15    H10     18.324505   17.590946   22.897043 H          1 MOL1         0.0947
      16    H11     19.845439   18.065801   23.640995 H          1 MOL1         0.0947
      17    C6      18.149903   18.050591   25.005799 C.3        1 MOL1        -0.1437
      18    H12     18.315218   17.000838   25.285201 H          1 MOL1         0.0947
      19    H13     17.060477   18.178176   24.942017 H          1 MOL1         0.0947
      20    C7      18.697970   18.962062   26.131903 C.3        1 MOL1        -0.1477
      21    H14     18.427229   20.007167   25.934443 H          1 MOL1         0.0947
      22    H15     18.208650   18.690614   27.076720 H          1 MOL1         0.0947
      23    C8      20.223843   18.844824   26.303094 C.3        1 MOL1         0.0145
      24    H16     20.723172   19.151981   25.380435 H          1 MOL1         0.0921
      25    H17     20.492044   17.805565   26.511230 H          1 MOL1         0.0921
      26    N1      20.761387   19.702121   27.430430 N.4        1 MOL1        -0.5969
      27    H18     20.350677   19.445133   28.334149 H          1 MOL1         0.3603
      28    H19     20.564097   20.697135   27.280994 H          1 MOL1         0.3603
      29    H20     21.778564   19.609859   27.527449 H          1 MOL1         0.3603
@<TRIPOS>BOND
    1     1     2    1
    2     1     3    1
    3     1     4    1
    4     1     5    1
    5     5     6    1
    6     5     7    1
    7     5     8    1
    8     8     9    1
    9     8    10    1
   10     8    11    1
   11    11    12    1
   12    11    13    1
   13    11    14    1
   14    14    15    1
   15    14    16    1
   16    14    17    1
   17    17    18    1
   18    17    19    1
   19    17    20    1
   20    20    21    1
   21    20    22    1
   22    20    23    1
   23    23    24    1
   24    23    25    1
   25    23    26    1
   26    26    27    1
   27    26    28    1
   28    26    29    1
@<TRIPOS>SUBSTRUCTURE
       1 MOL1            1 RESIDUE      1      MOL     
@<SCITEGIC>MOL_PROPERTY
VM2 Rank
SciTegic.value.IntegerValue
346

@<SCITEGIC>MOL_PROPERTY
Conf_Id
SciTegic.value.IntegerValue
1676

@<SCITEGIC>MOL_PROPERTY
Probability
SciTegic.value.DoubleValue
0.00

@<SCITEGIC>MOL_PROPERTY
Sum Probability
SciTegic.value.DoubleValue
99.83

@<SCITEGIC>MOL_PROPERTY
Delta G
SciTegic.value.DoubleValue
4.407

@<SCITEGIC>MOL_PROPERTY
G
SciTegic.value.DoubleValue
62.553

@<SCITEGIC>MOL_PROPERTY
E
SciTegic.value.DoubleValue
24.677

@<SCITEGIC>MOL_PROPERTY
-TS
SciTegic.value.DoubleValue
37.876

@<SCITEGIC>MOL_PROPERTY
U+W
SciTegic.value.DoubleValue
0.532

@<SCITEGIC>MOL_PROPERTY
U
SciTegic.value.DoubleValue
52.841

@<SCITEGIC>MOL_PROPERTY
W
SciTegic.value.DoubleValue
-52.309

@<SCITEGIC>MOL_PROPERTY
W(PB)
SciTegic.value.DoubleValue
-54.757

@<SCITEGIC>MOL_PROPERTY
W(SA)
SciTegic.value.DoubleValue
2.448

@<SCITEGIC>MOL_PROPERTY
Valence
SciTegic.value.DoubleValue
6.278

@<SCITEGIC>MOL_PROPERTY
Coulomb
SciTegic.value.DoubleValue
45.781

@<SCITEGIC>MOL_PROPERTY
VdW
SciTegic.value.DoubleValue
0.782

@<SCITEGIC>MOL_PROPERTY
VdW6
SciTegic.value.DoubleValue
-10.172

@<SCITEGIC>MOL_PROPERTY
VdW12
SciTegic.value.DoubleValue
10.954

@<SCITEGIC>MOL_PROPERTY
Bond
SciTegic.value.DoubleValue
0.294

@<SCITEGIC>MOL_PROPERTY
Angle
SciTegic.value.DoubleValue
1.612

@<SCITEGIC>MOL_PROPERTY
Pdih
SciTegic.value.DoubleValue
4.372

@<SCITEGIC>MOL_PROPERTY
Idih
SciTegic.value.DoubleValue
0.000

@<SCITEGIC>MOL_PROPERTY
Tether
SciTegic.value.DoubleValue
0.000

@<TRIPOS>MOLECULE
guest-3_vm2.mol2 : vm2 ligand conformer 347
          29          28           1
SMALL
USER_CHARGES
 
@<TRIPOS>ATOM
       1    C1      20.697258   20.469020   20.789179 C.3        1 MOL1        -0.2427
       2    H1      20.898399   21.540179   20.920210 H          1 MOL1         0.0958
       3    H2      21.649808   19.932425   20.888796 H          1 MOL1         0.0958
       4    H3      20.325175   20.318612   19.767343 H          1 MOL1         0.0958
       5    C2      19.671966   19.975603   21.831703 C.3        1 MOL1        -0.1412
       6    H4      18.742951   20.553072   21.726861 H          1 MOL1         0.0947
       7    H5      20.058789   20.183130   22.835834 H          1 MOL1         0.0947
       8    C3      19.368407   18.467572   21.661836 C.3        1 MOL1        -0.1437
       9    H6      18.997070   18.309610   20.639802 H          1 MOL1         0.0947
      10    H7      20.293472   17.880301   21.741308 H          1 MOL1         0.0947
      11    C4      18.305324   17.925609   22.653381 C.3        1 MOL1        -0.1437
      12    H8      17.723671   17.153660   22.130802 H          1 MOL1         0.0947
      13    H9      17.579300   18.708890   22.907248 H          1 MOL1         0.0947
      14    C5      18.883384   17.269494   23.936609 C.3        1 MOL1        -0.1437
      15    H10     18.055019   16.828471   24.507998 H          1 MOL1         0.0947
      16    H11     19.522620   16.425588   23.642735 H          1 MOL1         0.0947
      17    C6      19.692529   18.198792   24.875039 C.3        1 MOL1        -0.1437
      18    H12     20.570524   18.591988   24.347330 H          1 MOL1         0.0947
      19    H13     20.088022   17.587077   25.696584 H          1 MOL1         0.0947
      20    C7      18.853359   19.359414   25.466317 C.3        1 MOL1        -0.1477
      21    H14     18.437196   19.971939   24.657564 H          1 MOL1         0.0947
      22    H15     17.997573   18.956501   26.023951 H          1 MOL1         0.0947
      23    C8      19.679128   20.279692   26.385434 C.3        1 MOL1         0.0145
      24    H16     19.061412   21.124475   26.702129 H          1 MOL1         0.0921
      25    H17     20.539075   20.672644   25.836393 H          1 MOL1         0.0921
      26    N1      20.192645   19.592804   27.635502 N.4        1 MOL1        -0.5969
      27    H18     19.426776   19.220579   28.206575 H          1 MOL1         0.3603
      28    H19     20.726359   20.235319   28.231180 H          1 MOL1         0.3603
      29    H20     20.811681   18.807971   27.409750 H          1 MOL1         0.3603
@<TRIPOS>BOND
    1     1     2    1
    2     1     3    1
    3     1     4    1
    4     1     5    1
    5     5     6    1
    6     5     7    1
    7     5     8    1
    8     8     9    1
    9     8    10    1
   10     8    11    1
   11    11    12    1
   12    11    13    1
   13    11    14    1
   14    14    15    1
   15    14    16    1
   16    14    17    1
   17    17    18    1
   18    17    19    1
   19    17    20    1
   20    20    21    1
   21    20    22    1
   22    20    23    1
   23    23    24    1
   24    23    25    1
   25    23    26    1
   26    26    27    1
   27    26    28    1
   28    26    29    1
@<TRIPOS>SUBSTRUCTURE
       1 MOL1            1 RESIDUE      1      MOL     
@<SCITEGIC>MOL_PROPERTY
VM2 Rank
SciTegic.value.IntegerValue
347

@<SCITEGIC>MOL_PROPERTY
Conf_Id
SciTegic.value.IntegerValue
2003

@<SCITEGIC>MOL_PROPERTY
Probability
SciTegic.value.DoubleValue
0.00

@<SCITEGIC>MOL_PROPERTY
Sum Probability
SciTegic.value.DoubleValue
99.83

@<SCITEGIC>MOL_PROPERTY
Delta G
SciTegic.value.DoubleValue
4.416

@<SCITEGIC>MOL_PROPERTY
G
SciTegic.value.DoubleValue
62.563

@<SCITEGIC>MOL_PROPERTY
E
SciTegic.value.DoubleValue
24.429

@<SCITEGIC>MOL_PROPERTY
-TS
SciTegic.value.DoubleValue
38.133

@<SCITEGIC>MOL_PROPERTY
U+W
SciTegic.value.DoubleValue
0.285

@<SCITEGIC>MOL_PROPERTY
U
SciTegic.value.DoubleValue
52.641

@<SCITEGIC>MOL_PROPERTY
W
SciTegic.value.DoubleValue
-52.356

@<SCITEGIC>MOL_PROPERTY
W(PB)
SciTegic.value.DoubleValue
-54.772

@<SCITEGIC>MOL_PROPERTY
W(SA)
SciTegic.value.DoubleValue
2.416

@<SCITEGIC>MOL_PROPERTY
Valence
SciTegic.value.DoubleValue
6.340

@<SCITEGIC>MOL_PROPERTY
Coulomb
SciTegic.value.DoubleValue
45.688

@<SCITEGIC>MOL_PROPERTY
VdW
SciTegic.value.DoubleValue
0.614

@<SCITEGIC>MOL_PROPERTY
VdW6
SciTegic.value.DoubleValue
-10.366

@<SCITEGIC>MOL_PROPERTY
VdW12
SciTegic.value.DoubleValue
10.979

@<SCITEGIC>MOL_PROPERTY
Bond
SciTegic.value.DoubleValue
0.304

@<SCITEGIC>MOL_PROPERTY
Angle
SciTegic.value.DoubleValue
1.852

@<SCITEGIC>MOL_PROPERTY
Pdih
SciTegic.value.DoubleValue
4.183

@<SCITEGIC>MOL_PROPERTY
Idih
SciTegic.value.DoubleValue
0.000

@<SCITEGIC>MOL_PROPERTY
Tether
SciTegic.value.DoubleValue
0.000

@<TRIPOS>MOLECULE
guest-3_vm2.mol2 : vm2 ligand conformer 348
          29          28           1
SMALL
USER_CHARGES
 
@<TRIPOS>ATOM
       1    C1      19.353472   19.370239   19.695911 C.3        1 MOL1        -0.2427
       2    H1      18.520429   18.674070   19.853974 H          1 MOL1         0.0958
       3    H2      19.070814   20.042039   18.875117 H          1 MOL1         0.0958
       4    H3      20.228473   18.792492   19.370954 H          1 MOL1         0.0958
       5    C2      19.666107   20.180217   20.974419 C.3        1 MOL1        -0.1412
       6    H4      18.767316   20.725072   21.295338 H          1 MOL1         0.0947
       7    H5      20.419372   20.943677   20.734723 H          1 MOL1         0.0947
       8    C3      20.193963   19.310449   22.140617 C.3        1 MOL1        -0.1437
       9    H6      21.107590   18.789698   21.822488 H          1 MOL1         0.0947
      10    H7      20.494880   19.975705   22.958540 H          1 MOL1         0.0947
      11    C4      19.160389   18.274154   22.651892 C.3        1 MOL1        -0.1437
      12    H8      18.980692   17.539564   21.855845 H          1 MOL1         0.0947
      13    H9      18.193088   18.758411   22.843399 H          1 MOL1         0.0947
      14    C5      19.633427   17.509849   23.915780 C.3        1 MOL1        -0.1437
      15    H10     19.292218   16.468560   23.833732 H          1 MOL1         0.0947
      16    H11     20.730697   17.459630   23.942821 H          1 MOL1         0.0947
      17    C6      19.091873   18.073821   25.254863 C.3        1 MOL1        -0.1437
      18    H12     19.430810   17.411817   26.062484 H          1 MOL1         0.0947
      19    H13     17.994392   18.019562   25.255148 H          1 MOL1         0.0947
      20    C7      19.533085   19.526114   25.559874 C.3        1 MOL1        -0.1477
      21    H14     20.626682   19.608207   25.505973 H          1 MOL1         0.0947
      22    H15     19.123051   20.200748   24.798054 H          1 MOL1         0.0947
      23    C8      19.047231   20.018418   26.936749 C.3        1 MOL1         0.0145
      24    H16     17.960914   19.913959   27.003002 H          1 MOL1         0.0921
      25    H17     19.295686   21.077072   27.050994 H          1 MOL1         0.0921
      26    N1      19.664454   19.274739   28.104896 N.4        1 MOL1        -0.5969
      27    H18     20.686581   19.355262   28.109797 H          1 MOL1         0.3603
      28    H19     19.439173   18.275355   28.080240 H          1 MOL1         0.3603
      29    H20     19.330683   19.635955   29.005275 H          1 MOL1         0.3603
@<TRIPOS>BOND
    1     1     2    1
    2     1     3    1
    3     1     4    1
    4     1     5    1
    5     5     6    1
    6     5     7    1
    7     5     8    1
    8     8     9    1
    9     8    10    1
   10     8    11    1
   11    11    12    1
   12    11    13    1
   13    11    14    1
   14    14    15    1
   15    14    16    1
   16    14    17    1
   17    17    18    1
   18    17    19    1
   19    17    20    1
   20    20    21    1
   21    20    22    1
   22    20    23    1
   23    23    24    1
   24    23    25    1
   25    23    26    1
   26    26    27    1
   27    26    28    1
   28    26    29    1
@<TRIPOS>SUBSTRUCTURE
       1 MOL1            1 RESIDUE      1      MOL     
@<SCITEGIC>MOL_PROPERTY
VM2 Rank
SciTegic.value.IntegerValue
348

@<SCITEGIC>MOL_PROPERTY
Conf_Id
SciTegic.value.IntegerValue
906

@<SCITEGIC>MOL_PROPERTY
Probability
SciTegic.value.DoubleValue
0.00

@<SCITEGIC>MOL_PROPERTY
Sum Probability
SciTegic.value.DoubleValue
99.84

@<SCITEGIC>MOL_PROPERTY
Delta G
SciTegic.value.DoubleValue
4.430

@<SCITEGIC>MOL_PROPERTY
G
SciTegic.value.DoubleValue
62.576

@<SCITEGIC>MOL_PROPERTY
E
SciTegic.value.DoubleValue
24.762

@<SCITEGIC>MOL_PROPERTY
-TS
SciTegic.value.DoubleValue
37.814

@<SCITEGIC>MOL_PROPERTY
U+W
SciTegic.value.DoubleValue
0.617

@<SCITEGIC>MOL_PROPERTY
U
SciTegic.value.DoubleValue
52.521

@<SCITEGIC>MOL_PROPERTY
W
SciTegic.value.DoubleValue
-51.904

@<SCITEGIC>MOL_PROPERTY
W(PB)
SciTegic.value.DoubleValue
-54.335

@<SCITEGIC>MOL_PROPERTY
W(SA)
SciTegic.value.DoubleValue
2.431

@<SCITEGIC>MOL_PROPERTY
Valence
SciTegic.value.DoubleValue
6.296

@<SCITEGIC>MOL_PROPERTY
Coulomb
SciTegic.value.DoubleValue
45.162

@<SCITEGIC>MOL_PROPERTY
VdW
SciTegic.value.DoubleValue
1.063

@<SCITEGIC>MOL_PROPERTY
VdW6
SciTegic.value.DoubleValue
-9.724

@<SCITEGIC>MOL_PROPERTY
VdW12
SciTegic.value.DoubleValue
10.788

@<SCITEGIC>MOL_PROPERTY
Bond
SciTegic.value.DoubleValue
0.294

@<SCITEGIC>MOL_PROPERTY
Angle
SciTegic.value.DoubleValue
1.413

@<SCITEGIC>MOL_PROPERTY
Pdih
SciTegic.value.DoubleValue
4.589

@<SCITEGIC>MOL_PROPERTY
Idih
SciTegic.value.DoubleValue
0.000

@<SCITEGIC>MOL_PROPERTY
Tether
SciTegic.value.DoubleValue
0.000

@<TRIPOS>MOLECULE
guest-3_vm2.mol2 : vm2 ligand conformer 349
          29          28           1
SMALL
USER_CHARGES
 
@<TRIPOS>ATOM
       1    C1      20.697112   17.855774   20.512069 C.3        1 MOL1        -0.2427
       2    H1      20.405225   16.897726   20.062658 H          1 MOL1         0.0958
       3    H2      21.027506   18.520618   19.703332 H          1 MOL1         0.0958
       4    H3      21.553155   17.670742   21.173987 H          1 MOL1         0.0958
       5    C2      19.517340   18.473920   21.291564 C.3        1 MOL1        -0.1412
       6    H4      19.185467   17.766463   22.060731 H          1 MOL1         0.0947
       7    H5      18.667125   18.614435   20.609585 H          1 MOL1         0.0947
       8    C3      19.902449   19.832558   21.924959 C.3        1 MOL1        -0.1437
       9    H6      20.791242   19.721253   22.560949 H          1 MOL1         0.0947
      10    H7      20.193874   20.515370   21.114872 H          1 MOL1         0.0947
      11    C4      18.749864   20.489407   22.728537 C.3        1 MOL1        -0.1437
      12    H8      17.776898   20.189805   22.315386 H          1 MOL1         0.0947
      13    H9      18.809678   21.577024   22.584029 H          1 MOL1         0.0947
      14    C5      18.788111   20.220129   24.254851 C.3        1 MOL1        -0.1437
      15    H10     19.725687   20.618390   24.665191 H          1 MOL1         0.0947
      16    H11     17.978879   20.794996   24.725890 H          1 MOL1         0.0947
      17    C6      18.635873   18.728933   24.642005 C.3        1 MOL1        -0.1437
      18    H12     19.507602   18.161270   24.293458 H          1 MOL1         0.0947
      19    H13     17.761704   18.308839   24.125980 H          1 MOL1         0.0947
      20    C7      18.460246   18.514019   26.166042 C.3        1 MOL1        -0.1477
      21    H14     17.536066   19.006156   26.496998 H          1 MOL1         0.0947
      22    H15     18.326277   17.443223   26.369089 H          1 MOL1         0.0947
      23    C8      19.634329   19.046160   27.012417 C.3        1 MOL1         0.0145
      24    H16     19.420139   18.885353   28.072475 H          1 MOL1         0.0921
      25    H17     19.750934   20.120549   26.848640 H          1 MOL1         0.0921
      26    N1      20.958675   18.377100   26.702557 N.4        1 MOL1        -0.5969
      27    H18     20.920638   17.365739   26.866524 H          1 MOL1         0.3603
      28    H19     21.718017   18.747516   27.284503 H          1 MOL1         0.3603
      29    H20     21.231172   18.516699   25.724603 H          1 MOL1         0.3603
@<TRIPOS>BOND
    1     1     2    1
    2     1     3    1
    3     1     4    1
    4     1     5    1
    5     5     6    1
    6     5     7    1
    7     5     8    1
    8     8     9    1
    9     8    10    1
   10     8    11    1
   11    11    12    1
   12    11    13    1
   13    11    14    1
   14    14    15    1
   15    14    16    1
   16    14    17    1
   17    17    18    1
   18    17    19    1
   19    17    20    1
   20    20    21    1
   21    20    22    1
   22    20    23    1
   23    23    24    1
   24    23    25    1
   25    23    26    1
   26    26    27    1
   27    26    28    1
   28    26    29    1
@<TRIPOS>SUBSTRUCTURE
       1 MOL1            1 RESIDUE      1      MOL     
@<SCITEGIC>MOL_PROPERTY
VM2 Rank
SciTegic.value.IntegerValue
349

@<SCITEGIC>MOL_PROPERTY
Conf_Id
SciTegic.value.IntegerValue
2656

@<SCITEGIC>MOL_PROPERTY
Probability
SciTegic.value.DoubleValue
0.00

@<SCITEGIC>MOL_PROPERTY
Sum Probability
SciTegic.value.DoubleValue
99.84

@<SCITEGIC>MOL_PROPERTY
Delta G
SciTegic.value.DoubleValue
4.435

@<SCITEGIC>MOL_PROPERTY
G
SciTegic.value.DoubleValue
62.581

@<SCITEGIC>MOL_PROPERTY
E
SciTegic.value.DoubleValue
24.727

@<SCITEGIC>MOL_PROPERTY
-TS
SciTegic.value.DoubleValue
37.854

@<SCITEGIC>MOL_PROPERTY
U+W
SciTegic.value.DoubleValue
0.582

@<SCITEGIC>MOL_PROPERTY
U
SciTegic.value.DoubleValue
52.924

@<SCITEGIC>MOL_PROPERTY
W
SciTegic.value.DoubleValue
-52.341

@<SCITEGIC>MOL_PROPERTY
W(PB)
SciTegic.value.DoubleValue
-54.773

@<SCITEGIC>MOL_PROPERTY
W(SA)
SciTegic.value.DoubleValue
2.432

@<SCITEGIC>MOL_PROPERTY
Valence
SciTegic.value.DoubleValue
5.968

@<SCITEGIC>MOL_PROPERTY
Coulomb
SciTegic.value.DoubleValue
46.186

@<SCITEGIC>MOL_PROPERTY
VdW
SciTegic.value.DoubleValue
0.771

@<SCITEGIC>MOL_PROPERTY
VdW6
SciTegic.value.DoubleValue
-10.004

@<SCITEGIC>MOL_PROPERTY
VdW12
SciTegic.value.DoubleValue
10.775

@<SCITEGIC>MOL_PROPERTY
Bond
SciTegic.value.DoubleValue
0.276

@<SCITEGIC>MOL_PROPERTY
Angle
SciTegic.value.DoubleValue
1.354

@<SCITEGIC>MOL_PROPERTY
Pdih
SciTegic.value.DoubleValue
4.338

@<SCITEGIC>MOL_PROPERTY
Idih
SciTegic.value.DoubleValue
0.000

@<SCITEGIC>MOL_PROPERTY
Tether
SciTegic.value.DoubleValue
0.000

@<TRIPOS>MOLECULE
guest-3_vm2.mol2 : vm2 ligand conformer 350
          29          28           1
SMALL
USER_CHARGES
 
@<TRIPOS>ATOM
       1    C1      20.717346   19.308190   19.746786 C.3        1 MOL1        -0.2427
       2    H1      21.698980   18.901992   20.023615 H          1 MOL1         0.0958
       3    H2      20.156621   18.521786   19.224858 H          1 MOL1         0.0958
       4    H3      20.880558   20.131750   19.039573 H          1 MOL1         0.0958
       5    C2      19.950706   19.802770   20.991530 C.3        1 MOL1        -0.1412
       6    H4      18.988866   20.233685   20.679954 H          1 MOL1         0.0947
       7    H5      20.519388   20.610979   21.472403 H          1 MOL1         0.0947
       8    C3      19.707291   18.661730   22.003733 C.3        1 MOL1        -0.1437
       9    H6      19.140322   17.855938   21.517212 H          1 MOL1         0.0947
      10    H7      20.671201   18.231906   22.309074 H          1 MOL1         0.0947
      11    C4      18.939493   19.153344   23.251287 C.3        1 MOL1        -0.1437
      12    H8      17.972370   19.574218   22.943307 H          1 MOL1         0.0947
      13    H9      19.502053   19.969480   23.721170 H          1 MOL1         0.0947
      14    C5      18.700485   18.008899   24.265425 C.3        1 MOL1        -0.1437
      15    H10     18.149408   17.202633   23.761698 H          1 MOL1         0.0947
      16    H11     19.654451   17.563923   24.573798 H          1 MOL1         0.0947
      17    C6      17.887382   18.443025   25.511380 C.3        1 MOL1        -0.1437
      18    H12     17.720620   17.560962   26.145008 H          1 MOL1         0.0947
      19    H13     16.889854   18.767414   25.184359 H          1 MOL1         0.0947
      20    C7      18.512043   19.568102   26.379643 C.3        1 MOL1        -0.1477
      21    H14     18.593061   20.503484   25.811551 H          1 MOL1         0.0947
      22    H15     17.814012   19.781340   27.200023 H          1 MOL1         0.0947
      23    C8      19.873506   19.205705   27.008298 C.3        1 MOL1         0.0145
      24    H16     19.857186   18.167706   27.351091 H          1 MOL1         0.0921
      25    H17     20.049482   19.847033   27.876142 H          1 MOL1         0.0921
      26    N1      21.055748   19.386235   26.076918 N.4        1 MOL1        -0.5969
      27    H18     21.168666   20.365489   25.795148 H          1 MOL1         0.3603
      28    H19     20.946652   18.834027   25.220911 H          1 MOL1         0.3603
      29    H20     21.935732   19.098100   26.518909 H          1 MOL1         0.3603
@<TRIPOS>BOND
    1     1     2    1
    2     1     3    1
    3     1     4    1
    4     1     5    1
    5     5     6    1
    6     5     7    1
    7     5     8    1
    8     8     9    1
    9     8    10    1
   10     8    11    1
   11    11    12    1
   12    11    13    1
   13    11    14    1
   14    14    15    1
   15    14    16    1
   16    14    17    1
   17    17    18    1
   18    17    19    1
   19    17    20    1
   20    20    21    1
   21    20    22    1
   22    20    23    1
   23    23    24    1
   24    23    25    1
   25    23    26    1
   26    26    27    1
   27    26    28    1
   28    26    29    1
@<TRIPOS>SUBSTRUCTURE
       1 MOL1            1 RESIDUE      1      MOL     
@<SCITEGIC>MOL_PROPERTY
VM2 Rank
SciTegic.value.IntegerValue
350

@<SCITEGIC>MOL_PROPERTY
Conf_Id
SciTegic.value.IntegerValue
2127

@<SCITEGIC>MOL_PROPERTY
Probability
SciTegic.value.DoubleValue
0.00

@<SCITEGIC>MOL_PROPERTY
Sum Probability
SciTegic.value.DoubleValue
99.84

@<SCITEGIC>MOL_PROPERTY
Delta G
SciTegic.value.DoubleValue
4.442

@<SCITEGIC>MOL_PROPERTY
G
SciTegic.value.DoubleValue
62.588

@<SCITEGIC>MOL_PROPERTY
E
SciTegic.value.DoubleValue
24.629

@<SCITEGIC>MOL_PROPERTY
-TS
SciTegic.value.DoubleValue
37.959

@<SCITEGIC>MOL_PROPERTY
U+W
SciTegic.value.DoubleValue
0.485

@<SCITEGIC>MOL_PROPERTY
U
SciTegic.value.DoubleValue
52.295

@<SCITEGIC>MOL_PROPERTY
W
SciTegic.value.DoubleValue
-51.810

@<SCITEGIC>MOL_PROPERTY
W(PB)
SciTegic.value.DoubleValue
-54.276

@<SCITEGIC>MOL_PROPERTY
W(SA)
SciTegic.value.DoubleValue
2.466

@<SCITEGIC>MOL_PROPERTY
Valence
SciTegic.value.DoubleValue
4.642

@<SCITEGIC>MOL_PROPERTY
Coulomb
SciTegic.value.DoubleValue
47.212

@<SCITEGIC>MOL_PROPERTY
VdW
SciTegic.value.DoubleValue
0.441

@<SCITEGIC>MOL_PROPERTY
VdW6
SciTegic.value.DoubleValue
-9.834

@<SCITEGIC>MOL_PROPERTY
VdW12
SciTegic.value.DoubleValue
10.275

@<SCITEGIC>MOL_PROPERTY
Bond
SciTegic.value.DoubleValue
0.247

@<SCITEGIC>MOL_PROPERTY
Angle
SciTegic.value.DoubleValue
1.461

@<SCITEGIC>MOL_PROPERTY
Pdih
SciTegic.value.DoubleValue
2.934

@<SCITEGIC>MOL_PROPERTY
Idih
SciTegic.value.DoubleValue
0.000

@<SCITEGIC>MOL_PROPERTY
Tether
SciTegic.value.DoubleValue
0.000

@<TRIPOS>MOLECULE
guest-3_vm2.mol2 : vm2 ligand conformer 351
          29          28           1
SMALL
USER_CHARGES
 
@<TRIPOS>ATOM
       1    C1      20.546570   18.936834   19.883310 C.3        1 MOL1        -0.2427
       2    H1      21.225001   18.134749   20.202087 H          1 MOL1         0.0958
       3    H2      19.691002   18.477693   19.371029 H          1 MOL1         0.0958
       4    H3      21.080703   19.560499   19.154771 H          1 MOL1         0.0958
       5    C2      20.082719   19.782460   21.088117 C.3        1 MOL1        -0.1412
       6    H4      19.434303   20.596117   20.734058 H          1 MOL1         0.0947
       7    H5      20.955807   20.254813   21.559751 H          1 MOL1         0.0947
       8    C3      19.326703   18.927790   22.129155 C.3        1 MOL1        -0.1437
       9    H6      18.453791   18.459194   21.654236 H          1 MOL1         0.0947
      10    H7      19.981384   18.114170   22.467971 H          1 MOL1         0.0947
      11    C4      18.865625   19.773010   23.340278 C.3        1 MOL1        -0.1437
      12    H8      18.266888   20.619461   22.976525 H          1 MOL1         0.0947
      13    H9      19.740973   20.211520   23.835208 H          1 MOL1         0.0947
      14    C5      18.012907   18.974480   24.360343 C.3        1 MOL1        -0.1437
      15    H10     17.655612   19.650102   25.147082 H          1 MOL1         0.0947
      16    H11     17.104810   18.619002   23.854076 H          1 MOL1         0.0947
      17    C6      18.721049   17.753533   25.005882 C.3        1 MOL1        -0.1437
      18    H12     18.901502   16.995516   24.232212 H          1 MOL1         0.0947
      19    H13     18.027947   17.282872   25.716723 H          1 MOL1         0.0947
      20    C7      20.059706   18.045629   25.734988 C.3        1 MOL1        -0.1477
      21    H14     20.480436   17.083334   26.055345 H          1 MOL1         0.0947
      22    H15     20.797651   18.475535   25.045923 H          1 MOL1         0.0947
      23    C8      19.919535   18.930431   26.991037 C.3        1 MOL1         0.0145
      24    H16     20.799628   18.792981   27.625037 H          1 MOL1         0.0921
      25    H17     19.039302   18.623203   27.561994 H          1 MOL1         0.0921
      26    N1      19.809186   20.413833   26.701891 N.4        1 MOL1        -0.5969
      27    H18     19.689404   20.960893   27.561555 H          1 MOL1         0.3603
      28    H19     19.010174   20.619335   26.095040 H          1 MOL1         0.3603
      29    H20     20.648051   20.771253   26.233481 H          1 MOL1         0.3603
@<TRIPOS>BOND
    1     1     2    1
    2     1     3    1
    3     1     4    1
    4     1     5    1
    5     5     6    1
    6     5     7    1
    7     5     8    1
    8     8     9    1
    9     8    10    1
   10     8    11    1
   11    11    12    1
   12    11    13    1
   13    11    14    1
   14    14    15    1
   15    14    16    1
   16    14    17    1
   17    17    18    1
   18    17    19    1
   19    17    20    1
   20    20    21    1
   21    20    22    1
   22    20    23    1
   23    23    24    1
   24    23    25    1
   25    23    26    1
   26    26    27    1
   27    26    28    1
   28    26    29    1
@<TRIPOS>SUBSTRUCTURE
       1 MOL1            1 RESIDUE      1      MOL     
@<SCITEGIC>MOL_PROPERTY
VM2 Rank
SciTegic.value.IntegerValue
351

@<SCITEGIC>MOL_PROPERTY
Conf_Id
SciTegic.value.IntegerValue
2002

@<SCITEGIC>MOL_PROPERTY
Probability
SciTegic.value.DoubleValue
0.00

@<SCITEGIC>MOL_PROPERTY
Sum Probability
SciTegic.value.DoubleValue
99.85

@<SCITEGIC>MOL_PROPERTY
Delta G
SciTegic.value.DoubleValue
4.451

@<SCITEGIC>MOL_PROPERTY
G
SciTegic.value.DoubleValue
62.597

@<SCITEGIC>MOL_PROPERTY
E
SciTegic.value.DoubleValue
24.426

@<SCITEGIC>MOL_PROPERTY
-TS
SciTegic.value.DoubleValue
38.171

@<SCITEGIC>MOL_PROPERTY
U+W
SciTegic.value.DoubleValue
0.281

@<SCITEGIC>MOL_PROPERTY
U
SciTegic.value.DoubleValue
52.614

@<SCITEGIC>MOL_PROPERTY
W
SciTegic.value.DoubleValue
-52.333

@<SCITEGIC>MOL_PROPERTY
W(PB)
SciTegic.value.DoubleValue
-54.770

@<SCITEGIC>MOL_PROPERTY
W(SA)
SciTegic.value.DoubleValue
2.437

@<SCITEGIC>MOL_PROPERTY
Valence
SciTegic.value.DoubleValue
5.081

@<SCITEGIC>MOL_PROPERTY
Coulomb
SciTegic.value.DoubleValue
47.116

@<SCITEGIC>MOL_PROPERTY
VdW
SciTegic.value.DoubleValue
0.418

@<SCITEGIC>MOL_PROPERTY
VdW6
SciTegic.value.DoubleValue
-10.638

@<SCITEGIC>MOL_PROPERTY
VdW12
SciTegic.value.DoubleValue
11.056

@<SCITEGIC>MOL_PROPERTY
Bond
SciTegic.value.DoubleValue
0.294

@<SCITEGIC>MOL_PROPERTY
Angle
SciTegic.value.DoubleValue
1.796

@<SCITEGIC>MOL_PROPERTY
Pdih
SciTegic.value.DoubleValue
2.991

@<SCITEGIC>MOL_PROPERTY
Idih
SciTegic.value.DoubleValue
0.000

@<SCITEGIC>MOL_PROPERTY
Tether
SciTegic.value.DoubleValue
0.000

@<TRIPOS>MOLECULE
guest-3_vm2.mol2 : vm2 ligand conformer 352
          29          28           1
SMALL
USER_CHARGES
 
@<TRIPOS>ATOM
       1    C1      19.613369   17.330897   21.433400 C.3        1 MOL1        -0.2427
       2    H1      20.307643   17.244954   20.587531 H          1 MOL1         0.0958
       3    H2      20.200686   17.311419   22.359159 H          1 MOL1         0.0958
       4    H3      18.968928   16.442388   21.430167 H          1 MOL1         0.0958
       5    C2      18.763214   18.617029   21.321658 C.3        1 MOL1        -0.1412
       6    H4      18.058207   18.682831   22.159917 H          1 MOL1         0.0947
       7    H5      18.142520   18.547679   20.417499 H          1 MOL1         0.0947
       8    C3      19.613149   19.908038   21.233984 C.3        1 MOL1        -0.1437
       9    H6      20.243467   19.850518   20.335930 H          1 MOL1         0.0947
      10    H7      18.941658   20.762138   21.070700 H          1 MOL1         0.0947
      11    C4      20.522195   20.211511   22.455581 C.3        1 MOL1        -0.1437
      12    H8      21.109252   21.106249   22.206481 H          1 MOL1         0.0947
      13    H9      21.261410   19.412509   22.598820 H          1 MOL1         0.0947
      14    C5      19.763562   20.497908   23.778269 C.3        1 MOL1        -0.1437
      15    H10     20.324519   21.259216   24.337895 H          1 MOL1         0.0947
      16    H11     18.782853   20.943060   23.561419 H          1 MOL1         0.0947
      17    C6      19.603064   19.256095   24.688614 C.3        1 MOL1        -0.1437
      18    H12     20.595231   18.838688   24.905368 H          1 MOL1         0.0947
      19    H13     19.037091   18.472932   24.171784 H          1 MOL1         0.0947
      20    C7      18.883240   19.607671   26.011853 C.3        1 MOL1        -0.1477
      21    H14     19.459137   20.360938   26.565826 H          1 MOL1         0.0947
      22    H15     17.909119   20.061483   25.785822 H          1 MOL1         0.0947
      23    C8      18.651013   18.376129   26.908120 C.3        1 MOL1         0.0145
      24    H16     18.083130   17.621560   26.357190 H          1 MOL1         0.0921
      25    H17     18.067149   18.670160   27.784581 H          1 MOL1         0.0921
      26    N1      19.931194   17.732721   27.403522 N.4        1 MOL1        -0.5969
      27    H18     20.512983   17.400052   26.628298 H          1 MOL1         0.3603
      28    H19     19.742387   16.924501   28.006602 H          1 MOL1         0.3603
      29    H20     20.499383   18.388351   27.949967 H          1 MOL1         0.3603
@<TRIPOS>BOND
    1     1     2    1
    2     1     3    1
    3     1     4    1
    4     1     5    1
    5     5     6    1
    6     5     7    1
    7     5     8    1
    8     8     9    1
    9     8    10    1
   10     8    11    1
   11    11    12    1
   12    11    13    1
   13    11    14    1
   14    14    15    1
   15    14    16    1
   16    14    17    1
   17    17    18    1
   18    17    19    1
   19    17    20    1
   20    20    21    1
   21    20    22    1
   22    20    23    1
   23    23    24    1
   24    23    25    1
   25    23    26    1
   26    26    27    1
   27    26    28    1
   28    26    29    1
@<TRIPOS>SUBSTRUCTURE
       1 MOL1            1 RESIDUE      1      MOL     
@<SCITEGIC>MOL_PROPERTY
VM2 Rank
SciTegic.value.IntegerValue
352

@<SCITEGIC>MOL_PROPERTY
Conf_Id
SciTegic.value.IntegerValue
1001

@<SCITEGIC>MOL_PROPERTY
Probability
SciTegic.value.DoubleValue
0.00

@<SCITEGIC>MOL_PROPERTY
Sum Probability
SciTegic.value.DoubleValue
99.85

@<SCITEGIC>MOL_PROPERTY
Delta G
SciTegic.value.DoubleValue
4.451

@<SCITEGIC>MOL_PROPERTY
G
SciTegic.value.DoubleValue
62.597

@<SCITEGIC>MOL_PROPERTY
E
SciTegic.value.DoubleValue
24.493

@<SCITEGIC>MOL_PROPERTY
-TS
SciTegic.value.DoubleValue
38.104

@<SCITEGIC>MOL_PROPERTY
U+W
SciTegic.value.DoubleValue
0.349

@<SCITEGIC>MOL_PROPERTY
U
SciTegic.value.DoubleValue
52.599

@<SCITEGIC>MOL_PROPERTY
W
SciTegic.value.DoubleValue
-52.250

@<SCITEGIC>MOL_PROPERTY
W(PB)
SciTegic.value.DoubleValue
-54.666

@<SCITEGIC>MOL_PROPERTY
W(SA)
SciTegic.value.DoubleValue
2.416

@<SCITEGIC>MOL_PROPERTY
Valence
SciTegic.value.DoubleValue
6.291

@<SCITEGIC>MOL_PROPERTY
Coulomb
SciTegic.value.DoubleValue
45.617

@<SCITEGIC>MOL_PROPERTY
VdW
SciTegic.value.DoubleValue
0.690

@<SCITEGIC>MOL_PROPERTY
VdW6
SciTegic.value.DoubleValue
-10.178

@<SCITEGIC>MOL_PROPERTY
VdW12
SciTegic.value.DoubleValue
10.868

@<SCITEGIC>MOL_PROPERTY
Bond
SciTegic.value.DoubleValue
0.295

@<SCITEGIC>MOL_PROPERTY
Angle
SciTegic.value.DoubleValue
1.799

@<SCITEGIC>MOL_PROPERTY
Pdih
SciTegic.value.DoubleValue
4.198

@<SCITEGIC>MOL_PROPERTY
Idih
SciTegic.value.DoubleValue
0.000

@<SCITEGIC>MOL_PROPERTY
Tether
SciTegic.value.DoubleValue
0.000

@<TRIPOS>MOLECULE
guest-3_vm2.mol2 : vm2 ligand conformer 353
          29          28           1
SMALL
USER_CHARGES
 
@<TRIPOS>ATOM
       1    C1      19.661344   17.773277   20.454594 C.3        1 MOL1        -0.2427
       2    H1      19.368645   17.196077   19.568018 H          1 MOL1         0.0958
       3    H2      20.748634   17.679785   20.572418 H          1 MOL1         0.0958
       4    H3      19.174336   17.311339   21.322335 H          1 MOL1         0.0958
       5    C2      19.243440   19.251611   20.298161 C.3        1 MOL1        -0.1412
       6    H4      18.148267   19.315490   20.233323 H          1 MOL1         0.0947
       7    H5      19.627418   19.626806   19.339259 H          1 MOL1         0.0947
       8    C3      19.751253   20.181454   21.429613 C.3        1 MOL1        -0.1437
       9    H6      20.849741   20.201521   21.438284 H          1 MOL1         0.0947
      10    H7      19.438398   21.205087   21.181285 H          1 MOL1         0.0947
      11    C4      19.207603   19.838534   22.841089 C.3        1 MOL1        -0.1437
      12    H8      18.225215   19.353891   22.757839 H          1 MOL1         0.0947
      13    H9      19.039385   20.780904   23.378437 H          1 MOL1         0.0947
      14    C5      20.176243   18.959846   23.673825 C.3        1 MOL1        -0.1437
      15    H10     20.469108   18.076575   23.094010 H          1 MOL1         0.0947
      16    H11     21.103917   19.516573   23.865034 H          1 MOL1         0.0947
      17    C6      19.576140   18.479833   25.018159 C.3        1 MOL1        -0.1437
      18    H12     20.284447   17.777140   25.476456 H          1 MOL1         0.0947
      19    H13     18.656251   17.910142   24.826718 H          1 MOL1         0.0947
      20    C7      19.278865   19.631703   26.010763 C.3        1 MOL1        -0.1477
      21    H14     20.187348   20.223634   26.184081 H          1 MOL1         0.0947
      22    H15     18.536520   20.313387   25.577476 H          1 MOL1         0.0947
      23    C8      18.729320   19.126693   27.358829 C.3        1 MOL1         0.0145
      24    H16     17.835948   18.519914   27.188269 H          1 MOL1         0.0921
      25    H17     18.447292   19.982393   27.978320 H          1 MOL1         0.0921
      26    N1      19.719792   18.295048   28.149967 N.4        1 MOL1        -0.5969
      27    H18     20.574506   18.820548   28.361153 H          1 MOL1         0.3603
      28    H19     20.000468   17.451980   27.639473 H          1 MOL1         0.3603
      29    H20     19.327694   17.987008   29.046600 H          1 MOL1         0.3603
@<TRIPOS>BOND
    1     1     2    1
    2     1     3    1
    3     1     4    1
    4     1     5    1
    5     5     6    1
    6     5     7    1
    7     5     8    1
    8     8     9    1
    9     8    10    1
   10     8    11    1
   11    11    12    1
   12    11    13    1
   13    11    14    1
   14    14    15    1
   15    14    16    1
   16    14    17    1
   17    17    18    1
   18    17    19    1
   19    17    20    1
   20    20    21    1
   21    20    22    1
   22    20    23    1
   23    23    24    1
   24    23    25    1
   25    23    26    1
   26    26    27    1
   27    26    28    1
   28    26    29    1
@<TRIPOS>SUBSTRUCTURE
       1 MOL1            1 RESIDUE      1      MOL     
@<SCITEGIC>MOL_PROPERTY
VM2 Rank
SciTegic.value.IntegerValue
353

@<SCITEGIC>MOL_PROPERTY
Conf_Id
SciTegic.value.IntegerValue
1695

@<SCITEGIC>MOL_PROPERTY
Probability
SciTegic.value.DoubleValue
0.00

@<SCITEGIC>MOL_PROPERTY
Sum Probability
SciTegic.value.DoubleValue
99.85

@<SCITEGIC>MOL_PROPERTY
Delta G
SciTegic.value.DoubleValue
4.453

@<SCITEGIC>MOL_PROPERTY
G
SciTegic.value.DoubleValue
62.599

@<SCITEGIC>MOL_PROPERTY
E
SciTegic.value.DoubleValue
24.832

@<SCITEGIC>MOL_PROPERTY
-TS
SciTegic.value.DoubleValue
37.767

@<SCITEGIC>MOL_PROPERTY
U+W
SciTegic.value.DoubleValue
0.688

@<SCITEGIC>MOL_PROPERTY
U
SciTegic.value.DoubleValue
52.368

@<SCITEGIC>MOL_PROPERTY
W
SciTegic.value.DoubleValue
-51.680

@<SCITEGIC>MOL_PROPERTY
W(PB)
SciTegic.value.DoubleValue
-54.143

@<SCITEGIC>MOL_PROPERTY
W(SA)
SciTegic.value.DoubleValue
2.463

@<SCITEGIC>MOL_PROPERTY
Valence
SciTegic.value.DoubleValue
6.262

@<SCITEGIC>MOL_PROPERTY
Coulomb
SciTegic.value.DoubleValue
45.003

@<SCITEGIC>MOL_PROPERTY
VdW
SciTegic.value.DoubleValue
1.103

@<SCITEGIC>MOL_PROPERTY
VdW6
SciTegic.value.DoubleValue
-9.650

@<SCITEGIC>MOL_PROPERTY
VdW12
SciTegic.value.DoubleValue
10.753

@<SCITEGIC>MOL_PROPERTY
Bond
SciTegic.value.DoubleValue
0.297

@<SCITEGIC>MOL_PROPERTY
Angle
SciTegic.value.DoubleValue
1.421

@<SCITEGIC>MOL_PROPERTY
Pdih
SciTegic.value.DoubleValue
4.544

@<SCITEGIC>MOL_PROPERTY
Idih
SciTegic.value.DoubleValue
0.000

@<SCITEGIC>MOL_PROPERTY
Tether
SciTegic.value.DoubleValue
0.000

@<TRIPOS>MOLECULE
guest-3_vm2.mol2 : vm2 ligand conformer 354
          29          28           1
SMALL
USER_CHARGES
 
@<TRIPOS>ATOM
       1    C1      20.974111   18.728558   20.891410 C.3        1 MOL1        -0.2427
       2    H1      21.399801   19.033999   21.855342 H          1 MOL1         0.0958
       3    H2      21.093513   17.642030   20.790789 H          1 MOL1         0.0958
       4    H3      21.567747   19.206744   20.101627 H          1 MOL1         0.0958
       5    C2      19.488276   19.136945   20.774046 C.3        1 MOL1        -0.1412
       6    H4      19.141332   18.919719   19.754223 H          1 MOL1         0.0947
       7    H5      19.391961   20.223782   20.899469 H          1 MOL1         0.0947
       8    C3      18.565257   18.398715   21.776778 C.3        1 MOL1        -0.1437
       9    H6      17.527417   18.712821   21.599810 H          1 MOL1         0.0947
      10    H7      18.594210   17.321878   21.560804 H          1 MOL1         0.0947
      11    C4      18.909803   18.616516   23.272512 C.3        1 MOL1        -0.1437
      12    H8      19.903226   18.200052   23.476872 H          1 MOL1         0.0947
      13    H9      18.198387   18.040916   23.880129 H          1 MOL1         0.0947
      14    C5      18.861649   20.103119   23.702124 C.3        1 MOL1        -0.1437
      15    H10     19.691094   20.650393   23.234713 H          1 MOL1         0.0947
      16    H11     17.938630   20.554898   23.313503 H          1 MOL1         0.0947
      17    C6      18.901872   20.332401   25.235045 C.3        1 MOL1        -0.1437
      18    H12     18.024466   19.871765   25.706946 H          1 MOL1         0.0947
      19    H13     18.793750   21.412132   25.407636 H          1 MOL1         0.0947
      20    C7      20.208131   19.868112   25.933437 C.3        1 MOL1        -0.1477
      21    H14     21.070472   20.100986   25.294814 H          1 MOL1         0.0947
      22    H15     20.347097   20.454278   26.851571 H          1 MOL1         0.0947
      23    C8      20.240223   18.372359   26.311979 C.3        1 MOL1         0.0145
      24    H16     21.219693   18.129452   26.732814 H          1 MOL1         0.0921
      25    H17     20.090878   17.751974   25.426950 H          1 MOL1         0.0921
      26    N1      19.194678   17.981274   27.337669 N.4        1 MOL1        -0.5969
      27    H18     19.301292   18.510281   28.209434 H          1 MOL1         0.3603
      28    H19     19.253456   16.986507   27.581388 H          1 MOL1         0.3603
      29    H20     18.244513   18.151620   26.994119 H          1 MOL1         0.3603
@<TRIPOS>BOND
    1     1     2    1
    2     1     3    1
    3     1     4    1
    4     1     5    1
    5     5     6    1
    6     5     7    1
    7     5     8    1
    8     8     9    1
    9     8    10    1
   10     8    11    1
   11    11    12    1
   12    11    13    1
   13    11    14    1
   14    14    15    1
   15    14    16    1
   16    14    17    1
   17    17    18    1
   18    17    19    1
   19    17    20    1
   20    20    21    1
   21    20    22    1
   22    20    23    1
   23    23    24    1
   24    23    25    1
   25    23    26    1
   26    26    27    1
   27    26    28    1
   28    26    29    1
@<TRIPOS>SUBSTRUCTURE
       1 MOL1            1 RESIDUE      1      MOL     
@<SCITEGIC>MOL_PROPERTY
VM2 Rank
SciTegic.value.IntegerValue
354

@<SCITEGIC>MOL_PROPERTY
Conf_Id
SciTegic.value.IntegerValue
204

@<SCITEGIC>MOL_PROPERTY
Probability
SciTegic.value.DoubleValue
0.00

@<SCITEGIC>MOL_PROPERTY
Sum Probability
SciTegic.value.DoubleValue
99.86

@<SCITEGIC>MOL_PROPERTY
Delta G
SciTegic.value.DoubleValue
4.453

@<SCITEGIC>MOL_PROPERTY
G
SciTegic.value.DoubleValue
62.600

@<SCITEGIC>MOL_PROPERTY
E
SciTegic.value.DoubleValue
24.588

@<SCITEGIC>MOL_PROPERTY
-TS
SciTegic.value.DoubleValue
38.012

@<SCITEGIC>MOL_PROPERTY
U+W
SciTegic.value.DoubleValue
0.443

@<SCITEGIC>MOL_PROPERTY
U
SciTegic.value.DoubleValue
52.866

@<SCITEGIC>MOL_PROPERTY
W
SciTegic.value.DoubleValue
-52.423

@<SCITEGIC>MOL_PROPERTY
W(PB)
SciTegic.value.DoubleValue
-54.832

@<SCITEGIC>MOL_PROPERTY
W(SA)
SciTegic.value.DoubleValue
2.409

@<SCITEGIC>MOL_PROPERTY
Valence
SciTegic.value.DoubleValue
6.022

@<SCITEGIC>MOL_PROPERTY
Coulomb
SciTegic.value.DoubleValue
46.076

@<SCITEGIC>MOL_PROPERTY
VdW
SciTegic.value.DoubleValue
0.768

@<SCITEGIC>MOL_PROPERTY
VdW6
SciTegic.value.DoubleValue
-10.899

@<SCITEGIC>MOL_PROPERTY
VdW12
SciTegic.value.DoubleValue
11.667

@<SCITEGIC>MOL_PROPERTY
Bond
SciTegic.value.DoubleValue
0.324

@<SCITEGIC>MOL_PROPERTY
Angle
SciTegic.value.DoubleValue
1.901

@<SCITEGIC>MOL_PROPERTY
Pdih
SciTegic.value.DoubleValue
3.797

@<SCITEGIC>MOL_PROPERTY
Idih
SciTegic.value.DoubleValue
0.000

@<SCITEGIC>MOL_PROPERTY
Tether
SciTegic.value.DoubleValue
0.000

@<TRIPOS>MOLECULE
guest-3_vm2.mol2 : vm2 ligand conformer 355
          29          28           1
SMALL
USER_CHARGES
 
@<TRIPOS>ATOM
       1    C1      21.247259   18.606110   21.772667 C.3        1 MOL1        -0.2427
       2    H1      22.074374   17.997700   21.384646 H          1 MOL1         0.0958
       3    H2      21.488967   19.660449   21.586123 H          1 MOL1         0.0958
       4    H3      21.201977   18.442843   22.855887 H          1 MOL1         0.0958
       5    C2      19.920058   18.209181   21.090774 C.3        1 MOL1        -0.1412
       6    H4      19.668167   17.173658   21.358926 H          1 MOL1         0.0947
       7    H5      20.068994   18.213667   20.001968 H          1 MOL1         0.0947
       8    C3      18.725601   19.138464   21.425990 C.3        1 MOL1        -0.1437
       9    H6      18.926725   20.156376   21.064995 H          1 MOL1         0.0947
      10    H7      17.860947   18.785366   20.847184 H          1 MOL1         0.0947
      11    C4      18.323769   19.166014   22.923812 C.3        1 MOL1        -0.1437
      12    H8      18.562301   18.199418   23.385936 H          1 MOL1         0.0947
      13    H9      17.232370   19.274690   22.988076 H          1 MOL1         0.0947
      14    C5      18.971157   20.332493   23.713951 C.3        1 MOL1        -0.1437
      15    H10     20.064013   20.256194   23.690425 H          1 MOL1         0.0947
      16    H11     18.728077   21.278652   23.211276 H          1 MOL1         0.0947
      17    C6      18.485455   20.427613   25.183426 C.3        1 MOL1        -0.1437
      18    H12     17.403063   20.616017   25.194152 H          1 MOL1         0.0947
      19    H13     18.949542   21.307102   25.650888 H          1 MOL1         0.0947
      20    C7      18.787887   19.181511   26.052425 C.3        1 MOL1        -0.1477
      21    H14     18.433126   19.368704   27.074631 H          1 MOL1         0.0947
      22    H15     18.219175   18.318467   25.683761 H          1 MOL1         0.0947
      23    C8      20.287544   18.835036   26.095638 C.3        1 MOL1         0.0145
      24    H16     20.852218   19.690546   26.475870 H          1 MOL1         0.0921
      25    H17     20.642226   18.607859   25.087225 H          1 MOL1         0.0921
      26    N1      20.595269   17.641578   26.976317 N.4        1 MOL1        -0.5969
      27    H18     20.113470   16.795478   26.654965 H          1 MOL1         0.3603
      28    H19     20.309507   17.801173   27.948065 H          1 MOL1         0.3603
      29    H20     21.598529   17.427622   26.991298 H          1 MOL1         0.3603
@<TRIPOS>BOND
    1     1     2    1
    2     1     3    1
    3     1     4    1
    4     1     5    1
    5     5     6    1
    6     5     7    1
    7     5     8    1
    8     8     9    1
    9     8    10    1
   10     8    11    1
   11    11    12    1
   12    11    13    1
   13    11    14    1
   14    14    15    1
   15    14    16    1
   16    14    17    1
   17    17    18    1
   18    17    19    1
   19    17    20    1
   20    20    21    1
   21    20    22    1
   22    20    23    1
   23    23    24    1
   24    23    25    1
   25    23    26    1
   26    26    27    1
   27    26    28    1
   28    26    29    1
@<TRIPOS>SUBSTRUCTURE
       1 MOL1            1 RESIDUE      1      MOL     
@<SCITEGIC>MOL_PROPERTY
VM2 Rank
SciTegic.value.IntegerValue
355

@<SCITEGIC>MOL_PROPERTY
Conf_Id
SciTegic.value.IntegerValue
908

@<SCITEGIC>MOL_PROPERTY
Probability
SciTegic.value.DoubleValue
0.00

@<SCITEGIC>MOL_PROPERTY
Sum Probability
SciTegic.value.DoubleValue
99.86

@<SCITEGIC>MOL_PROPERTY
Delta G
SciTegic.value.DoubleValue
4.454

@<SCITEGIC>MOL_PROPERTY
G
SciTegic.value.DoubleValue
62.600

@<SCITEGIC>MOL_PROPERTY
E
SciTegic.value.DoubleValue
24.625

@<SCITEGIC>MOL_PROPERTY
-TS
SciTegic.value.DoubleValue
37.975

@<SCITEGIC>MOL_PROPERTY
U+W
SciTegic.value.DoubleValue
0.481

@<SCITEGIC>MOL_PROPERTY
U
SciTegic.value.DoubleValue
53.131

@<SCITEGIC>MOL_PROPERTY
W
SciTegic.value.DoubleValue
-52.650

@<SCITEGIC>MOL_PROPERTY
W(PB)
SciTegic.value.DoubleValue
-55.048

@<SCITEGIC>MOL_PROPERTY
W(SA)
SciTegic.value.DoubleValue
2.398

@<SCITEGIC>MOL_PROPERTY
Valence
SciTegic.value.DoubleValue
6.303

@<SCITEGIC>MOL_PROPERTY
Coulomb
SciTegic.value.DoubleValue
46.251

@<SCITEGIC>MOL_PROPERTY
VdW
SciTegic.value.DoubleValue
0.577

@<SCITEGIC>MOL_PROPERTY
VdW6
SciTegic.value.DoubleValue
-10.485

@<SCITEGIC>MOL_PROPERTY
VdW12
SciTegic.value.DoubleValue
11.062

@<SCITEGIC>MOL_PROPERTY
Bond
SciTegic.value.DoubleValue
0.303

@<SCITEGIC>MOL_PROPERTY
Angle
SciTegic.value.DoubleValue
1.680

@<SCITEGIC>MOL_PROPERTY
Pdih
SciTegic.value.DoubleValue
4.320

@<SCITEGIC>MOL_PROPERTY
Idih
SciTegic.value.DoubleValue
0.000

@<SCITEGIC>MOL_PROPERTY
Tether
SciTegic.value.DoubleValue
0.000

@<TRIPOS>MOLECULE
guest-3_vm2.mol2 : vm2 ligand conformer 356
          29          28           1
SMALL
USER_CHARGES
 
@<TRIPOS>ATOM
       1    C1      19.952451   19.362755   19.718617 C.3        1 MOL1        -0.2427
       2    H1      19.716666   19.851220   18.764294 H          1 MOL1         0.0958
       3    H2      21.042910   19.379628   19.843593 H          1 MOL1         0.0958
       4    H3      19.630992   18.316994   19.640641 H          1 MOL1         0.0958
       5    C2      19.247910   20.090451   20.886156 C.3        1 MOL1        -0.1412
       6    H4      18.158207   20.030112   20.757225 H          1 MOL1         0.0947
       7    H5      19.503980   21.158197   20.840258 H          1 MOL1         0.0947
       8    C3      19.641815   19.547295   22.281103 C.3        1 MOL1        -0.1437
       9    H6      20.732666   19.598315   22.400504 H          1 MOL1         0.0947
      10    H7      19.209133   20.216060   23.036027 H          1 MOL1         0.0947
      11    C4      19.151179   18.101667   22.542082 C.3        1 MOL1        -0.1437
      12    H8      19.529240   17.438318   21.753928 H          1 MOL1         0.0947
      13    H9      18.055409   18.070157   22.469554 H          1 MOL1         0.0947
      14    C5      19.593177   17.513788   23.907273 C.3        1 MOL1        -0.1437
      15    H10     19.225146   16.479560   23.955878 H          1 MOL1         0.0947
      16    H11     20.688604   17.439186   23.948677 H          1 MOL1         0.0947
      17    C6      19.057536   18.276054   25.147202 C.3        1 MOL1        -0.1437
      18    H12     18.803939   17.538503   25.920362 H          1 MOL1         0.0947
      19    H13     18.119085   18.790343   24.897850 H          1 MOL1         0.0947
      20    C7      20.082143   19.277141   25.739069 C.3        1 MOL1        -0.1477
      21    H14     20.973436   18.736806   26.084743 H          1 MOL1         0.0947
      22    H15     20.426122   19.971687   24.964250 H          1 MOL1         0.0947
      23    C8      19.500719   20.101515   26.903593 C.3        1 MOL1         0.0145
      24    H16     18.610342   20.638522   26.565613 H          1 MOL1         0.0921
      25    H17     20.239544   20.837921   27.231278 H          1 MOL1         0.0921
      26    N1      19.117070   19.267334   28.109904 N.4        1 MOL1        -0.5969
      27    H18     18.397085   18.575636   27.878750 H          1 MOL1         0.3603
      28    H19     18.744757   19.846409   28.870564 H          1 MOL1         0.3603
      29    H20     19.920065   18.754552   28.488728 H          1 MOL1         0.3603
@<TRIPOS>BOND
    1     1     2    1
    2     1     3    1
    3     1     4    1
    4     1     5    1
    5     5     6    1
    6     5     7    1
    7     5     8    1
    8     8     9    1
    9     8    10    1
   10     8    11    1
   11    11    12    1
   12    11    13    1
   13    11    14    1
   14    14    15    1
   15    14    16    1
   16    14    17    1
   17    17    18    1
   18    17    19    1
   19    17    20    1
   20    20    21    1
   21    20    22    1
   22    20    23    1
   23    23    24    1
   24    23    25    1
   25    23    26    1
   26    26    27    1
   27    26    28    1
   28    26    29    1
@<TRIPOS>SUBSTRUCTURE
       1 MOL1            1 RESIDUE      1      MOL     
@<SCITEGIC>MOL_PROPERTY
VM2 Rank
SciTegic.value.IntegerValue
356

@<SCITEGIC>MOL_PROPERTY
Conf_Id
SciTegic.value.IntegerValue
2651

@<SCITEGIC>MOL_PROPERTY
Probability
SciTegic.value.DoubleValue
0.00

@<SCITEGIC>MOL_PROPERTY
Sum Probability
SciTegic.value.DoubleValue
99.86

@<SCITEGIC>MOL_PROPERTY
Delta G
SciTegic.value.DoubleValue
4.464

@<SCITEGIC>MOL_PROPERTY
G
SciTegic.value.DoubleValue
62.610

@<SCITEGIC>MOL_PROPERTY
E
SciTegic.value.DoubleValue
24.853

@<SCITEGIC>MOL_PROPERTY
-TS
SciTegic.value.DoubleValue
37.758

@<SCITEGIC>MOL_PROPERTY
U+W
SciTegic.value.DoubleValue
0.708

@<SCITEGIC>MOL_PROPERTY
U
SciTegic.value.DoubleValue
52.665

@<SCITEGIC>MOL_PROPERTY
W
SciTegic.value.DoubleValue
-51.957

@<SCITEGIC>MOL_PROPERTY
W(PB)
SciTegic.value.DoubleValue
-54.410

@<SCITEGIC>MOL_PROPERTY
W(SA)
SciTegic.value.DoubleValue
2.453

@<SCITEGIC>MOL_PROPERTY
Valence
SciTegic.value.DoubleValue
6.368

@<SCITEGIC>MOL_PROPERTY
Coulomb
SciTegic.value.DoubleValue
45.200

@<SCITEGIC>MOL_PROPERTY
VdW
SciTegic.value.DoubleValue
1.097

@<SCITEGIC>MOL_PROPERTY
VdW6
SciTegic.value.DoubleValue
-9.663

@<SCITEGIC>MOL_PROPERTY
VdW12
SciTegic.value.DoubleValue
10.760

@<SCITEGIC>MOL_PROPERTY
Bond
SciTegic.value.DoubleValue
0.297

@<SCITEGIC>MOL_PROPERTY
Angle
SciTegic.value.DoubleValue
1.452

@<SCITEGIC>MOL_PROPERTY
Pdih
SciTegic.value.DoubleValue
4.618

@<SCITEGIC>MOL_PROPERTY
Idih
SciTegic.value.DoubleValue
0.000

@<SCITEGIC>MOL_PROPERTY
Tether
SciTegic.value.DoubleValue
0.000

@<TRIPOS>MOLECULE
guest-3_vm2.mol2 : vm2 ligand conformer 357
          29          28           1
SMALL
USER_CHARGES
 
@<TRIPOS>ATOM
       1    C1      20.441076   18.641846   19.876482 C.3        1 MOL1        -0.2427
       2    H1      21.469319   18.820753   20.216979 H          1 MOL1         0.0958
       3    H2      20.470553   17.850415   19.116355 H          1 MOL1         0.0958
       4    H3      20.075893   19.558372   19.394964 H          1 MOL1         0.0958
       5    C2      19.530250   18.233250   21.053447 C.3        1 MOL1        -0.1412
       6    H4      19.901176   17.297004   21.493556 H          1 MOL1         0.0947
       7    H5      18.518422   18.027855   20.676808 H          1 MOL1         0.0947
       8    C3      19.470676   19.331312   22.138110 C.3        1 MOL1        -0.1437
       9    H6      20.487526   19.533217   22.499539 H          1 MOL1         0.0947
      10    H7      19.097691   20.264709   21.694534 H          1 MOL1         0.0947
      11    C4      18.561984   18.921116   23.321252 C.3        1 MOL1        -0.1437
      12    H8      18.955598   18.008666   23.785993 H          1 MOL1         0.0947
      13    H9      17.568052   18.659409   22.932808 H          1 MOL1         0.0947
      14    C5      18.392278   20.037764   24.384081 C.3        1 MOL1        -0.1437
      15    H10     17.921092   20.907196   23.905142 H          1 MOL1         0.0947
      16    H11     17.677072   19.710010   25.148372 H          1 MOL1         0.0947
      17    C6      19.703808   20.508666   25.067481 C.3        1 MOL1        -0.1437
      18    H12     19.454712   21.283059   25.806044 H          1 MOL1         0.0947
      19    H13     20.334058   21.011409   24.321993 H          1 MOL1         0.0947
      20    C7      20.545267   19.407103   25.765637 C.3        1 MOL1        -0.1477
      21    H14     20.854658   18.635064   25.049798 H          1 MOL1         0.0947
      22    H15     21.475180   19.872637   26.118049 H          1 MOL1         0.0947
      23    C8      19.859071   18.761628   26.987390 C.3        1 MOL1         0.0145
      24    H16     19.363460   19.533430   27.582271 H          1 MOL1         0.0921
      25    H17     20.618493   18.286262   27.614060 H          1 MOL1         0.0921
      26    N1      18.839590   17.695316   26.641119 N.4        1 MOL1        -0.5969
      27    H18     18.099556   18.065667   26.037704 H          1 MOL1         0.3603
      28    H19     18.388452   17.313905   27.479955 H          1 MOL1         0.3603
      29    H20     19.269960   16.906781   26.147313 H          1 MOL1         0.3603
@<TRIPOS>BOND
    1     1     2    1
    2     1     3    1
    3     1     4    1
    4     1     5    1
    5     5     6    1
    6     5     7    1
    7     5     8    1
    8     8     9    1
    9     8    10    1
   10     8    11    1
   11    11    12    1
   12    11    13    1
   13    11    14    1
   14    14    15    1
   15    14    16    1
   16    14    17    1
   17    17    18    1
   18    17    19    1
   19    17    20    1
   20    20    21    1
   21    20    22    1
   22    20    23    1
   23    23    24    1
   24    23    25    1
   25    23    26    1
   26    26    27    1
   27    26    28    1
   28    26    29    1
@<TRIPOS>SUBSTRUCTURE
       1 MOL1            1 RESIDUE      1      MOL     
@<SCITEGIC>MOL_PROPERTY
VM2 Rank
SciTegic.value.IntegerValue
357

@<SCITEGIC>MOL_PROPERTY
Conf_Id
SciTegic.value.IntegerValue
1970

@<SCITEGIC>MOL_PROPERTY
Probability
SciTegic.value.DoubleValue
0.00

@<SCITEGIC>MOL_PROPERTY
Sum Probability
SciTegic.value.DoubleValue
99.86

@<SCITEGIC>MOL_PROPERTY
Delta G
SciTegic.value.DoubleValue
4.477

@<SCITEGIC>MOL_PROPERTY
G
SciTegic.value.DoubleValue
62.623

@<SCITEGIC>MOL_PROPERTY
E
SciTegic.value.DoubleValue
24.452

@<SCITEGIC>MOL_PROPERTY
-TS
SciTegic.value.DoubleValue
38.171

@<SCITEGIC>MOL_PROPERTY
U+W
SciTegic.value.DoubleValue
0.308

@<SCITEGIC>MOL_PROPERTY
U
SciTegic.value.DoubleValue
52.614

@<SCITEGIC>MOL_PROPERTY
W
SciTegic.value.DoubleValue
-52.306

@<SCITEGIC>MOL_PROPERTY
W(PB)
SciTegic.value.DoubleValue
-54.733

@<SCITEGIC>MOL_PROPERTY
W(SA)
SciTegic.value.DoubleValue
2.427

@<SCITEGIC>MOL_PROPERTY
Valence
SciTegic.value.DoubleValue
5.081

@<SCITEGIC>MOL_PROPERTY
Coulomb
SciTegic.value.DoubleValue
47.116

@<SCITEGIC>MOL_PROPERTY
VdW
SciTegic.value.DoubleValue
0.418

@<SCITEGIC>MOL_PROPERTY
VdW6
SciTegic.value.DoubleValue
-10.637

@<SCITEGIC>MOL_PROPERTY
VdW12
SciTegic.value.DoubleValue
11.055

@<SCITEGIC>MOL_PROPERTY
Bond
SciTegic.value.DoubleValue
0.294

@<SCITEGIC>MOL_PROPERTY
Angle
SciTegic.value.DoubleValue
1.795

@<SCITEGIC>MOL_PROPERTY
Pdih
SciTegic.value.DoubleValue
2.991

@<SCITEGIC>MOL_PROPERTY
Idih
SciTegic.value.DoubleValue
0.000

@<SCITEGIC>MOL_PROPERTY
Tether
SciTegic.value.DoubleValue
0.000

@<TRIPOS>MOLECULE
guest-3_vm2.mol2 : vm2 ligand conformer 358
          29          28           1
SMALL
USER_CHARGES
 
@<TRIPOS>ATOM
       1    C1      21.313436   19.215424   21.619422 C.3        1 MOL1        -0.2427
       2    H1      21.474355   18.174677   21.928951 H          1 MOL1         0.0958
       3    H2      22.212899   19.550605   21.087006 H          1 MOL1         0.0958
       4    H3      21.214185   19.837059   22.517643 H          1 MOL1         0.0958
       5    C2      20.070931   19.340975   20.711096 C.3        1 MOL1        -0.1412
       6    H4      20.282995   18.844592   19.753839 H          1 MOL1         0.0947
       7    H5      19.899527   20.400049   20.473061 H          1 MOL1         0.0947
       8    C3      18.778371   18.726954   21.307010 C.3        1 MOL1        -0.1437
       9    H6      17.984738   18.833937   20.554654 H          1 MOL1         0.0947
      10    H7      18.905735   17.645229   21.450981 H          1 MOL1         0.0947
      11    C4      18.290861   19.391412   22.620824 C.3        1 MOL1        -0.1437
      12    H8      17.192087   19.396685   22.620965 H          1 MOL1         0.0947
      13    H9      18.599754   20.445444   22.646088 H          1 MOL1         0.0947
      14    C5      18.769998   18.656403   23.896308 C.3        1 MOL1        -0.1437
      15    H10     18.392098   17.624830   23.884471 H          1 MOL1         0.0947
      16    H11     19.863283   18.588117   23.901817 H          1 MOL1         0.0947
      17    C6      18.283114   19.366276   25.182050 C.3        1 MOL1        -0.1437
      18    H12     17.188333   19.454797   25.152064 H          1 MOL1         0.0947
      19    H13     18.671248   20.393242   25.208601 H          1 MOL1         0.0947
      20    C7      18.681857   18.618801   26.479212 C.3        1 MOL1        -0.1477
      21    H14     18.269354   19.151632   27.346231 H          1 MOL1         0.0947
      22    H15     18.216396   17.624224   26.481334 H          1 MOL1         0.0947
      23    C8      20.203684   18.453155   26.666415 C.3        1 MOL1         0.0145
      24    H16     20.619134   17.881102   25.832896 H          1 MOL1         0.0921
      25    H17     20.397852   17.898714   27.588569 H          1 MOL1         0.0921
      26    N1      20.951749   19.768600   26.752662 N.4        1 MOL1        -0.5969
      27    H18     21.959428   19.626355   26.882171 H          1 MOL1         0.3603
      28    H19     20.625548   20.339813   27.539116 H          1 MOL1         0.3603
      29    H20     20.831529   20.326529   25.901541 H          1 MOL1         0.3603
@<TRIPOS>BOND
    1     1     2    1
    2     1     3    1
    3     1     4    1
    4     1     5    1
    5     5     6    1
    6     5     7    1
    7     5     8    1
    8     8     9    1
    9     8    10    1
   10     8    11    1
   11    11    12    1
   12    11    13    1
   13    11    14    1
   14    14    15    1
   15    14    16    1
   16    14    17    1
   17    17    18    1
   18    17    19    1
   19    17    20    1
   20    20    21    1
   21    20    22    1
   22    20    23    1
   23    23    24    1
   24    23    25    1
   25    23    26    1
   26    26    27    1
   27    26    28    1
   28    26    29    1
@<TRIPOS>SUBSTRUCTURE
       1 MOL1            1 RESIDUE      1      MOL     
@<SCITEGIC>MOL_PROPERTY
VM2 Rank
SciTegic.value.IntegerValue
358

@<SCITEGIC>MOL_PROPERTY
Conf_Id
SciTegic.value.IntegerValue
2010

@<SCITEGIC>MOL_PROPERTY
Probability
SciTegic.value.DoubleValue
0.00

@<SCITEGIC>MOL_PROPERTY
Sum Probability
SciTegic.value.DoubleValue
99.87

@<SCITEGIC>MOL_PROPERTY
Delta G
SciTegic.value.DoubleValue
4.481

@<SCITEGIC>MOL_PROPERTY
G
SciTegic.value.DoubleValue
62.627

@<SCITEGIC>MOL_PROPERTY
E
SciTegic.value.DoubleValue
24.788

@<SCITEGIC>MOL_PROPERTY
-TS
SciTegic.value.DoubleValue
37.839

@<SCITEGIC>MOL_PROPERTY
U+W
SciTegic.value.DoubleValue
0.643

@<SCITEGIC>MOL_PROPERTY
U
SciTegic.value.DoubleValue
52.928

@<SCITEGIC>MOL_PROPERTY
W
SciTegic.value.DoubleValue
-52.284

@<SCITEGIC>MOL_PROPERTY
W(PB)
SciTegic.value.DoubleValue
-54.701

@<SCITEGIC>MOL_PROPERTY
W(SA)
SciTegic.value.DoubleValue
2.416

@<SCITEGIC>MOL_PROPERTY
Valence
SciTegic.value.DoubleValue
5.923

@<SCITEGIC>MOL_PROPERTY
Coulomb
SciTegic.value.DoubleValue
46.207

@<SCITEGIC>MOL_PROPERTY
VdW
SciTegic.value.DoubleValue
0.798

@<SCITEGIC>MOL_PROPERTY
VdW6
SciTegic.value.DoubleValue
-9.984

@<SCITEGIC>MOL_PROPERTY
VdW12
SciTegic.value.DoubleValue
10.782

@<SCITEGIC>MOL_PROPERTY
Bond
SciTegic.value.DoubleValue
0.278

@<SCITEGIC>MOL_PROPERTY
Angle
SciTegic.value.DoubleValue
1.366

@<SCITEGIC>MOL_PROPERTY
Pdih
SciTegic.value.DoubleValue
4.279

@<SCITEGIC>MOL_PROPERTY
Idih
SciTegic.value.DoubleValue
0.000

@<SCITEGIC>MOL_PROPERTY
Tether
SciTegic.value.DoubleValue
0.000

@<TRIPOS>MOLECULE
guest-3_vm2.mol2 : vm2 ligand conformer 359
          29          28           1
SMALL
USER_CHARGES
 
@<TRIPOS>ATOM
       1    C1      20.030460   18.814611   19.527739 C.3        1 MOL1        -0.2427
       2    H1      20.135890   17.741144   19.323348 H          1 MOL1         0.0958
       3    H2      19.471265   19.262444   18.696003 H          1 MOL1         0.0958
       4    H3      21.033443   19.260875   19.538791 H          1 MOL1         0.0958
       5    C2      19.301816   19.056052   20.866703 C.3        1 MOL1        -0.1412
       6    H4      18.292588   18.624272   20.815038 H          1 MOL1         0.0947
       7    H5      19.179382   20.137097   21.014514 H          1 MOL1         0.0947
       8    C3      20.074824   18.437353   22.055387 C.3        1 MOL1        -0.1437
       9    H6      20.260399   17.375116   21.844343 H          1 MOL1         0.0947
      10    H7      21.062490   18.910912   22.141794 H          1 MOL1         0.0947
      11    C4      19.328212   18.543920   23.407899 C.3        1 MOL1        -0.1437
      12    H8      19.888563   17.961236   24.146598 H          1 MOL1         0.0947
      13    H9      18.344088   18.063600   23.319866 H          1 MOL1         0.0947
      14    C5      19.153646   20.002761   23.903371 C.3        1 MOL1        -0.1437
      15    H10     20.123928   20.517611   23.923344 H          1 MOL1         0.0947
      16    H11     18.535944   20.545823   23.176490 H          1 MOL1         0.0947
      17    C6      18.462228   20.119158   25.287076 C.3        1 MOL1        -0.1437
      18    H12     17.700192   19.336880   25.402088 H          1 MOL1         0.0947
      19    H13     17.910088   21.068988   25.307410 H          1 MOL1         0.0947
      20    C7      19.431045   20.126417   26.499504 C.3        1 MOL1        -0.1477
      21    H14     20.143600   20.954257   26.386870 H          1 MOL1         0.0947
      22    H15     18.859035   20.343216   27.411435 H          1 MOL1         0.0947
      23    C8      20.221454   18.821698   26.713237 C.3        1 MOL1         0.0145
      24    H16     20.885601   18.938455   27.573887 H          1 MOL1         0.0921
      25    H17     20.840039   18.615051   25.836888 H          1 MOL1         0.0921
      26    N1      19.340314   17.616030   26.974083 N.4        1 MOL1        -0.5969
      27    H18     18.701021   17.441219   26.192674 H          1 MOL1         0.3603
      28    H19     18.765609   17.741809   27.813804 H          1 MOL1         0.3603
      29    H20     19.892507   16.762752   27.113391 H          1 MOL1         0.3603
@<TRIPOS>BOND
    1     1     2    1
    2     1     3    1
    3     1     4    1
    4     1     5    1
    5     5     6    1
    6     5     7    1
    7     5     8    1
    8     8     9    1
    9     8    10    1
   10     8    11    1
   11    11    12    1
   12    11    13    1
   13    11    14    1
   14    14    15    1
   15    14    16    1
   16    14    17    1
   17    17    18    1
   18    17    19    1
   19    17    20    1
   20    20    21    1
   21    20    22    1
   22    20    23    1
   23    23    24    1
   24    23    25    1
   25    23    26    1
   26    26    27    1
   27    26    28    1
   28    26    29    1
@<TRIPOS>SUBSTRUCTURE
       1 MOL1            1 RESIDUE      1      MOL     
@<SCITEGIC>MOL_PROPERTY
VM2 Rank
SciTegic.value.IntegerValue
359

@<SCITEGIC>MOL_PROPERTY
Conf_Id
SciTegic.value.IntegerValue
152

@<SCITEGIC>MOL_PROPERTY
Probability
SciTegic.value.DoubleValue
0.00

@<SCITEGIC>MOL_PROPERTY
Sum Probability
SciTegic.value.DoubleValue
99.87

@<SCITEGIC>MOL_PROPERTY
Delta G
SciTegic.value.DoubleValue
4.481

@<SCITEGIC>MOL_PROPERTY
G
SciTegic.value.DoubleValue
62.627

@<SCITEGIC>MOL_PROPERTY
E
SciTegic.value.DoubleValue
24.813

@<SCITEGIC>MOL_PROPERTY
-TS
SciTegic.value.DoubleValue
37.813

@<SCITEGIC>MOL_PROPERTY
U+W
SciTegic.value.DoubleValue
0.669

@<SCITEGIC>MOL_PROPERTY
U
SciTegic.value.DoubleValue
53.045

@<SCITEGIC>MOL_PROPERTY
W
SciTegic.value.DoubleValue
-52.376

@<SCITEGIC>MOL_PROPERTY
W(PB)
SciTegic.value.DoubleValue
-54.825

@<SCITEGIC>MOL_PROPERTY
W(SA)
SciTegic.value.DoubleValue
2.449

@<SCITEGIC>MOL_PROPERTY
Valence
SciTegic.value.DoubleValue
5.932

@<SCITEGIC>MOL_PROPERTY
Coulomb
SciTegic.value.DoubleValue
46.352

@<SCITEGIC>MOL_PROPERTY
VdW
SciTegic.value.DoubleValue
0.761

@<SCITEGIC>MOL_PROPERTY
VdW6
SciTegic.value.DoubleValue
-9.985

@<SCITEGIC>MOL_PROPERTY
VdW12
SciTegic.value.DoubleValue
10.746

@<SCITEGIC>MOL_PROPERTY
Bond
SciTegic.value.DoubleValue
0.298

@<SCITEGIC>MOL_PROPERTY
Angle
SciTegic.value.DoubleValue
1.643

@<SCITEGIC>MOL_PROPERTY
Pdih
SciTegic.value.DoubleValue
3.991

@<SCITEGIC>MOL_PROPERTY
Idih
SciTegic.value.DoubleValue
0.000

@<SCITEGIC>MOL_PROPERTY
Tether
SciTegic.value.DoubleValue
0.000

@<TRIPOS>MOLECULE
guest-3_vm2.mol2 : vm2 ligand conformer 360
          29          28           1
SMALL
USER_CHARGES
 
@<TRIPOS>ATOM
       1    C1      21.473150   19.107765   21.092006 C.3        1 MOL1        -0.2427
       2    H1      21.448398   18.323635   20.324072 H          1 MOL1         0.0958
       3    H2      21.973730   19.984918   20.661876 H          1 MOL1         0.0958
       4    H3      22.084682   18.747317   21.929414 H          1 MOL1         0.0958
       5    C2      20.048437   19.469452   21.561743 C.3        1 MOL1        -0.1412
       6    H4      19.470920   19.856354   20.710666 H          1 MOL1         0.0947
       7    H5      20.110164   20.282591   22.296191 H          1 MOL1         0.0947
       8    C3      19.321538   18.246442   22.169348 C.3        1 MOL1        -0.1437
       9    H6      19.292705   17.445751   21.417559 H          1 MOL1         0.0947
      10    H7      19.894137   17.840405   23.012278 H          1 MOL1         0.0947
      11    C4      17.868466   18.548429   22.611998 C.3        1 MOL1        -0.1437
      12    H8      17.401299   17.611669   22.945617 H          1 MOL1         0.0947
      13    H9      17.293574   18.869142   21.732350 H          1 MOL1         0.0947
      14    C5      17.700439   19.615026   23.727930 C.3        1 MOL1        -0.1437
      15    H10     18.065810   20.593710   23.390409 H          1 MOL1         0.0947
      16    H11     16.621326   19.749772   23.885097 H          1 MOL1         0.0947
      17    C6      18.332880   19.236567   25.093181 C.3        1 MOL1        -0.1437
      18    H12     18.317148   18.146124   25.220563 H          1 MOL1         0.0947
      19    H13     17.696710   19.644559   25.890969 H          1 MOL1         0.0947
      20    C7      19.765497   19.792818   25.294518 C.3        1 MOL1        -0.1477
      21    H14     20.454935   19.385900   24.547133 H          1 MOL1         0.0947
      22    H15     19.754973   20.880944   25.148044 H          1 MOL1         0.0947
      23    C8      20.319820   19.499232   26.701495 C.3        1 MOL1         0.0145
      24    H16     19.639669   19.902094   27.456782 H          1 MOL1         0.0921
      25    H17     21.289977   19.989559   26.819345 H          1 MOL1         0.0921
      26    N1      20.513773   18.022269   26.982782 N.4        1 MOL1        -0.5969
      27    H18     19.630705   17.506028   26.920722 H          1 MOL1         0.3603
      28    H19     20.891376   17.860528   27.922888 H          1 MOL1         0.3603
      29    H20     21.165469   17.590939   26.319273 H          1 MOL1         0.3603
@<TRIPOS>BOND
    1     1     2    1
    2     1     3    1
    3     1     4    1
    4     1     5    1
    5     5     6    1
    6     5     7    1
    7     5     8    1
    8     8     9    1
    9     8    10    1
   10     8    11    1
   11    11    12    1
   12    11    13    1
   13    11    14    1
   14    14    15    1
   15    14    16    1
   16    14    17    1
   17    17    18    1
   18    17    19    1
   19    17    20    1
   20    20    21    1
   21    20    22    1
   22    20    23    1
   23    23    24    1
   24    23    25    1
   25    23    26    1
   26    26    27    1
   27    26    28    1
   28    26    29    1
@<TRIPOS>SUBSTRUCTURE
       1 MOL1            1 RESIDUE      1      MOL     
@<SCITEGIC>MOL_PROPERTY
VM2 Rank
SciTegic.value.IntegerValue
360

@<SCITEGIC>MOL_PROPERTY
Conf_Id
SciTegic.value.IntegerValue
86

@<SCITEGIC>MOL_PROPERTY
Probability
SciTegic.value.DoubleValue
0.00

@<SCITEGIC>MOL_PROPERTY
Sum Probability
SciTegic.value.DoubleValue
99.87

@<SCITEGIC>MOL_PROPERTY
Delta G
SciTegic.value.DoubleValue
4.484

@<SCITEGIC>MOL_PROPERTY
G
SciTegic.value.DoubleValue
62.630

@<SCITEGIC>MOL_PROPERTY
E
SciTegic.value.DoubleValue
24.486

@<SCITEGIC>MOL_PROPERTY
-TS
SciTegic.value.DoubleValue
38.144

@<SCITEGIC>MOL_PROPERTY
U+W
SciTegic.value.DoubleValue
0.342

@<SCITEGIC>MOL_PROPERTY
U
SciTegic.value.DoubleValue
52.959

@<SCITEGIC>MOL_PROPERTY
W
SciTegic.value.DoubleValue
-52.617

@<SCITEGIC>MOL_PROPERTY
W(PB)
SciTegic.value.DoubleValue
-55.048

@<SCITEGIC>MOL_PROPERTY
W(SA)
SciTegic.value.DoubleValue
2.431

@<SCITEGIC>MOL_PROPERTY
Valence
SciTegic.value.DoubleValue
6.290

@<SCITEGIC>MOL_PROPERTY
Coulomb
SciTegic.value.DoubleValue
46.161

@<SCITEGIC>MOL_PROPERTY
VdW
SciTegic.value.DoubleValue
0.509

@<SCITEGIC>MOL_PROPERTY
VdW6
SciTegic.value.DoubleValue
-10.494

@<SCITEGIC>MOL_PROPERTY
VdW12
SciTegic.value.DoubleValue
11.002

@<SCITEGIC>MOL_PROPERTY
Bond
SciTegic.value.DoubleValue
0.303

@<SCITEGIC>MOL_PROPERTY
Angle
SciTegic.value.DoubleValue
1.848

@<SCITEGIC>MOL_PROPERTY
Pdih
SciTegic.value.DoubleValue
4.138

@<SCITEGIC>MOL_PROPERTY
Idih
SciTegic.value.DoubleValue
0.000

@<SCITEGIC>MOL_PROPERTY
Tether
SciTegic.value.DoubleValue
0.000

@<TRIPOS>MOLECULE
guest-3_vm2.mol2 : vm2 ligand conformer 361
          29          28           1
SMALL
USER_CHARGES
 
@<TRIPOS>ATOM
       1    C1      21.035104   17.876915   21.065062 C.3        1 MOL1        -0.2427
       2    H1      21.522448   18.530005   20.329422 H          1 MOL1         0.0958
       3    H2      21.724659   17.736356   21.907620 H          1 MOL1         0.0958
       4    H3      20.875089   16.898692   20.593401 H          1 MOL1         0.0958
       5    C2      19.695650   18.478462   21.539701 C.3        1 MOL1        -0.1412
       6    H4      19.219107   17.780881   22.240206 H          1 MOL1         0.0947
       7    H5      19.015948   18.577607   20.681958 H          1 MOL1         0.0947
       8    C3      19.896232   19.860365   22.205606 C.3        1 MOL1        -0.1437
       9    H6      20.584457   19.779490   23.055944 H          1 MOL1         0.0947
      10    H7      20.390507   20.528251   21.486758 H          1 MOL1         0.0947
      11    C4      18.572938   20.527035   22.656162 C.3        1 MOL1        -0.1437
      12    H8      17.937265   20.676692   21.772614 H          1 MOL1         0.0947
      13    H9      18.797892   21.534192   23.033118 H          1 MOL1         0.0947
      14    C5      17.753069   19.763353   23.731228 C.3        1 MOL1        -0.1437
      15    H10     16.829395   20.334596   23.898106 H          1 MOL1         0.0947
      16    H11     17.422686   18.788246   23.350107 H          1 MOL1         0.0947
      17    C6      18.463071   19.602721   25.101345 C.3        1 MOL1        -0.1437
      18    H12     17.701065   19.657469   25.891271 H          1 MOL1         0.0947
      19    H13     19.138192   20.451640   25.271890 H          1 MOL1         0.0947
      20    C7      19.218815   18.258884   25.260383 C.3        1 MOL1        -0.1477
      21    H14     18.524974   17.429115   25.071567 H          1 MOL1         0.0947
      22    H15     20.020473   18.167496   24.519785 H          1 MOL1         0.0947
      23    C8      19.814529   18.080471   26.669760 C.3        1 MOL1         0.0145
      24    H16     20.254562   17.083130   26.754593 H          1 MOL1         0.0921
      25    H17     19.022558   18.169026   27.418293 H          1 MOL1         0.0921
      26    N1      20.894591   19.089794   27.005754 N.4        1 MOL1        -0.5969
      27    H18     20.537664   20.049955   26.976398 H          1 MOL1         0.3603
      28    H19     21.681268   19.037614   26.350452 H          1 MOL1         0.3603
      29    H20     21.276444   18.939404   27.946028 H          1 MOL1         0.3603
@<TRIPOS>BOND
    1     1     2    1
    2     1     3    1
    3     1     4    1
    4     1     5    1
    5     5     6    1
    6     5     7    1
    7     5     8    1
    8     8     9    1
    9     8    10    1
   10     8    11    1
   11    11    12    1
   12    11    13    1
   13    11    14    1
   14    14    15    1
   15    14    16    1
   16    14    17    1
   17    17    18    1
   18    17    19    1
   19    17    20    1
   20    20    21    1
   21    20    22    1
   22    20    23    1
   23    23    24    1
   24    23    25    1
   25    23    26    1
   26    26    27    1
   27    26    28    1
   28    26    29    1
@<TRIPOS>SUBSTRUCTURE
       1 MOL1            1 RESIDUE      1      MOL     
@<SCITEGIC>MOL_PROPERTY
VM2 Rank
SciTegic.value.IntegerValue
361

@<SCITEGIC>MOL_PROPERTY
Conf_Id
SciTegic.value.IntegerValue
1825

@<SCITEGIC>MOL_PROPERTY
Probability
SciTegic.value.DoubleValue
0.00

@<SCITEGIC>MOL_PROPERTY
Sum Probability
SciTegic.value.DoubleValue
99.88

@<SCITEGIC>MOL_PROPERTY
Delta G
SciTegic.value.DoubleValue
4.485

@<SCITEGIC>MOL_PROPERTY
G
SciTegic.value.DoubleValue
62.632

@<SCITEGIC>MOL_PROPERTY
E
SciTegic.value.DoubleValue
24.487

@<SCITEGIC>MOL_PROPERTY
-TS
SciTegic.value.DoubleValue
38.144

@<SCITEGIC>MOL_PROPERTY
U+W
SciTegic.value.DoubleValue
0.343

@<SCITEGIC>MOL_PROPERTY
U
SciTegic.value.DoubleValue
52.960

@<SCITEGIC>MOL_PROPERTY
W
SciTegic.value.DoubleValue
-52.617

@<SCITEGIC>MOL_PROPERTY
W(PB)
SciTegic.value.DoubleValue
-55.012

@<SCITEGIC>MOL_PROPERTY
W(SA)
SciTegic.value.DoubleValue
2.395

@<SCITEGIC>MOL_PROPERTY
Valence
SciTegic.value.DoubleValue
6.290

@<SCITEGIC>MOL_PROPERTY
Coulomb
SciTegic.value.DoubleValue
46.162

@<SCITEGIC>MOL_PROPERTY
VdW
SciTegic.value.DoubleValue
0.509

@<SCITEGIC>MOL_PROPERTY
VdW6
SciTegic.value.DoubleValue
-10.494

@<SCITEGIC>MOL_PROPERTY
VdW12
SciTegic.value.DoubleValue
11.002

@<SCITEGIC>MOL_PROPERTY
Bond
SciTegic.value.DoubleValue
0.303

@<SCITEGIC>MOL_PROPERTY
Angle
SciTegic.value.DoubleValue
1.847

@<SCITEGIC>MOL_PROPERTY
Pdih
SciTegic.value.DoubleValue
4.139

@<SCITEGIC>MOL_PROPERTY
Idih
SciTegic.value.DoubleValue
0.000

@<SCITEGIC>MOL_PROPERTY
Tether
SciTegic.value.DoubleValue
0.000

@<TRIPOS>MOLECULE
guest-3_vm2.mol2 : vm2 ligand conformer 362
          29          28           1
SMALL
USER_CHARGES
 
@<TRIPOS>ATOM
       1    C1      21.052342   18.068180   20.831209 C.3        1 MOL1        -0.2427
       2    H1      21.236848   17.261016   21.552044 H          1 MOL1         0.0958
       3    H2      20.535595   17.639603   19.962590 H          1 MOL1         0.0958
       4    H3      22.025423   18.446097   20.491668 H          1 MOL1         0.0958
       5    C2      20.220296   19.200787   21.468549 C.3        1 MOL1        -0.1412
       6    H4      20.079234   20.006728   20.734981 H          1 MOL1         0.0947
       7    H5      20.785041   19.631904   22.304991 H          1 MOL1         0.0947
       8    C3      18.841628   18.691790   21.952004 C.3        1 MOL1        -0.1437
       9    H6      18.309634   18.253438   21.096455 H          1 MOL1         0.0947
      10    H7      18.966196   17.874882   22.673679 H          1 MOL1         0.0947
      11    C4      17.951188   19.804400   22.558506 C.3        1 MOL1        -0.1437
      12    H8      16.961459   19.381275   22.778723 H          1 MOL1         0.0947
      13    H9      17.780643   20.573644   21.792789 H          1 MOL1         0.0947
      14    C5      18.495516   20.492880   23.839449 C.3        1 MOL1        -0.1437
      15    H10     19.443630   21.006938   23.634241 H          1 MOL1         0.0947
      16    H11     17.787014   21.290472   24.102591 H          1 MOL1         0.0947
      17    C6      18.635796   19.559751   25.070971 C.3        1 MOL1        -0.1437
      18    H12     17.897452   18.748006   25.015173 H          1 MOL1         0.0947
      19    H13     18.380383   20.141301   25.966730 H          1 MOL1         0.0947
      20    C7      20.060906   18.978604   25.253881 C.3        1 MOL1        -0.1477
      21    H14     20.361605   18.421191   24.360562 H          1 MOL1         0.0947
      22    H15     20.786071   19.795115   25.368441 H          1 MOL1         0.0947
      23    C8      20.163343   18.030180   26.463791 C.3        1 MOL1         0.0145
      24    H16     21.162753   17.587684   26.493860 H          1 MOL1         0.0921
      25    H17     19.435126   17.221301   26.359910 H          1 MOL1         0.0921
      26    N1      19.922985   18.711428   27.796640 N.4        1 MOL1        -0.5969
      27    H18     20.011072   18.055736   28.580755 H          1 MOL1         0.3603
      28    H19     18.984328   19.119186   27.850036 H          1 MOL1         0.3603
      29    H20     20.593095   19.469444   27.962737 H          1 MOL1         0.3603
@<TRIPOS>BOND
    1     1     2    1
    2     1     3    1
    3     1     4    1
    4     1     5    1
    5     5     6    1
    6     5     7    1
    7     5     8    1
    8     8     9    1
    9     8    10    1
   10     8    11    1
   11    11    12    1
   12    11    13    1
   13    11    14    1
   14    14    15    1
   15    14    16    1
   16    14    17    1
   17    17    18    1
   18    17    19    1
   19    17    20    1
   20    20    21    1
   21    20    22    1
   22    20    23    1
   23    23    24    1
   24    23    25    1
   25    23    26    1
   26    26    27    1
   27    26    28    1
   28    26    29    1
@<TRIPOS>SUBSTRUCTURE
       1 MOL1            1 RESIDUE      1      MOL     
@<SCITEGIC>MOL_PROPERTY
VM2 Rank
SciTegic.value.IntegerValue
362

@<SCITEGIC>MOL_PROPERTY
Conf_Id
SciTegic.value.IntegerValue
2284

@<SCITEGIC>MOL_PROPERTY
Probability
SciTegic.value.DoubleValue
0.00

@<SCITEGIC>MOL_PROPERTY
Sum Probability
SciTegic.value.DoubleValue
99.88

@<SCITEGIC>MOL_PROPERTY
Delta G
SciTegic.value.DoubleValue
4.486

@<SCITEGIC>MOL_PROPERTY
G
SciTegic.value.DoubleValue
62.632

@<SCITEGIC>MOL_PROPERTY
E
SciTegic.value.DoubleValue
24.489

@<SCITEGIC>MOL_PROPERTY
-TS
SciTegic.value.DoubleValue
38.143

@<SCITEGIC>MOL_PROPERTY
U+W
SciTegic.value.DoubleValue
0.345

@<SCITEGIC>MOL_PROPERTY
U
SciTegic.value.DoubleValue
52.497

@<SCITEGIC>MOL_PROPERTY
W
SciTegic.value.DoubleValue
-52.152

@<SCITEGIC>MOL_PROPERTY
W(PB)
SciTegic.value.DoubleValue
-54.581

@<SCITEGIC>MOL_PROPERTY
W(SA)
SciTegic.value.DoubleValue
2.429

@<SCITEGIC>MOL_PROPERTY
Valence
SciTegic.value.DoubleValue
6.347

@<SCITEGIC>MOL_PROPERTY
Coulomb
SciTegic.value.DoubleValue
45.529

@<SCITEGIC>MOL_PROPERTY
VdW
SciTegic.value.DoubleValue
0.620

@<SCITEGIC>MOL_PROPERTY
VdW6
SciTegic.value.DoubleValue
-10.347

@<SCITEGIC>MOL_PROPERTY
VdW12
SciTegic.value.DoubleValue
10.967

@<SCITEGIC>MOL_PROPERTY
Bond
SciTegic.value.DoubleValue
0.304

@<SCITEGIC>MOL_PROPERTY
Angle
SciTegic.value.DoubleValue
1.793

@<SCITEGIC>MOL_PROPERTY
Pdih
SciTegic.value.DoubleValue
4.251

@<SCITEGIC>MOL_PROPERTY
Idih
SciTegic.value.DoubleValue
0.000

@<SCITEGIC>MOL_PROPERTY
Tether
SciTegic.value.DoubleValue
0.000

@<TRIPOS>MOLECULE
guest-3_vm2.mol2 : vm2 ligand conformer 363
          29          28           1
SMALL
USER_CHARGES
 
@<TRIPOS>ATOM
       1    C1      21.369120   18.957354   20.851026 C.3        1 MOL1        -0.2427
       2    H1      22.012018   19.437063   21.600505 H          1 MOL1         0.0958
       3    H2      21.889114   18.063318   20.483193 H          1 MOL1         0.0958
       4    H3      21.251760   19.649919   20.007354 H          1 MOL1         0.0958
       5    C2      19.999666   18.581351   21.454781 C.3        1 MOL1        -0.1412
       6    H4      20.153066   17.857754   22.265527 H          1 MOL1         0.0947
       7    H5      19.391365   18.075657   20.692018 H          1 MOL1         0.0947
       8    C3      19.246232   19.827483   21.977298 C.3        1 MOL1        -0.1437
       9    H6      19.848838   20.352534   22.728866 H          1 MOL1         0.0947
      10    H7      19.123097   20.536761   21.147299 H          1 MOL1         0.0947
      11    C4      17.844573   19.505123   22.551807 C.3        1 MOL1        -0.1437
      12    H8      17.237051   19.047872   21.758722 H          1 MOL1         0.0947
      13    H9      17.342014   20.449397   22.802553 H          1 MOL1         0.0947
      14    C5      17.813145   18.577525   23.796673 C.3        1 MOL1        -0.1437
      15    H10     16.756371   18.397582   24.037968 H          1 MOL1         0.0947
      16    H11     18.225788   17.588583   23.557913 H          1 MOL1         0.0947
      17    C6      18.494162   19.162268   25.062118 C.3        1 MOL1        -0.1437
      18    H12     17.916171   18.837890   25.937632 H          1 MOL1         0.0947
      19    H13     18.435656   20.259357   25.049081 H          1 MOL1         0.0947
      20    C7      19.963193   18.704396   25.247681 C.3        1 MOL1        -0.1477
      21    H14     20.007664   17.609600   25.319256 H          1 MOL1         0.0947
      22    H15     20.561047   18.981525   24.373089 H          1 MOL1         0.0947
      23    C8      20.624743   19.325550   26.492838 C.3        1 MOL1         0.0145
      24    H16     20.572995   20.415942   26.431658 H          1 MOL1         0.0921
      25    H17     21.678406   19.035365   26.526268 H          1 MOL1         0.0921
      26    N1      19.989167   18.896949   27.800777 N.4        1 MOL1        -0.5969
      27    H18     19.003361   19.172325   27.851265 H          1 MOL1         0.3603
      28    H19     20.460663   19.317536   28.609063 H          1 MOL1         0.3603
      29    H20     20.027124   17.880160   27.926963 H          1 MOL1         0.3603
@<TRIPOS>BOND
    1     1     2    1
    2     1     3    1
    3     1     4    1
    4     1     5    1
    5     5     6    1
    6     5     7    1
    7     5     8    1
    8     8     9    1
    9     8    10    1
   10     8    11    1
   11    11    12    1
   12    11    13    1
   13    11    14    1
   14    14    15    1
   15    14    16    1
   16    14    17    1
   17    17    18    1
   18    17    19    1
   19    17    20    1
   20    20    21    1
   21    20    22    1
   22    20    23    1
   23    23    24    1
   24    23    25    1
   25    23    26    1
   26    26    27    1
   27    26    28    1
   28    26    29    1
@<TRIPOS>SUBSTRUCTURE
       1 MOL1            1 RESIDUE      1      MOL     
@<SCITEGIC>MOL_PROPERTY
VM2 Rank
SciTegic.value.IntegerValue
363

@<SCITEGIC>MOL_PROPERTY
Conf_Id
SciTegic.value.IntegerValue
300

@<SCITEGIC>MOL_PROPERTY
Probability
SciTegic.value.DoubleValue
0.00

@<SCITEGIC>MOL_PROPERTY
Sum Probability
SciTegic.value.DoubleValue
99.88

@<SCITEGIC>MOL_PROPERTY
Delta G
SciTegic.value.DoubleValue
4.487

@<SCITEGIC>MOL_PROPERTY
G
SciTegic.value.DoubleValue
62.634

@<SCITEGIC>MOL_PROPERTY
E
SciTegic.value.DoubleValue
24.490

@<SCITEGIC>MOL_PROPERTY
-TS
SciTegic.value.DoubleValue
38.143

@<SCITEGIC>MOL_PROPERTY
U+W
SciTegic.value.DoubleValue
0.346

@<SCITEGIC>MOL_PROPERTY
U
SciTegic.value.DoubleValue
52.497

@<SCITEGIC>MOL_PROPERTY
W
SciTegic.value.DoubleValue
-52.151

@<SCITEGIC>MOL_PROPERTY
W(PB)
SciTegic.value.DoubleValue
-54.588

@<SCITEGIC>MOL_PROPERTY
W(SA)
SciTegic.value.DoubleValue
2.437

@<SCITEGIC>MOL_PROPERTY
Valence
SciTegic.value.DoubleValue
6.347

@<SCITEGIC>MOL_PROPERTY
Coulomb
SciTegic.value.DoubleValue
45.529

@<SCITEGIC>MOL_PROPERTY
VdW
SciTegic.value.DoubleValue
0.620

@<SCITEGIC>MOL_PROPERTY
VdW6
SciTegic.value.DoubleValue
-10.347

@<SCITEGIC>MOL_PROPERTY
VdW12
SciTegic.value.DoubleValue
10.967

@<SCITEGIC>MOL_PROPERTY
Bond
SciTegic.value.DoubleValue
0.304

@<SCITEGIC>MOL_PROPERTY
Angle
SciTegic.value.DoubleValue
1.794

@<SCITEGIC>MOL_PROPERTY
Pdih
SciTegic.value.DoubleValue
4.249

@<SCITEGIC>MOL_PROPERTY
Idih
SciTegic.value.DoubleValue
0.000

@<SCITEGIC>MOL_PROPERTY
Tether
SciTegic.value.DoubleValue
0.000

@<TRIPOS>MOLECULE
guest-3_vm2.mol2 : vm2 ligand conformer 364
          29          28           1
SMALL
USER_CHARGES
 
@<TRIPOS>ATOM
       1    C1      20.850949   19.886234   20.561563 C.3        1 MOL1        -0.2427
       2    H1      21.060839   18.919765   20.085210 H          1 MOL1         0.0958
       3    H2      21.156118   20.677441   19.864582 H          1 MOL1         0.0958
       4    H3      21.480784   19.973589   21.455470 H          1 MOL1         0.0958
       5    C2      19.350916   20.020429   20.908478 C.3        1 MOL1        -0.1412
       6    H4      18.772765   20.050425   19.974356 H          1 MOL1         0.0947
       7    H5      19.172518   20.981141   21.411391 H          1 MOL1         0.0947
       8    C3      18.816396   18.862934   21.785994 C.3        1 MOL1        -0.1437
       9    H6      17.729333   18.980880   21.894086 H          1 MOL1         0.0947
      10    H7      18.973792   17.907086   21.267538 H          1 MOL1         0.0947
      11    C4      19.460448   18.807453   23.191839 C.3        1 MOL1        -0.1437
      12    H8      19.355148   19.788391   23.667273 H          1 MOL1         0.0947
      13    H9      20.536081   18.609886   23.097647 H          1 MOL1         0.0947
      14    C5      18.818154   17.705119   24.069303 C.3        1 MOL1        -0.1437
      15    H10     17.742065   17.891367   24.189380 H          1 MOL1         0.0947
      16    H11     18.902017   16.751252   23.530188 H          1 MOL1         0.0947
      17    C6      19.484974   17.530898   25.458997 C.3        1 MOL1        -0.1437
      18    H12     20.572249   17.663665   25.381575 H          1 MOL1         0.0947
      19    H13     19.341098   16.486981   25.770352 H          1 MOL1         0.0947
      20    C7      18.900640   18.428418   26.582402 C.3        1 MOL1        -0.1477
      21    H14     17.825755   18.227719   26.682688 H          1 MOL1         0.0947
      22    H15     19.352126   18.137052   27.540042 H          1 MOL1         0.0947
      23    C8      19.102746   19.942922   26.385981 C.3        1 MOL1         0.0145
      24    H16     18.662375   20.478461   27.231388 H          1 MOL1         0.0921
      25    H17     18.590988   20.270740   25.478536 H          1 MOL1         0.0921
      26    N1      20.558777   20.353592   26.290443 N.4        1 MOL1        -0.5969
      27    H18     21.079174   20.102520   27.137432 H          1 MOL1         0.3603
      28    H19     20.662012   21.366331   26.163570 H          1 MOL1         0.3603
      29    H20     21.026051   19.897979   25.500573 H          1 MOL1         0.3603
@<TRIPOS>BOND
    1     1     2    1
    2     1     3    1
    3     1     4    1
    4     1     5    1
    5     5     6    1
    6     5     7    1
    7     5     8    1
    8     8     9    1
    9     8    10    1
   10     8    11    1
   11    11    12    1
   12    11    13    1
   13    11    14    1
   14    14    15    1
   15    14    16    1
   16    14    17    1
   17    17    18    1
   18    17    19    1
   19    17    20    1
   20    20    21    1
   21    20    22    1
   22    20    23    1
   23    23    24    1
   24    23    25    1
   25    23    26    1
   26    26    27    1
   27    26    28    1
   28    26    29    1
@<TRIPOS>SUBSTRUCTURE
       1 MOL1            1 RESIDUE      1      MOL     
@<SCITEGIC>MOL_PROPERTY
VM2 Rank
SciTegic.value.IntegerValue
364

@<SCITEGIC>MOL_PROPERTY
Conf_Id
SciTegic.value.IntegerValue
2188

@<SCITEGIC>MOL_PROPERTY
Probability
SciTegic.value.DoubleValue
0.00

@<SCITEGIC>MOL_PROPERTY
Sum Probability
SciTegic.value.DoubleValue
99.88

@<SCITEGIC>MOL_PROPERTY
Delta G
SciTegic.value.DoubleValue
4.491

@<SCITEGIC>MOL_PROPERTY
G
SciTegic.value.DoubleValue
62.637

@<SCITEGIC>MOL_PROPERTY
E
SciTegic.value.DoubleValue
24.822

@<SCITEGIC>MOL_PROPERTY
-TS
SciTegic.value.DoubleValue
37.816

@<SCITEGIC>MOL_PROPERTY
U+W
SciTegic.value.DoubleValue
0.677

@<SCITEGIC>MOL_PROPERTY
U
SciTegic.value.DoubleValue
53.088

@<SCITEGIC>MOL_PROPERTY
W
SciTegic.value.DoubleValue
-52.411

@<SCITEGIC>MOL_PROPERTY
W(PB)
SciTegic.value.DoubleValue
-54.871

@<SCITEGIC>MOL_PROPERTY
W(SA)
SciTegic.value.DoubleValue
2.460

@<SCITEGIC>MOL_PROPERTY
Valence
SciTegic.value.DoubleValue
5.783

@<SCITEGIC>MOL_PROPERTY
Coulomb
SciTegic.value.DoubleValue
46.617

@<SCITEGIC>MOL_PROPERTY
VdW
SciTegic.value.DoubleValue
0.688

@<SCITEGIC>MOL_PROPERTY
VdW6
SciTegic.value.DoubleValue
-10.105

@<SCITEGIC>MOL_PROPERTY
VdW12
SciTegic.value.DoubleValue
10.792

@<SCITEGIC>MOL_PROPERTY
Bond
SciTegic.value.DoubleValue
0.290

@<SCITEGIC>MOL_PROPERTY
Angle
SciTegic.value.DoubleValue
1.682

@<SCITEGIC>MOL_PROPERTY
Pdih
SciTegic.value.DoubleValue
3.811

@<SCITEGIC>MOL_PROPERTY
Idih
SciTegic.value.DoubleValue
0.000

@<SCITEGIC>MOL_PROPERTY
Tether
SciTegic.value.DoubleValue
0.000

@<TRIPOS>MOLECULE
guest-3_vm2.mol2 : vm2 ligand conformer 365
          29          28           1
SMALL
USER_CHARGES
 
@<TRIPOS>ATOM
       1    C1      20.645266   17.628798   21.021233 C.3        1 MOL1        -0.2427
       2    H1      21.602097   18.160652   21.102636 H          1 MOL1         0.0958
       3    H2      20.475498   17.080203   21.955856 H          1 MOL1         0.0958
       4    H3      20.740468   16.887768   20.217039 H          1 MOL1         0.0958
       5    C2      19.488807   18.608672   20.718947 C.3        1 MOL1        -0.1412
       6    H4      18.538916   18.057655   20.676707 H          1 MOL1         0.0947
       7    H5      19.640539   19.036856   19.718258 H          1 MOL1         0.0947
       8    C3      19.378169   19.765293   21.741532 C.3        1 MOL1        -0.1437
       9    H6      20.323134   20.325395   21.765114 H          1 MOL1         0.0947
      10    H7      18.610557   20.468567   21.390213 H          1 MOL1         0.0947
      11    C4      19.016496   19.292608   23.169829 C.3        1 MOL1        -0.1437
      12    H8      19.808030   18.635807   23.542635 H          1 MOL1         0.0947
      13    H9      18.095156   18.695602   23.132004 H          1 MOL1         0.0947
      14    C5      18.817837   20.488348   24.133260 C.3        1 MOL1        -0.1437
      15    H10     19.731836   21.096265   24.179692 H          1 MOL1         0.0947
      16    H11     18.041449   21.140673   23.709982 H          1 MOL1         0.0947
      17    C6      18.376144   20.082925   25.563903 C.3        1 MOL1        -0.1437
      18    H12     17.684748   19.230741   25.524282 H          1 MOL1         0.0947
      19    H13     17.790225   20.913599   25.981141 H          1 MOL1         0.0947
      20    C7      19.539367   19.801222   26.552205 C.3        1 MOL1        -0.1477
      21    H14     20.177513   20.692065   26.622107 H          1 MOL1         0.0947
      22    H15     19.122599   19.649686   27.556771 H          1 MOL1         0.0947
      23    C8      20.422548   18.589124   26.199926 C.3        1 MOL1         0.0145
      24    H16     21.203346   18.479185   26.957362 H          1 MOL1         0.0921
      25    H17     20.910799   18.753329   25.236821 H          1 MOL1         0.0921
      26    N1      19.659367   17.281011   26.134167 N.4        1 MOL1        -0.5969
      27    H18     19.211851   17.058796   27.029489 H          1 MOL1         0.3603
      28    H19     20.272914   16.492550   25.901279 H          1 MOL1         0.3603
      29    H20     18.920394   17.312781   25.425107 H          1 MOL1         0.3603
@<TRIPOS>BOND
    1     1     2    1
    2     1     3    1
    3     1     4    1
    4     1     5    1
    5     5     6    1
    6     5     7    1
    7     5     8    1
    8     8     9    1
    9     8    10    1
   10     8    11    1
   11    11    12    1
   12    11    13    1
   13    11    14    1
   14    14    15    1
   15    14    16    1
   16    14    17    1
   17    17    18    1
   18    17    19    1
   19    17    20    1
   20    20    21    1
   21    20    22    1
   22    20    23    1
   23    23    24    1
   24    23    25    1
   25    23    26    1
   26    26    27    1
   27    26    28    1
   28    26    29    1
@<TRIPOS>SUBSTRUCTURE
       1 MOL1            1 RESIDUE      1      MOL     
@<SCITEGIC>MOL_PROPERTY
VM2 Rank
SciTegic.value.IntegerValue
365

@<SCITEGIC>MOL_PROPERTY
Conf_Id
SciTegic.value.IntegerValue
1928

@<SCITEGIC>MOL_PROPERTY
Probability
SciTegic.value.DoubleValue
0.00

@<SCITEGIC>MOL_PROPERTY
Sum Probability
SciTegic.value.DoubleValue
99.89

@<SCITEGIC>MOL_PROPERTY
Delta G
SciTegic.value.DoubleValue
4.498

@<SCITEGIC>MOL_PROPERTY
G
SciTegic.value.DoubleValue
62.644

@<SCITEGIC>MOL_PROPERTY
E
SciTegic.value.DoubleValue
24.818

@<SCITEGIC>MOL_PROPERTY
-TS
SciTegic.value.DoubleValue
37.826

@<SCITEGIC>MOL_PROPERTY
U+W
SciTegic.value.DoubleValue
0.673

@<SCITEGIC>MOL_PROPERTY
U
SciTegic.value.DoubleValue
53.213

@<SCITEGIC>MOL_PROPERTY
W
SciTegic.value.DoubleValue
-52.540

@<SCITEGIC>MOL_PROPERTY
W(PB)
SciTegic.value.DoubleValue
-54.970

@<SCITEGIC>MOL_PROPERTY
W(SA)
SciTegic.value.DoubleValue
2.430

@<SCITEGIC>MOL_PROPERTY
Valence
SciTegic.value.DoubleValue
5.780

@<SCITEGIC>MOL_PROPERTY
Coulomb
SciTegic.value.DoubleValue
46.780

@<SCITEGIC>MOL_PROPERTY
VdW
SciTegic.value.DoubleValue
0.653

@<SCITEGIC>MOL_PROPERTY
VdW6
SciTegic.value.DoubleValue
-10.175

@<SCITEGIC>MOL_PROPERTY
VdW12
SciTegic.value.DoubleValue
10.827

@<SCITEGIC>MOL_PROPERTY
Bond
SciTegic.value.DoubleValue
0.293

@<SCITEGIC>MOL_PROPERTY
Angle
SciTegic.value.DoubleValue
1.656

@<SCITEGIC>MOL_PROPERTY
Pdih
SciTegic.value.DoubleValue
3.831

@<SCITEGIC>MOL_PROPERTY
Idih
SciTegic.value.DoubleValue
0.000

@<SCITEGIC>MOL_PROPERTY
Tether
SciTegic.value.DoubleValue
0.000

@<TRIPOS>MOLECULE
guest-3_vm2.mol2 : vm2 ligand conformer 366
          29          28           1
SMALL
USER_CHARGES
 
@<TRIPOS>ATOM
       1    C1      21.009078   19.264199   20.141438 C.3        1 MOL1        -0.2427
       2    H1      21.015318   19.978753   19.308127 H          1 MOL1         0.0958
       3    H2      21.870652   19.488041   20.783936 H          1 MOL1         0.0958
       4    H3      21.146058   18.258282   19.723598 H          1 MOL1         0.0958
       5    C2      19.687519   19.361548   20.932660 C.3        1 MOL1        -0.1412
       6    H4      18.844207   19.164100   20.256304 H          1 MOL1         0.0947
       7    H5      19.565709   20.389390   21.297913 H          1 MOL1         0.0947
       8    C3      19.655419   18.360953   22.112584 C.3        1 MOL1        -0.1437
       9    H6      19.820728   17.349014   21.717870 H          1 MOL1         0.0947
      10    H7      20.493608   18.564199   22.789160 H          1 MOL1         0.0947
      11    C4      18.312167   18.367519   22.888459 C.3        1 MOL1        -0.1437
      12    H8      18.255418   17.477653   23.530219 H          1 MOL1         0.0947
      13    H9      17.495371   18.256245   22.162032 H          1 MOL1         0.0947
      14    C5      18.051792   19.637712   23.743757 C.3        1 MOL1        -0.1437
      15    H10     18.528045   20.518643   23.296176 H          1 MOL1         0.0947
      16    H11     16.973031   19.845291   23.722749 H          1 MOL1         0.0947
      17    C6      18.471152   19.512572   25.231059 C.3        1 MOL1        -0.1437
      18    H12     17.908506   18.692079   25.696192 H          1 MOL1         0.0947
      19    H13     18.165062   20.429706   25.753291 H          1 MOL1         0.0947
      20    C7      19.988232   19.296031   25.447185 C.3        1 MOL1        -0.1477
      21    H14     20.288622   18.312623   25.064574 H          1 MOL1         0.0947
      22    H15     20.549442   20.048118   24.876992 H          1 MOL1         0.0947
      23    C8      20.395234   19.402171   26.929252 C.3        1 MOL1         0.0145
      24    H16     20.101524   20.379116   27.322545 H          1 MOL1         0.0921
      25    H17     21.481511   19.312041   27.015249 H          1 MOL1         0.0921
      26    N1      19.773408   18.335294   27.808604 N.4        1 MOL1        -0.5969
      27    H18     18.749885   18.386148   27.798942 H          1 MOL1         0.3603
      28    H19     20.070102   18.427210   28.786389 H          1 MOL1         0.3603
      29    H20     20.033383   17.391641   27.503501 H          1 MOL1         0.3603
@<TRIPOS>BOND
    1     1     2    1
    2     1     3    1
    3     1     4    1
    4     1     5    1
    5     5     6    1
    6     5     7    1
    7     5     8    1
    8     8     9    1
    9     8    10    1
   10     8    11    1
   11    11    12    1
   12    11    13    1
   13    11    14    1
   14    14    15    1
   15    14    16    1
   16    14    17    1
   17    17    18    1
   18    17    19    1
   19    17    20    1
   20    20    21    1
   21    20    22    1
   22    20    23    1
   23    23    24    1
   24    23    25    1
   25    23    26    1
   26    26    27    1
   27    26    28    1
   28    26    29    1
@<TRIPOS>SUBSTRUCTURE
       1 MOL1            1 RESIDUE      1      MOL     
@<SCITEGIC>MOL_PROPERTY
VM2 Rank
SciTegic.value.IntegerValue
366

@<SCITEGIC>MOL_PROPERTY
Conf_Id
SciTegic.value.IntegerValue
2295

@<SCITEGIC>MOL_PROPERTY
Probability
SciTegic.value.DoubleValue
0.00

@<SCITEGIC>MOL_PROPERTY
Sum Probability
SciTegic.value.DoubleValue
99.89

@<SCITEGIC>MOL_PROPERTY
Delta G
SciTegic.value.DoubleValue
4.505

@<SCITEGIC>MOL_PROPERTY
G
SciTegic.value.DoubleValue
62.651

@<SCITEGIC>MOL_PROPERTY
E
SciTegic.value.DoubleValue
24.940

@<SCITEGIC>MOL_PROPERTY
-TS
SciTegic.value.DoubleValue
37.711

@<SCITEGIC>MOL_PROPERTY
U+W
SciTegic.value.DoubleValue
0.795

@<SCITEGIC>MOL_PROPERTY
U
SciTegic.value.DoubleValue
52.817

@<SCITEGIC>MOL_PROPERTY
W
SciTegic.value.DoubleValue
-52.022

@<SCITEGIC>MOL_PROPERTY
W(PB)
SciTegic.value.DoubleValue
-54.465

@<SCITEGIC>MOL_PROPERTY
W(SA)
SciTegic.value.DoubleValue
2.444

@<SCITEGIC>MOL_PROPERTY
Valence
SciTegic.value.DoubleValue
6.436

@<SCITEGIC>MOL_PROPERTY
Coulomb
SciTegic.value.DoubleValue
45.404

@<SCITEGIC>MOL_PROPERTY
VdW
SciTegic.value.DoubleValue
0.977

@<SCITEGIC>MOL_PROPERTY
VdW6
SciTegic.value.DoubleValue
-9.703

@<SCITEGIC>MOL_PROPERTY
VdW12
SciTegic.value.DoubleValue
10.680

@<SCITEGIC>MOL_PROPERTY
Bond
SciTegic.value.DoubleValue
0.304

@<SCITEGIC>MOL_PROPERTY
Angle
SciTegic.value.DoubleValue
1.503

@<SCITEGIC>MOL_PROPERTY
Pdih
SciTegic.value.DoubleValue
4.629

@<SCITEGIC>MOL_PROPERTY
Idih
SciTegic.value.DoubleValue
0.000

@<SCITEGIC>MOL_PROPERTY
Tether
SciTegic.value.DoubleValue
0.000

@<TRIPOS>MOLECULE
guest-3_vm2.mol2 : vm2 ligand conformer 367
          29          28           1
SMALL
USER_CHARGES
 
@<TRIPOS>ATOM
       1    C1      20.835448   17.873461   21.589062 C.3        1 MOL1        -0.2427
       2    H1      21.613433   18.565128   21.937191 H          1 MOL1         0.0958
       3    H2      20.353223   17.419342   22.463313 H          1 MOL1         0.0958
       4    H3      21.328141   17.066806   21.031024 H          1 MOL1         0.0958
       5    C2      19.805893   18.597379   20.694301 C.3        1 MOL1        -0.1412
       6    H4      19.007194   17.895325   20.417037 H          1 MOL1         0.0947
       7    H5      20.297229   18.885585   19.754496 H          1 MOL1         0.0947
       8    C3      19.183900   19.865758   21.332409 C.3        1 MOL1        -0.1437
       9    H6      19.964119   20.616865   21.517276 H          1 MOL1         0.0947
      10    H7      18.511825   20.314292   20.587780 H          1 MOL1         0.0947
      11    C4      18.367839   19.607363   22.625683 C.3        1 MOL1        -0.1437
      12    H8      17.940789   18.595321   22.604794 H          1 MOL1         0.0947
      13    H9      17.513054   20.297604   22.641245 H          1 MOL1         0.0947
      14    C5      19.185711   19.822903   23.922332 C.3        1 MOL1        -0.1437
      15    H10     20.075842   19.184482   23.915120 H          1 MOL1         0.0947
      16    H11     19.545129   20.860560   23.956604 H          1 MOL1         0.0947
      17    C6      18.341696   19.530470   25.185751 C.3        1 MOL1        -0.1437
      18    H12     17.992957   18.489312   25.166263 H          1 MOL1         0.0947
      19    H13     17.437930   20.155100   25.167688 H          1 MOL1         0.0947
      20    C7      19.104816   19.805731   26.505682 C.3        1 MOL1        -0.1477
      21    H14     19.372838   20.869552   26.553571 H          1 MOL1         0.0947
      22    H15     18.436203   19.619942   27.356698 H          1 MOL1         0.0947
      23    C8      20.385929   18.964590   26.677919 C.3        1 MOL1         0.0145
      24    H16     20.873888   19.234649   27.618365 H          1 MOL1         0.0921
      25    H17     21.081094   19.177462   25.861813 H          1 MOL1         0.0921
      26    N1      20.132768   17.470344   26.701861 N.4        1 MOL1        -0.5969
      27    H18     21.001553   16.938367   26.822843 H          1 MOL1         0.3603
      28    H19     19.698988   17.148023   25.831177 H          1 MOL1         0.3603
      29    H20     19.507860   17.203569   27.469665 H          1 MOL1         0.3603
@<TRIPOS>BOND
    1     1     2    1
    2     1     3    1
    3     1     4    1
    4     1     5    1
    5     5     6    1
    6     5     7    1
    7     5     8    1
    8     8     9    1
    9     8    10    1
   10     8    11    1
   11    11    12    1
   12    11    13    1
   13    11    14    1
   14    14    15    1
   15    14    16    1
   16    14    17    1
   17    17    18    1
   18    17    19    1
   19    17    20    1
   20    20    21    1
   21    20    22    1
   22    20    23    1
   23    23    24    1
   24    23    25    1
   25    23    26    1
   26    26    27    1
   27    26    28    1
   28    26    29    1
@<TRIPOS>SUBSTRUCTURE
       1 MOL1            1 RESIDUE      1      MOL     
@<SCITEGIC>MOL_PROPERTY
VM2 Rank
SciTegic.value.IntegerValue
367

@<SCITEGIC>MOL_PROPERTY
Conf_Id
SciTegic.value.IntegerValue
699

@<SCITEGIC>MOL_PROPERTY
Probability
SciTegic.value.DoubleValue
0.00

@<SCITEGIC>MOL_PROPERTY
Sum Probability
SciTegic.value.DoubleValue
99.89

@<SCITEGIC>MOL_PROPERTY
Delta G
SciTegic.value.DoubleValue
4.505

@<SCITEGIC>MOL_PROPERTY
G
SciTegic.value.DoubleValue
62.651

@<SCITEGIC>MOL_PROPERTY
E
SciTegic.value.DoubleValue
24.812

@<SCITEGIC>MOL_PROPERTY
-TS
SciTegic.value.DoubleValue
37.839

@<SCITEGIC>MOL_PROPERTY
U+W
SciTegic.value.DoubleValue
0.667

@<SCITEGIC>MOL_PROPERTY
U
SciTegic.value.DoubleValue
52.927

@<SCITEGIC>MOL_PROPERTY
W
SciTegic.value.DoubleValue
-52.260

@<SCITEGIC>MOL_PROPERTY
W(PB)
SciTegic.value.DoubleValue
-54.683

@<SCITEGIC>MOL_PROPERTY
W(SA)
SciTegic.value.DoubleValue
2.423

@<SCITEGIC>MOL_PROPERTY
Valence
SciTegic.value.DoubleValue
5.923

@<SCITEGIC>MOL_PROPERTY
Coulomb
SciTegic.value.DoubleValue
46.206

@<SCITEGIC>MOL_PROPERTY
VdW
SciTegic.value.DoubleValue
0.798

@<SCITEGIC>MOL_PROPERTY
VdW6
SciTegic.value.DoubleValue
-9.983

@<SCITEGIC>MOL_PROPERTY
VdW12
SciTegic.value.DoubleValue
10.781

@<SCITEGIC>MOL_PROPERTY
Bond
SciTegic.value.DoubleValue
0.278

@<SCITEGIC>MOL_PROPERTY
Angle
SciTegic.value.DoubleValue
1.366

@<SCITEGIC>MOL_PROPERTY
Pdih
SciTegic.value.DoubleValue
4.279

@<SCITEGIC>MOL_PROPERTY
Idih
SciTegic.value.DoubleValue
0.000

@<SCITEGIC>MOL_PROPERTY
Tether
SciTegic.value.DoubleValue
0.000

@<TRIPOS>MOLECULE
guest-3_vm2.mol2 : vm2 ligand conformer 368
          29          28           1
SMALL
USER_CHARGES
 
@<TRIPOS>ATOM
       1    C1      20.505948   19.707535   20.152500 C.3        1 MOL1        -0.2427
       2    H1      20.523097   20.544274   19.442246 H          1 MOL1         0.0958
       3    H2      21.079743   20.009087   21.035804 H          1 MOL1         0.0958
       4    H3      21.027340   18.862606   19.684195 H          1 MOL1         0.0958
       5    C2      19.049156   19.327994   20.506519 C.3        1 MOL1        -0.1412
       6    H4      18.535330   19.051768   19.575099 H          1 MOL1         0.0947
       7    H5      18.511291   20.201565   20.900376 H          1 MOL1         0.0947
       8    C3      18.948551   18.140307   21.498030 C.3        1 MOL1        -0.1437
       9    H6      18.081101   17.529391   21.212246 H          1 MOL1         0.0947
      10    H7      19.821373   17.481460   21.391936 H          1 MOL1         0.0947
      11    C4      18.764525   18.544200   22.983834 C.3        1 MOL1        -0.1437
      12    H8      18.633492   17.623294   23.565699 H          1 MOL1         0.0947
      13    H9      17.830484   19.112039   23.093778 H          1 MOL1         0.0947
      14    C5      19.938185   19.367015   23.570256 C.3        1 MOL1        -0.1437
      15    H10     20.885433   18.834706   23.408147 H          1 MOL1         0.0947
      16    H11     20.014316   20.318000   23.028027 H          1 MOL1         0.0947
      17    C6      19.774716   19.693008   25.075247 C.3        1 MOL1        -0.1437
      18    H12     18.820306   20.213063   25.232481 H          1 MOL1         0.0947
      19    H13     20.564255   20.400656   25.364102 H          1 MOL1         0.0947
      20    C7      19.861137   18.447519   25.992609 C.3        1 MOL1        -0.1477
      21    H14     19.018154   17.770916   25.805273 H          1 MOL1         0.0947
      22    H15     20.775004   17.885528   25.758616 H          1 MOL1         0.0947
      23    C8      19.885315   18.816822   27.488134 C.3        1 MOL1         0.0145
      24    H16     20.724368   19.488706   27.687972 H          1 MOL1         0.0921
      25    H17     20.024119   17.910646   28.084041 H          1 MOL1         0.0921
      26    N1      18.616466   19.493602   27.967871 N.4        1 MOL1        -0.5969
      27    H18     18.444580   20.372535   27.469676 H          1 MOL1         0.3603
      28    H19     18.659264   19.717926   28.968075 H          1 MOL1         0.3603
      29    H20     17.792479   18.899601   27.828510 H          1 MOL1         0.3603
@<TRIPOS>BOND
    1     1     2    1
    2     1     3    1
    3     1     4    1
    4     1     5    1
    5     5     6    1
    6     5     7    1
    7     5     8    1
    8     8     9    1
    9     8    10    1
   10     8    11    1
   11    11    12    1
   12    11    13    1
   13    11    14    1
   14    14    15    1
   15    14    16    1
   16    14    17    1
   17    17    18    1
   18    17    19    1
   19    17    20    1
   20    20    21    1
   21    20    22    1
   22    20    23    1
   23    23    24    1
   24    23    25    1
   25    23    26    1
   26    26    27    1
   27    26    28    1
   28    26    29    1
@<TRIPOS>SUBSTRUCTURE
       1 MOL1            1 RESIDUE      1      MOL     
@<SCITEGIC>MOL_PROPERTY
VM2 Rank
SciTegic.value.IntegerValue
368

@<SCITEGIC>MOL_PROPERTY
Conf_Id
SciTegic.value.IntegerValue
2243

@<SCITEGIC>MOL_PROPERTY
Probability
SciTegic.value.DoubleValue
0.00

@<SCITEGIC>MOL_PROPERTY
Sum Probability
SciTegic.value.DoubleValue
99.90

@<SCITEGIC>MOL_PROPERTY
Delta G
SciTegic.value.DoubleValue
4.508

@<SCITEGIC>MOL_PROPERTY
G
SciTegic.value.DoubleValue
62.654

@<SCITEGIC>MOL_PROPERTY
E
SciTegic.value.DoubleValue
24.961

@<SCITEGIC>MOL_PROPERTY
-TS
SciTegic.value.DoubleValue
37.693

@<SCITEGIC>MOL_PROPERTY
U+W
SciTegic.value.DoubleValue
0.817

@<SCITEGIC>MOL_PROPERTY
U
SciTegic.value.DoubleValue
52.595

@<SCITEGIC>MOL_PROPERTY
W
SciTegic.value.DoubleValue
-51.779

@<SCITEGIC>MOL_PROPERTY
W(PB)
SciTegic.value.DoubleValue
-54.223

@<SCITEGIC>MOL_PROPERTY
W(SA)
SciTegic.value.DoubleValue
2.444

@<SCITEGIC>MOL_PROPERTY
Valence
SciTegic.value.DoubleValue
6.347

@<SCITEGIC>MOL_PROPERTY
Coulomb
SciTegic.value.DoubleValue
45.124

@<SCITEGIC>MOL_PROPERTY
VdW
SciTegic.value.DoubleValue
1.124

@<SCITEGIC>MOL_PROPERTY
VdW6
SciTegic.value.DoubleValue
-9.586

@<SCITEGIC>MOL_PROPERTY
VdW12
SciTegic.value.DoubleValue
10.710

@<SCITEGIC>MOL_PROPERTY
Bond
SciTegic.value.DoubleValue
0.296

@<SCITEGIC>MOL_PROPERTY
Angle
SciTegic.value.DoubleValue
1.512

@<SCITEGIC>MOL_PROPERTY
Pdih
SciTegic.value.DoubleValue
4.539

@<SCITEGIC>MOL_PROPERTY
Idih
SciTegic.value.DoubleValue
0.000

@<SCITEGIC>MOL_PROPERTY
Tether
SciTegic.value.DoubleValue
0.000

@<TRIPOS>MOLECULE
guest-3_vm2.mol2 : vm2 ligand conformer 369
          29          28           1
SMALL
USER_CHARGES
 
@<TRIPOS>ATOM
       1    C1      19.714768   18.694718   19.703717 C.3        1 MOL1        -0.2427
       2    H1      19.236990   18.503084   18.734217 H          1 MOL1         0.0958
       3    H2      20.126919   19.710661   19.671747 H          1 MOL1         0.0958
       4    H3      20.547820   17.988189   19.812557 H          1 MOL1         0.0958
       5    C2      18.692592   18.529782   20.851331 C.3        1 MOL1        -0.1412
       6    H4      18.217594   17.543010   20.759587 H          1 MOL1         0.0947
       7    H5      17.887636   19.269662   20.740255 H          1 MOL1         0.0947
       8    C3      19.321290   18.646478   22.261003 C.3        1 MOL1        -0.1437
       9    H6      18.552926   18.371839   22.994869 H          1 MOL1         0.0947
      10    H7      20.133176   17.913487   22.362902 H          1 MOL1         0.0947
      11    C4      19.849947   20.065496   22.585929 C.3        1 MOL1        -0.1437
      12    H8      19.021267   20.784623   22.530168 H          1 MOL1         0.0947
      13    H9      20.573009   20.371760   21.819420 H          1 MOL1         0.0947
      14    C5      20.544577   20.187615   23.966973 C.3        1 MOL1        -0.1437
      15    H10     21.440420   19.552106   23.995856 H          1 MOL1         0.0947
      16    H11     20.911544   21.219021   24.061709 H          1 MOL1         0.0947
      17    C6      19.630498   19.886341   25.183146 C.3        1 MOL1        -0.1437
      18    H12     18.581685   20.090480   24.926868 H          1 MOL1         0.0947
      19    H13     19.888667   20.587011   25.988428 H          1 MOL1         0.0947
      20    C7      19.784468   18.440662   25.720367 C.3        1 MOL1        -0.1477
      21    H14     19.623530   17.716283   24.913873 H          1 MOL1         0.0947
      22    H15     20.811810   18.282651   26.074563 H          1 MOL1         0.0947
      23    C8      18.796769   18.123222   26.859420 C.3        1 MOL1         0.0145
      24    H16     18.899995   17.073434   27.147213 H          1 MOL1         0.0921
      25    H17     17.772125   18.282946   26.513051 H          1 MOL1         0.0921
      26    N1      19.009092   18.963684   28.103113 N.4        1 MOL1        -0.5969
      27    H18     19.950150   18.838813   28.490504 H          1 MOL1         0.3603
      28    H19     18.344155   18.720134   28.845468 H          1 MOL1         0.3603
      29    H20     18.890814   19.963120   27.909737 H          1 MOL1         0.3603
@<TRIPOS>BOND
    1     1     2    1
    2     1     3    1
    3     1     4    1
    4     1     5    1
    5     5     6    1
    6     5     7    1
    7     5     8    1
    8     8     9    1
    9     8    10    1
   10     8    11    1
   11    11    12    1
   12    11    13    1
   13    11    14    1
   14    14    15    1
   15    14    16    1
   16    14    17    1
   17    17    18    1
   18    17    19    1
   19    17    20    1
   20    20    21    1
   21    20    22    1
   22    20    23    1
   23    23    24    1
   24    23    25    1
   25    23    26    1
   26    26    27    1
   27    26    28    1
   28    26    29    1
@<TRIPOS>SUBSTRUCTURE
       1 MOL1            1 RESIDUE      1      MOL     
@<SCITEGIC>MOL_PROPERTY
VM2 Rank
SciTegic.value.IntegerValue
369

@<SCITEGIC>MOL_PROPERTY
Conf_Id
SciTegic.value.IntegerValue
1020

@<SCITEGIC>MOL_PROPERTY
Probability
SciTegic.value.DoubleValue
0.00

@<SCITEGIC>MOL_PROPERTY
Sum Probability
SciTegic.value.DoubleValue
99.90

@<SCITEGIC>MOL_PROPERTY
Delta G
SciTegic.value.DoubleValue
4.509

@<SCITEGIC>MOL_PROPERTY
G
SciTegic.value.DoubleValue
62.655

@<SCITEGIC>MOL_PROPERTY
E
SciTegic.value.DoubleValue
24.898

@<SCITEGIC>MOL_PROPERTY
-TS
SciTegic.value.DoubleValue
37.758

@<SCITEGIC>MOL_PROPERTY
U+W
SciTegic.value.DoubleValue
0.753

@<SCITEGIC>MOL_PROPERTY
U
SciTegic.value.DoubleValue
52.665

@<SCITEGIC>MOL_PROPERTY
W
SciTegic.value.DoubleValue
-51.912

@<SCITEGIC>MOL_PROPERTY
W(PB)
SciTegic.value.DoubleValue
-54.354

@<SCITEGIC>MOL_PROPERTY
W(SA)
SciTegic.value.DoubleValue
2.441

@<SCITEGIC>MOL_PROPERTY
Valence
SciTegic.value.DoubleValue
6.367

@<SCITEGIC>MOL_PROPERTY
Coulomb
SciTegic.value.DoubleValue
45.201

@<SCITEGIC>MOL_PROPERTY
VdW
SciTegic.value.DoubleValue
1.097

@<SCITEGIC>MOL_PROPERTY
VdW6
SciTegic.value.DoubleValue
-9.663

@<SCITEGIC>MOL_PROPERTY
VdW12
SciTegic.value.DoubleValue
10.760

@<SCITEGIC>MOL_PROPERTY
Bond
SciTegic.value.DoubleValue
0.297

@<SCITEGIC>MOL_PROPERTY
Angle
SciTegic.value.DoubleValue
1.452

@<SCITEGIC>MOL_PROPERTY
Pdih
SciTegic.value.DoubleValue
4.618

@<SCITEGIC>MOL_PROPERTY
Idih
SciTegic.value.DoubleValue
0.000

@<SCITEGIC>MOL_PROPERTY
Tether
SciTegic.value.DoubleValue
0.000

@<TRIPOS>MOLECULE
guest-3_vm2.mol2 : vm2 ligand conformer 370
          29          28           1
SMALL
USER_CHARGES
 
@<TRIPOS>ATOM
       1    C1      18.583347   18.065266   20.487112 C.3        1 MOL1        -0.2427
       2    H1      18.047268   17.116044   20.358653 H          1 MOL1         0.0958
       3    H2      17.837702   18.837280   20.712098 H          1 MOL1         0.0958
       4    H3      19.055673   18.314944   19.528177 H          1 MOL1         0.0958
       5    C2      19.638357   17.942179   21.610382 C.3        1 MOL1        -0.1412
       6    H4      20.299755   17.096692   21.375204 H          1 MOL1         0.0947
       7    H5      19.140283   17.685815   22.553030 H          1 MOL1         0.0947
       8    C3      20.506754   19.216332   21.774168 C.3        1 MOL1        -0.1437
       9    H6      21.382376   18.987289   22.396872 H          1 MOL1         0.0947
      10    H7      20.910898   19.484736   20.788342 H          1 MOL1         0.0947
      11    C4      19.761559   20.446220   22.360948 C.3        1 MOL1        -0.1437
      12    H8      18.697656   20.424012   22.094441 H          1 MOL1         0.0947
      13    H9      20.165239   21.348599   21.881455 H          1 MOL1         0.0947
      14    C5      19.915252   20.625925   23.893255 C.3        1 MOL1        -0.1437
      15    H10     20.977441   20.759173   24.140765 H          1 MOL1         0.0947
      16    H11     19.414862   21.560870   24.180923 H          1 MOL1         0.0947
      17    C6      19.333400   19.464218   24.731493 C.3        1 MOL1        -0.1437
      18    H12     19.909272   18.551389   24.535754 H          1 MOL1         0.0947
      19    H13     18.297188   19.270012   24.421810 H          1 MOL1         0.0947
      20    C7      19.368797   19.776670   26.246137 C.3        1 MOL1        -0.1477
      21    H14     20.403602   19.949336   26.570725 H          1 MOL1         0.0947
      22    H15     18.820202   20.708268   26.438699 H          1 MOL1         0.0947
      23    C8      18.741463   18.657490   27.099325 C.3        1 MOL1         0.0145
      24    H16     17.714149   18.476655   26.771745 H          1 MOL1         0.0921
      25    H17     18.715467   18.971157   28.146451 H          1 MOL1         0.0921
      26    N1      19.495071   17.343699   27.032179 N.4        1 MOL1        -0.5969
      27    H18     19.526005   16.972473   26.077601 H          1 MOL1         0.3603
      28    H19     19.059612   16.624933   27.620719 H          1 MOL1         0.3603
      29    H20     20.464452   17.444878   27.350595 H          1 MOL1         0.3603
@<TRIPOS>BOND
    1     1     2    1
    2     1     3    1
    3     1     4    1
    4     1     5    1
    5     5     6    1
    6     5     7    1
    7     5     8    1
    8     8     9    1
    9     8    10    1
   10     8    11    1
   11    11    12    1
   12    11    13    1
   13    11    14    1
   14    14    15    1
   15    14    16    1
   16    14    17    1
   17    17    18    1
   18    17    19    1
   19    17    20    1
   20    20    21    1
   21    20    22    1
   22    20    23    1
   23    23    24    1
   24    23    25    1
   25    23    26    1
   26    26    27    1
   27    26    28    1
   28    26    29    1
@<TRIPOS>SUBSTRUCTURE
       1 MOL1            1 RESIDUE      1      MOL     
@<SCITEGIC>MOL_PROPERTY
VM2 Rank
SciTegic.value.IntegerValue
370

@<SCITEGIC>MOL_PROPERTY
Conf_Id
SciTegic.value.IntegerValue
1324

@<SCITEGIC>MOL_PROPERTY
Probability
SciTegic.value.DoubleValue
0.00

@<SCITEGIC>MOL_PROPERTY
Sum Probability
SciTegic.value.DoubleValue
99.90

@<SCITEGIC>MOL_PROPERTY
Delta G
SciTegic.value.DoubleValue
4.511

@<SCITEGIC>MOL_PROPERTY
G
SciTegic.value.DoubleValue
62.657

@<SCITEGIC>MOL_PROPERTY
E
SciTegic.value.DoubleValue
24.939

@<SCITEGIC>MOL_PROPERTY
-TS
SciTegic.value.DoubleValue
37.718

@<SCITEGIC>MOL_PROPERTY
U+W
SciTegic.value.DoubleValue
0.795

@<SCITEGIC>MOL_PROPERTY
U
SciTegic.value.DoubleValue
53.239

@<SCITEGIC>MOL_PROPERTY
W
SciTegic.value.DoubleValue
-52.445

@<SCITEGIC>MOL_PROPERTY
W(PB)
SciTegic.value.DoubleValue
-54.891

@<SCITEGIC>MOL_PROPERTY
W(SA)
SciTegic.value.DoubleValue
2.446

@<SCITEGIC>MOL_PROPERTY
Valence
SciTegic.value.DoubleValue
6.408

@<SCITEGIC>MOL_PROPERTY
Coulomb
SciTegic.value.DoubleValue
45.846

@<SCITEGIC>MOL_PROPERTY
VdW
SciTegic.value.DoubleValue
0.985

@<SCITEGIC>MOL_PROPERTY
VdW6
SciTegic.value.DoubleValue
-9.690

@<SCITEGIC>MOL_PROPERTY
VdW12
SciTegic.value.DoubleValue
10.676

@<SCITEGIC>MOL_PROPERTY
Bond
SciTegic.value.DoubleValue
0.300

@<SCITEGIC>MOL_PROPERTY
Angle
SciTegic.value.DoubleValue
1.493

@<SCITEGIC>MOL_PROPERTY
Pdih
SciTegic.value.DoubleValue
4.615

@<SCITEGIC>MOL_PROPERTY
Idih
SciTegic.value.DoubleValue
0.000

@<SCITEGIC>MOL_PROPERTY
Tether
SciTegic.value.DoubleValue
0.000

@<TRIPOS>MOLECULE
guest-3_vm2.mol2 : vm2 ligand conformer 371
          29          28           1
SMALL
USER_CHARGES
 
@<TRIPOS>ATOM
       1    C1      20.186733   19.239795   19.892756 C.3        1 MOL1        -0.2427
       2    H1      20.493537   19.841120   19.027192 H          1 MOL1         0.0958
       3    H2      20.857240   18.372760   19.953360 H          1 MOL1         0.0958
       4    H3      19.170708   18.876183   19.696590 H          1 MOL1         0.0958
       5    C2      20.250925   20.083460   21.186283 C.3        1 MOL1        -0.1412
       6    H4      19.546882   20.924357   21.116111 H          1 MOL1         0.0947
       7    H5      21.252936   20.527647   21.266455 H          1 MOL1         0.0947
       8    C3      19.967676   19.268040   22.471146 C.3        1 MOL1        -0.1437
       9    H6      20.664122   18.420470   22.529604 H          1 MOL1         0.0947
      10    H7      20.181833   19.914010   23.331819 H          1 MOL1         0.0947
      11    C4      18.508650   18.758302   22.570213 C.3        1 MOL1        -0.1437
      12    H8      18.263783   18.170865   21.676322 H          1 MOL1         0.0947
      13    H9      17.822451   19.616249   22.570216 H          1 MOL1         0.0947
      14    C5      18.224155   17.871899   23.810399 C.3        1 MOL1        -0.1437
      15    H10     17.177206   17.544101   23.748263 H          1 MOL1         0.0947
      16    H11     18.824118   16.952772   23.761697 H          1 MOL1         0.0947
      17    C6      18.428429   18.578136   25.176053 C.3        1 MOL1        -0.1437
      18    H12     17.654072   18.223325   25.870382 H          1 MOL1         0.0947
      19    H13     18.263947   19.657996   25.064837 H          1 MOL1         0.0947
      20    C7      19.812019   18.291517   25.813477 C.3        1 MOL1        -0.1477
      21    H14     19.929905   17.207676   25.944534 H          1 MOL1         0.0947
      22    H15     20.624773   18.611043   25.151417 H          1 MOL1         0.0947
      23    C8      19.981117   18.966039   27.188115 C.3        1 MOL1         0.0145
      24    H16     20.928647   18.650525   27.633268 H          1 MOL1         0.0921
      25    H17     19.171098   18.654867   27.853258 H          1 MOL1         0.0921
      26    N1      19.984296   20.480812   27.126557 N.4        1 MOL1        -0.5969
      27    H18     19.105653   20.846403   26.746475 H          1 MOL1         0.3603
      28    H19     20.742775   20.836069   26.535353 H          1 MOL1         0.3603
      29    H20     20.107052   20.898736   28.055461 H          1 MOL1         0.3603
@<TRIPOS>BOND
    1     1     2    1
    2     1     3    1
    3     1     4    1
    4     1     5    1
    5     5     6    1
    6     5     7    1
    7     5     8    1
    8     8     9    1
    9     8    10    1
   10     8    11    1
   11    11    12    1
   12    11    13    1
   13    11    14    1
   14    14    15    1
   15    14    16    1
   16    14    17    1
   17    17    18    1
   18    17    19    1
   19    17    20    1
   20    20    21    1
   21    20    22    1
   22    20    23    1
   23    23    24    1
   24    23    25    1
   25    23    26    1
   26    26    27    1
   27    26    28    1
   28    26    29    1
@<TRIPOS>SUBSTRUCTURE
       1 MOL1            1 RESIDUE      1      MOL     
@<SCITEGIC>MOL_PROPERTY
VM2 Rank
SciTegic.value.IntegerValue
371

@<SCITEGIC>MOL_PROPERTY
Conf_Id
SciTegic.value.IntegerValue
1023

@<SCITEGIC>MOL_PROPERTY
Probability
SciTegic.value.DoubleValue
0.00

@<SCITEGIC>MOL_PROPERTY
Sum Probability
SciTegic.value.DoubleValue
99.90

@<SCITEGIC>MOL_PROPERTY
Delta G
SciTegic.value.DoubleValue
4.513

@<SCITEGIC>MOL_PROPERTY
G
SciTegic.value.DoubleValue
62.659

@<SCITEGIC>MOL_PROPERTY
E
SciTegic.value.DoubleValue
24.930

@<SCITEGIC>MOL_PROPERTY
-TS
SciTegic.value.DoubleValue
37.730

@<SCITEGIC>MOL_PROPERTY
U+W
SciTegic.value.DoubleValue
0.785

@<SCITEGIC>MOL_PROPERTY
U
SciTegic.value.DoubleValue
53.351

@<SCITEGIC>MOL_PROPERTY
W
SciTegic.value.DoubleValue
-52.566

@<SCITEGIC>MOL_PROPERTY
W(PB)
SciTegic.value.DoubleValue
-54.996

@<SCITEGIC>MOL_PROPERTY
W(SA)
SciTegic.value.DoubleValue
2.430

@<SCITEGIC>MOL_PROPERTY
Valence
SciTegic.value.DoubleValue
6.329

@<SCITEGIC>MOL_PROPERTY
Coulomb
SciTegic.value.DoubleValue
46.023

@<SCITEGIC>MOL_PROPERTY
VdW
SciTegic.value.DoubleValue
0.999

@<SCITEGIC>MOL_PROPERTY
VdW6
SciTegic.value.DoubleValue
-9.756

@<SCITEGIC>MOL_PROPERTY
VdW12
SciTegic.value.DoubleValue
10.754

@<SCITEGIC>MOL_PROPERTY
Bond
SciTegic.value.DoubleValue
0.298

@<SCITEGIC>MOL_PROPERTY
Angle
SciTegic.value.DoubleValue
1.517

@<SCITEGIC>MOL_PROPERTY
Pdih
SciTegic.value.DoubleValue
4.513

@<SCITEGIC>MOL_PROPERTY
Idih
SciTegic.value.DoubleValue
0.000

@<SCITEGIC>MOL_PROPERTY
Tether
SciTegic.value.DoubleValue
0.000

@<TRIPOS>MOLECULE
guest-3_vm2.mol2 : vm2 ligand conformer 372
          29          28           1
SMALL
USER_CHARGES
 
@<TRIPOS>ATOM
       1    C1      20.124760   19.076418   19.533938 C.3        1 MOL1        -0.2427
       2    H1      20.620889   18.097283   19.513940 H          1 MOL1         0.0958
       3    H2      19.420425   19.114798   18.692823 H          1 MOL1         0.0958
       4    H3      20.886907   19.849498   19.370529 H          1 MOL1         0.0958
       5    C2      19.387975   19.296988   20.872049 C.3        1 MOL1        -0.1412
       6    H4      18.608698   18.530950   20.978881 H          1 MOL1         0.0947
       7    H5      18.878422   20.270414   20.850983 H          1 MOL1         0.0947
       8    C3      20.360858   19.242156   22.073622 C.3        1 MOL1        -0.1437
       9    H6      20.826882   18.248638   22.127979 H          1 MOL1         0.0947
      10    H7      21.178104   19.956304   21.902084 H          1 MOL1         0.0947
      11    C4      19.695052   19.577866   23.430848 C.3        1 MOL1        -0.1437
      12    H8      19.236173   20.574506   23.375169 H          1 MOL1         0.0947
      13    H9      20.486717   19.646728   24.184317 H          1 MOL1         0.0947
      14    C5      18.631855   18.538485   23.870697 C.3        1 MOL1        -0.1437
      15    H10     17.820201   18.536570   23.131746 H          1 MOL1         0.0947
      16    H11     19.058959   17.526407   23.856558 H          1 MOL1         0.0947
      17    C6      18.002989   18.830051   25.258418 C.3        1 MOL1        -0.1437
      18    H12     16.974731   18.442696   25.248928 H          1 MOL1         0.0947
      19    H13     17.904947   19.912483   25.415307 H          1 MOL1         0.0947
      20    C7      18.732382   18.164152   26.455581 C.3        1 MOL1        -0.1477
      21    H14     18.139512   18.321562   27.366374 H          1 MOL1         0.0947
      22    H15     18.763045   17.077589   26.300086 H          1 MOL1         0.0947
      23    C8      20.166387   18.666160   26.709226 C.3        1 MOL1         0.0145
      24    H16     20.788298   18.470387   25.832730 H          1 MOL1         0.0921
      25    H17     20.595568   18.121710   27.554695 H          1 MOL1         0.0921
      26    N1      20.241743   20.145725   27.030621 N.4        1 MOL1        -0.5969
      27    H18     19.867352   20.716237   26.266292 H          1 MOL1         0.3603
      28    H19     21.206923   20.451786   27.195434 H          1 MOL1         0.3603
      29    H20     19.705486   20.377839   27.873109 H          1 MOL1         0.3603
@<TRIPOS>BOND
    1     1     2    1
    2     1     3    1
    3     1     4    1
    4     1     5    1
    5     5     6    1
    6     5     7    1
    7     5     8    1
    8     8     9    1
    9     8    10    1
   10     8    11    1
   11    11    12    1
   12    11    13    1
   13    11    14    1
   14    14    15    1
   15    14    16    1
   16    14    17    1
   17    17    18    1
   18    17    19    1
   19    17    20    1
   20    20    21    1
   21    20    22    1
   22    20    23    1
   23    23    24    1
   24    23    25    1
   25    23    26    1
   26    26    27    1
   27    26    28    1
   28    26    29    1
@<TRIPOS>SUBSTRUCTURE
       1 MOL1            1 RESIDUE      1      MOL     
@<SCITEGIC>MOL_PROPERTY
VM2 Rank
SciTegic.value.IntegerValue
372

@<SCITEGIC>MOL_PROPERTY
Conf_Id
SciTegic.value.IntegerValue
281

@<SCITEGIC>MOL_PROPERTY
Probability
SciTegic.value.DoubleValue
0.00

@<SCITEGIC>MOL_PROPERTY
Sum Probability
SciTegic.value.DoubleValue
99.91

@<SCITEGIC>MOL_PROPERTY
Delta G
SciTegic.value.DoubleValue
4.519

@<SCITEGIC>MOL_PROPERTY
G
SciTegic.value.DoubleValue
62.666

@<SCITEGIC>MOL_PROPERTY
E
SciTegic.value.DoubleValue
24.851

@<SCITEGIC>MOL_PROPERTY
-TS
SciTegic.value.DoubleValue
37.814

@<SCITEGIC>MOL_PROPERTY
U+W
SciTegic.value.DoubleValue
0.707

@<SCITEGIC>MOL_PROPERTY
U
SciTegic.value.DoubleValue
53.045

@<SCITEGIC>MOL_PROPERTY
W
SciTegic.value.DoubleValue
-52.339

@<SCITEGIC>MOL_PROPERTY
W(PB)
SciTegic.value.DoubleValue
-54.797

@<SCITEGIC>MOL_PROPERTY
W(SA)
SciTegic.value.DoubleValue
2.459

@<SCITEGIC>MOL_PROPERTY
Valence
SciTegic.value.DoubleValue
5.932

@<SCITEGIC>MOL_PROPERTY
Coulomb
SciTegic.value.DoubleValue
46.352

@<SCITEGIC>MOL_PROPERTY
VdW
SciTegic.value.DoubleValue
0.761

@<SCITEGIC>MOL_PROPERTY
VdW6
SciTegic.value.DoubleValue
-9.985

@<SCITEGIC>MOL_PROPERTY
VdW12
SciTegic.value.DoubleValue
10.746

@<SCITEGIC>MOL_PROPERTY
Bond
SciTegic.value.DoubleValue
0.298

@<SCITEGIC>MOL_PROPERTY
Angle
SciTegic.value.DoubleValue
1.641

@<SCITEGIC>MOL_PROPERTY
Pdih
SciTegic.value.DoubleValue
3.993

@<SCITEGIC>MOL_PROPERTY
Idih
SciTegic.value.DoubleValue
0.000

@<SCITEGIC>MOL_PROPERTY
Tether
SciTegic.value.DoubleValue
0.000

@<TRIPOS>MOLECULE
guest-3_vm2.mol2 : vm2 ligand conformer 373
          29          28           1
SMALL
USER_CHARGES
 
@<TRIPOS>ATOM
       1    C1      21.143611   18.280577   22.040614 C.3        1 MOL1        -0.2427
       2    H1      21.820754   19.143763   22.005596 H          1 MOL1         0.0958
       3    H2      20.844998   18.124621   23.082139 H          1 MOL1         0.0958
       4    H3      21.714349   17.397102   21.726687 H          1 MOL1         0.0958
       5    C2      19.926520   18.493341   21.110807 C.3        1 MOL1        -0.1412
       6    H4      19.268407   17.613809   21.137353 H          1 MOL1         0.0947
       7    H5      20.300273   18.559187   20.079397 H          1 MOL1         0.0947
       8    C3      19.118405   19.780563   21.419793 C.3        1 MOL1        -0.1437
       9    H6      19.782302   20.570962   21.793588 H          1 MOL1         0.0947
      10    H7      18.722953   20.162842   20.468608 H          1 MOL1         0.0947
      11    C4      17.906353   19.581852   22.369908 C.3        1 MOL1        -0.1437
      12    H8      17.218889   18.853523   21.918272 H          1 MOL1         0.0947
      13    H9      17.345656   20.525208   22.422776 H          1 MOL1         0.0947
      14    C5      18.238095   19.122696   23.811119 C.3        1 MOL1        -0.1437
      15    H10     17.293015   18.986259   24.354493 H          1 MOL1         0.0947
      16    H11     18.709893   18.133462   23.781909 H          1 MOL1         0.0947
      17    C6      19.118668   20.132475   24.590027 C.3        1 MOL1        -0.1437
      18    H12     18.637171   21.119768   24.569226 H          1 MOL1         0.0947
      19    H13     20.091046   20.251989   24.095261 H          1 MOL1         0.0947
      20    C7      19.348412   19.721878   26.063064 C.3        1 MOL1        -0.1477
      21    H14     19.897317   20.523369   26.575123 H          1 MOL1         0.0947
      22    H15     18.381720   19.625590   26.575100 H          1 MOL1         0.0947
      23    C8      20.138630   18.406634   26.195024 C.3        1 MOL1         0.0145
      24    H16     21.102193   18.503986   25.687649 H          1 MOL1         0.0921
      25    H17     19.582165   17.591534   25.725332 H          1 MOL1         0.0921
      26    N1      20.405306   18.017984   27.634643 N.4        1 MOL1        -0.5969
      27    H18     19.535613   17.885404   28.161430 H          1 MOL1         0.3603
      28    H19     20.951062   18.732264   28.127992 H          1 MOL1         0.3603
      29    H20     20.932178   17.140168   27.701251 H          1 MOL1         0.3603
@<TRIPOS>BOND
    1     1     2    1
    2     1     3    1
    3     1     4    1
    4     1     5    1
    5     5     6    1
    6     5     7    1
    7     5     8    1
    8     8     9    1
    9     8    10    1
   10     8    11    1
   11    11    12    1
   12    11    13    1
   13    11    14    1
   14    14    15    1
   15    14    16    1
   16    14    17    1
   17    17    18    1
   18    17    19    1
   19    17    20    1
   20    20    21    1
   21    20    22    1
   22    20    23    1
   23    23    24    1
   24    23    25    1
   25    23    26    1
   26    26    27    1
   27    26    28    1
   28    26    29    1
@<TRIPOS>SUBSTRUCTURE
       1 MOL1            1 RESIDUE      1      MOL     
@<SCITEGIC>MOL_PROPERTY
VM2 Rank
SciTegic.value.IntegerValue
373

@<SCITEGIC>MOL_PROPERTY
Conf_Id
SciTegic.value.IntegerValue
1812

@<SCITEGIC>MOL_PROPERTY
Probability
SciTegic.value.DoubleValue
0.00

@<SCITEGIC>MOL_PROPERTY
Sum Probability
SciTegic.value.DoubleValue
99.91

@<SCITEGIC>MOL_PROPERTY
Delta G
SciTegic.value.DoubleValue
4.520

@<SCITEGIC>MOL_PROPERTY
G
SciTegic.value.DoubleValue
62.666

@<SCITEGIC>MOL_PROPERTY
E
SciTegic.value.DoubleValue
24.478

@<SCITEGIC>MOL_PROPERTY
-TS
SciTegic.value.DoubleValue
38.188

@<SCITEGIC>MOL_PROPERTY
U+W
SciTegic.value.DoubleValue
0.333

@<SCITEGIC>MOL_PROPERTY
U
SciTegic.value.DoubleValue
52.714

@<SCITEGIC>MOL_PROPERTY
W
SciTegic.value.DoubleValue
-52.381

@<SCITEGIC>MOL_PROPERTY
W(PB)
SciTegic.value.DoubleValue
-54.792

@<SCITEGIC>MOL_PROPERTY
W(SA)
SciTegic.value.DoubleValue
2.411

@<SCITEGIC>MOL_PROPERTY
Valence
SciTegic.value.DoubleValue
6.446

@<SCITEGIC>MOL_PROPERTY
Coulomb
SciTegic.value.DoubleValue
45.880

@<SCITEGIC>MOL_PROPERTY
VdW
SciTegic.value.DoubleValue
0.389

@<SCITEGIC>MOL_PROPERTY
VdW6
SciTegic.value.DoubleValue
-10.677

@<SCITEGIC>MOL_PROPERTY
VdW12
SciTegic.value.DoubleValue
11.065

@<SCITEGIC>MOL_PROPERTY
Bond
SciTegic.value.DoubleValue
0.301

@<SCITEGIC>MOL_PROPERTY
Angle
SciTegic.value.DoubleValue
1.936

@<SCITEGIC>MOL_PROPERTY
Pdih
SciTegic.value.DoubleValue
4.209

@<SCITEGIC>MOL_PROPERTY
Idih
SciTegic.value.DoubleValue
0.000

@<SCITEGIC>MOL_PROPERTY
Tether
SciTegic.value.DoubleValue
0.000

@<TRIPOS>MOLECULE
guest-3_vm2.mol2 : vm2 ligand conformer 374
          29          28           1
SMALL
USER_CHARGES
 
@<TRIPOS>ATOM
       1    C1      21.288390   18.686674   22.050236 C.3        1 MOL1        -0.2427
       2    H1      21.140794   18.954902   23.101205 H          1 MOL1         0.0958
       3    H2      21.267574   17.592048   21.971493 H          1 MOL1         0.0958
       4    H3      22.293605   19.021746   21.763722 H          1 MOL1         0.0958
       5    C2      20.224437   19.328496   21.129806 C.3        1 MOL1        -0.1412
       6    H4      20.487102   19.082125   20.091469 H          1 MOL1         0.0947
       7    H5      20.270400   20.424071   21.200516 H          1 MOL1         0.0947
       8    C3      18.780145   18.831267   21.398606 C.3        1 MOL1        -0.1437
       9    H6      18.245752   18.823253   20.438589 H          1 MOL1         0.0947
      10    H7      18.789294   17.785122   21.731336 H          1 MOL1         0.0947
      11    C4      17.953293   19.713687   22.372737 C.3        1 MOL1        -0.1437
      12    H8      16.921785   19.336128   22.395976 H          1 MOL1         0.0947
      13    H9      17.887643   20.729762   21.960028 H          1 MOL1         0.0947
      14    C5      18.480033   19.802186   23.826244 C.3        1 MOL1        -0.1437
      15    H10     19.471362   20.270464   23.829680 H          1 MOL1         0.0947
      16    H11     17.826470   20.483791   24.387777 H          1 MOL1         0.0947
      17    C6      18.512611   18.433309   24.552105 C.3        1 MOL1        -0.1437
      18    H12     19.197084   17.745499   24.039261 H          1 MOL1         0.0947
      19    H13     17.515622   17.974800   24.499182 H          1 MOL1         0.0947
      20    C7      18.929628   18.547425   26.036788 C.3        1 MOL1        -0.1477
      21    H14     18.234680   19.213036   26.565893 H          1 MOL1         0.0947
      22    H15     18.840709   17.559998   26.508985 H          1 MOL1         0.0947
      23    C8      20.371607   19.059932   26.209294 C.3        1 MOL1         0.0145
      24    H16     20.462690   20.060992   25.780071 H          1 MOL1         0.0921
      25    H17     21.063384   18.395292   25.684832 H          1 MOL1         0.0921
      26    N1      20.803856   19.135023   27.659184 N.4        1 MOL1        -0.5969
      27    H18     20.206811   19.766809   28.203086 H          1 MOL1         0.3603
      28    H19     21.766157   19.478234   27.752864 H          1 MOL1         0.3603
      29    H20     20.767885   18.217798   28.116180 H          1 MOL1         0.3603
@<TRIPOS>BOND
    1     1     2    1
    2     1     3    1
    3     1     4    1
    4     1     5    1
    5     5     6    1
    6     5     7    1
    7     5     8    1
    8     8     9    1
    9     8    10    1
   10     8    11    1
   11    11    12    1
   12    11    13    1
   13    11    14    1
   14    14    15    1
   15    14    16    1
   16    14    17    1
   17    17    18    1
   18    17    19    1
   19    17    20    1
   20    20    21    1
   21    20    22    1
   22    20    23    1
   23    23    24    1
   24    23    25    1
   25    23    26    1
   26    26    27    1
   27    26    28    1
   28    26    29    1
@<TRIPOS>SUBSTRUCTURE
       1 MOL1            1 RESIDUE      1      MOL     
@<SCITEGIC>MOL_PROPERTY
VM2 Rank
SciTegic.value.IntegerValue
374

@<SCITEGIC>MOL_PROPERTY
Conf_Id
SciTegic.value.IntegerValue
837

@<SCITEGIC>MOL_PROPERTY
Probability
SciTegic.value.DoubleValue
0.00

@<SCITEGIC>MOL_PROPERTY
Sum Probability
SciTegic.value.DoubleValue
99.91

@<SCITEGIC>MOL_PROPERTY
Delta G
SciTegic.value.DoubleValue
4.526

@<SCITEGIC>MOL_PROPERTY
G
SciTegic.value.DoubleValue
62.672

@<SCITEGIC>MOL_PROPERTY
E
SciTegic.value.DoubleValue
24.483

@<SCITEGIC>MOL_PROPERTY
-TS
SciTegic.value.DoubleValue
38.189

@<SCITEGIC>MOL_PROPERTY
U+W
SciTegic.value.DoubleValue
0.339

@<SCITEGIC>MOL_PROPERTY
U
SciTegic.value.DoubleValue
52.715

@<SCITEGIC>MOL_PROPERTY
W
SciTegic.value.DoubleValue
-52.376

@<SCITEGIC>MOL_PROPERTY
W(PB)
SciTegic.value.DoubleValue
-54.771

@<SCITEGIC>MOL_PROPERTY
W(SA)
SciTegic.value.DoubleValue
2.395

@<SCITEGIC>MOL_PROPERTY
Valence
SciTegic.value.DoubleValue
6.446

@<SCITEGIC>MOL_PROPERTY
Coulomb
SciTegic.value.DoubleValue
45.881

@<SCITEGIC>MOL_PROPERTY
VdW
SciTegic.value.DoubleValue
0.389

@<SCITEGIC>MOL_PROPERTY
VdW6
SciTegic.value.DoubleValue
-10.678

@<SCITEGIC>MOL_PROPERTY
VdW12
SciTegic.value.DoubleValue
11.067

@<SCITEGIC>MOL_PROPERTY
Bond
SciTegic.value.DoubleValue
0.301

@<SCITEGIC>MOL_PROPERTY
Angle
SciTegic.value.DoubleValue
1.936

@<SCITEGIC>MOL_PROPERTY
Pdih
SciTegic.value.DoubleValue
4.208

@<SCITEGIC>MOL_PROPERTY
Idih
SciTegic.value.DoubleValue
0.000

@<SCITEGIC>MOL_PROPERTY
Tether
SciTegic.value.DoubleValue
0.000

@<TRIPOS>MOLECULE
guest-3_vm2.mol2 : vm2 ligand conformer 375
          29          28           1
SMALL
USER_CHARGES
 
@<TRIPOS>ATOM
       1    C1      19.919660   18.060983   20.115697 C.3        1 MOL1        -0.2427
       2    H1      19.414363   17.430449   19.372737 H          1 MOL1         0.0958
       3    H2      20.864077   18.404346   19.673837 H          1 MOL1         0.0958
       4    H3      20.161553   17.430092   20.978174 H          1 MOL1         0.0958
       5    C2      19.025270   19.261024   20.505044 C.3        1 MOL1        -0.1412
       6    H4      18.051011   18.908841   20.871562 H          1 MOL1         0.0947
       7    H5      18.814589   19.836372   19.592658 H          1 MOL1         0.0947
       8    C3      19.683585   20.204802   21.544141 C.3        1 MOL1        -0.1437
       9    H6      20.777783   20.167745   21.451894 H          1 MOL1         0.0947
      10    H7      19.401159   21.237061   21.295072 H          1 MOL1         0.0947
      11    C4      19.264906   19.949471   23.015236 C.3        1 MOL1        -0.1437
      12    H8      18.180690   20.095506   23.115801 H          1 MOL1         0.0947
      13    H9      19.736880   20.722162   23.634908 H          1 MOL1         0.0947
      14    C5      19.646595   18.547819   23.551963 C.3        1 MOL1        -0.1437
      15    H10     19.112553   17.784945   22.971441 H          1 MOL1         0.0947
      16    H11     20.719348   18.368026   23.397741 H          1 MOL1         0.0947
      17    C6      19.292711   18.339041   25.045005 C.3        1 MOL1        -0.1437
      18    H12     19.453576   17.280982   25.294415 H          1 MOL1         0.0947
      19    H13     18.222222   18.533080   25.194938 H          1 MOL1         0.0947
      20    C7      20.133506   19.212352   26.009710 C.3        1 MOL1        -0.1477
      21    H14     21.200146   19.079379   25.785357 H          1 MOL1         0.0947
      22    H15     19.910229   20.276116   25.861195 H          1 MOL1         0.0947
      23    C8      19.897775   18.851974   27.488945 C.3        1 MOL1         0.0145
      24    H16     20.569340   19.442286   28.118278 H          1 MOL1         0.0921
      25    H17     20.120874   17.793868   27.650214 H          1 MOL1         0.0921
      26    N1      18.479992   19.110534   27.959260 N.4        1 MOL1        -0.5969
      27    H18     18.218514   20.096434   27.855121 H          1 MOL1         0.3603
      28    H19     18.357304   18.870246   28.949095 H          1 MOL1         0.3603
      29    H20     17.798606   18.558343   27.429104 H          1 MOL1         0.3603
@<TRIPOS>BOND
    1     1     2    1
    2     1     3    1
    3     1     4    1
    4     1     5    1
    5     5     6    1
    6     5     7    1
    7     5     8    1
    8     8     9    1
    9     8    10    1
   10     8    11    1
   11    11    12    1
   12    11    13    1
   13    11    14    1
   14    14    15    1
   15    14    16    1
   16    14    17    1
   17    17    18    1
   18    17    19    1
   19    17    20    1
   20    20    21    1
   21    20    22    1
   22    20    23    1
   23    23    24    1
   24    23    25    1
   25    23    26    1
   26    26    27    1
   27    26    28    1
   28    26    29    1
@<TRIPOS>SUBSTRUCTURE
       1 MOL1            1 RESIDUE      1      MOL     
@<SCITEGIC>MOL_PROPERTY
VM2 Rank
SciTegic.value.IntegerValue
375

@<SCITEGIC>MOL_PROPERTY
Conf_Id
SciTegic.value.IntegerValue
1275

@<SCITEGIC>MOL_PROPERTY
Probability
SciTegic.value.DoubleValue
0.00

@<SCITEGIC>MOL_PROPERTY
Sum Probability
SciTegic.value.DoubleValue
99.91

@<SCITEGIC>MOL_PROPERTY
Delta G
SciTegic.value.DoubleValue
4.534

@<SCITEGIC>MOL_PROPERTY
G
SciTegic.value.DoubleValue
62.680

@<SCITEGIC>MOL_PROPERTY
E
SciTegic.value.DoubleValue
24.987

@<SCITEGIC>MOL_PROPERTY
-TS
SciTegic.value.DoubleValue
37.693

@<SCITEGIC>MOL_PROPERTY
U+W
SciTegic.value.DoubleValue
0.842

@<SCITEGIC>MOL_PROPERTY
U
SciTegic.value.DoubleValue
52.595

@<SCITEGIC>MOL_PROPERTY
W
SciTegic.value.DoubleValue
-51.753

@<SCITEGIC>MOL_PROPERTY
W(PB)
SciTegic.value.DoubleValue
-54.234

@<SCITEGIC>MOL_PROPERTY
W(SA)
SciTegic.value.DoubleValue
2.481

@<SCITEGIC>MOL_PROPERTY
Valence
SciTegic.value.DoubleValue
6.347

@<SCITEGIC>MOL_PROPERTY
Coulomb
SciTegic.value.DoubleValue
45.124

@<SCITEGIC>MOL_PROPERTY
VdW
SciTegic.value.DoubleValue
1.124

@<SCITEGIC>MOL_PROPERTY
VdW6
SciTegic.value.DoubleValue
-9.586

@<SCITEGIC>MOL_PROPERTY
VdW12
SciTegic.value.DoubleValue
10.710

@<SCITEGIC>MOL_PROPERTY
Bond
SciTegic.value.DoubleValue
0.296

@<SCITEGIC>MOL_PROPERTY
Angle
SciTegic.value.DoubleValue
1.512

@<SCITEGIC>MOL_PROPERTY
Pdih
SciTegic.value.DoubleValue
4.539

@<SCITEGIC>MOL_PROPERTY
Idih
SciTegic.value.DoubleValue
0.000

@<SCITEGIC>MOL_PROPERTY
Tether
SciTegic.value.DoubleValue
0.000

@<TRIPOS>MOLECULE
guest-3_vm2.mol2 : vm2 ligand conformer 376
          29          28           1
SMALL
USER_CHARGES
 
@<TRIPOS>ATOM
       1    C1      20.902412   19.380923   20.300261 C.3        1 MOL1        -0.2427
       2    H1      21.225404   18.416560   19.887051 H          1 MOL1         0.0958
       3    H2      21.247978   20.168059   19.617700 H          1 MOL1         0.0958
       4    H3      21.413082   19.524081   21.258974 H          1 MOL1         0.0958
       5    C2      19.363711   19.429474   20.447498 C.3        1 MOL1        -0.1412
       6    H4      18.923612   19.292779   19.449755 H          1 MOL1         0.0947
       7    H5      19.043029   20.424840   20.785075 H          1 MOL1         0.0947
       8    C3      18.802987   18.333492   21.389974 C.3        1 MOL1        -0.1437
       9    H6      17.846506   17.984493   20.976800 H          1 MOL1         0.0947
      10    H7      19.463490   17.455492   21.387414 H          1 MOL1         0.0947
      11    C4      18.539851   18.796821   22.846269 C.3        1 MOL1        -0.1437
      12    H8      18.079177   17.958841   23.383857 H          1 MOL1         0.0947
      13    H9      17.795444   19.604794   22.842208 H          1 MOL1         0.0947
      14    C5      19.806148   19.268851   23.602911 C.3        1 MOL1        -0.1437
      15    H10     20.580789   18.491141   23.557900 H          1 MOL1         0.0947
      16    H11     20.215829   20.151260   23.095268 H          1 MOL1         0.0947
      17    C6      19.541005   19.655167   25.079079 C.3        1 MOL1        -0.1437
      18    H12     18.739055   20.404913   25.125586 H          1 MOL1         0.0947
      19    H13     20.443241   20.144348   25.469216 H          1 MOL1         0.0947
      20    C7      19.183716   18.448330   25.983066 C.3        1 MOL1        -0.1477
      21    H14     18.259211   17.976461   25.629024 H          1 MOL1         0.0947
      22    H15     19.970565   17.684981   25.920428 H          1 MOL1         0.0947
      23    C8      18.975416   18.851319   27.455712 C.3        1 MOL1         0.0145
      24    H16     18.632274   17.982370   28.023790 H          1 MOL1         0.0921
      25    H17     18.206753   19.626161   27.520264 H          1 MOL1         0.0921
      26    N1      20.228754   19.373623   28.130230 N.4        1 MOL1        -0.5969
      27    H18     20.058724   19.618977   29.111799 H          1 MOL1         0.3603
      28    H19     20.585775   20.215562   27.667811 H          1 MOL1         0.3603
      29    H20     20.983156   18.679303   28.121059 H          1 MOL1         0.3603
@<TRIPOS>BOND
    1     1     2    1
    2     1     3    1
    3     1     4    1
    4     1     5    1
    5     5     6    1
    6     5     7    1
    7     5     8    1
    8     8     9    1
    9     8    10    1
   10     8    11    1
   11    11    12    1
   12    11    13    1
   13    11    14    1
   14    14    15    1
   15    14    16    1
   16    14    17    1
   17    17    18    1
   18    17    19    1
   19    17    20    1
   20    20    21    1
   21    20    22    1
   22    20    23    1
   23    23    24    1
   24    23    25    1
   25    23    26    1
   26    26    27    1
   27    26    28    1
   28    26    29    1
@<TRIPOS>SUBSTRUCTURE
       1 MOL1            1 RESIDUE      1      MOL     
@<SCITEGIC>MOL_PROPERTY
VM2 Rank
SciTegic.value.IntegerValue
376

@<SCITEGIC>MOL_PROPERTY
Conf_Id
SciTegic.value.IntegerValue
2874

@<SCITEGIC>MOL_PROPERTY
Probability
SciTegic.value.DoubleValue
0.00

@<SCITEGIC>MOL_PROPERTY
Sum Probability
SciTegic.value.DoubleValue
99.92

@<SCITEGIC>MOL_PROPERTY
Delta G
SciTegic.value.DoubleValue
4.536

@<SCITEGIC>MOL_PROPERTY
G
SciTegic.value.DoubleValue
62.682

@<SCITEGIC>MOL_PROPERTY
E
SciTegic.value.DoubleValue
25.034

@<SCITEGIC>MOL_PROPERTY
-TS
SciTegic.value.DoubleValue
37.648

@<SCITEGIC>MOL_PROPERTY
U+W
SciTegic.value.DoubleValue
0.890

@<SCITEGIC>MOL_PROPERTY
U
SciTegic.value.DoubleValue
52.563

@<SCITEGIC>MOL_PROPERTY
W
SciTegic.value.DoubleValue
-51.673

@<SCITEGIC>MOL_PROPERTY
W(PB)
SciTegic.value.DoubleValue
-54.120

@<SCITEGIC>MOL_PROPERTY
W(SA)
SciTegic.value.DoubleValue
2.447

@<SCITEGIC>MOL_PROPERTY
Valence
SciTegic.value.DoubleValue
6.391

@<SCITEGIC>MOL_PROPERTY
Coulomb
SciTegic.value.DoubleValue
44.996

@<SCITEGIC>MOL_PROPERTY
VdW
SciTegic.value.DoubleValue
1.177

@<SCITEGIC>MOL_PROPERTY
VdW6
SciTegic.value.DoubleValue
-9.539

@<SCITEGIC>MOL_PROPERTY
VdW12
SciTegic.value.DoubleValue
10.715

@<SCITEGIC>MOL_PROPERTY
Bond
SciTegic.value.DoubleValue
0.302

@<SCITEGIC>MOL_PROPERTY
Angle
SciTegic.value.DoubleValue
1.557

@<SCITEGIC>MOL_PROPERTY
Pdih
SciTegic.value.DoubleValue
4.532

@<SCITEGIC>MOL_PROPERTY
Idih
SciTegic.value.DoubleValue
0.000

@<SCITEGIC>MOL_PROPERTY
Tether
SciTegic.value.DoubleValue
0.000

@<TRIPOS>MOLECULE
guest-3_vm2.mol2 : vm2 ligand conformer 377
          29          28           1
SMALL
USER_CHARGES
 
@<TRIPOS>ATOM
       1    C1      20.774523   18.166808   20.894181 C.3        1 MOL1        -0.2427
       2    H1      19.859537   17.570452   20.791775 H          1 MOL1         0.0958
       3    H2      21.323017   18.094671   19.946104 H          1 MOL1         0.0958
       4    H3      21.395749   17.712602   21.676955 H          1 MOL1         0.0958
       5    C2      20.456551   19.642867   21.223768 C.3        1 MOL1        -0.1412
       6    H4      19.811085   20.066367   20.441650 H          1 MOL1         0.0947
       7    H5      21.391157   20.220396   21.197244 H          1 MOL1         0.0947
       8    C3      19.795182   19.832133   22.609871 C.3        1 MOL1        -0.1437
       9    H6      20.458885   19.422555   23.379106 H          1 MOL1         0.0947
      10    H7      19.717420   20.909094   22.812429 H          1 MOL1         0.0947
      11    C4      18.383591   19.197975   22.707535 C.3        1 MOL1        -0.1437
      12    H8      18.430963   18.113364   22.545666 H          1 MOL1         0.0947
      13    H9      17.773171   19.601142   21.887784 H          1 MOL1         0.0947
      14    C5      17.656407   19.495209   24.045355 C.3        1 MOL1        -0.1437
      15    H10     17.954576   20.477256   24.436115 H          1 MOL1         0.0947
      16    H11     16.582266   19.583255   23.831222 H          1 MOL1         0.0947
      17    C6      17.818019   18.399200   25.133126 C.3        1 MOL1        -0.1437
      18    H12     17.416953   17.451264   24.748766 H          1 MOL1         0.0947
      19    H13     17.185744   18.664537   25.991760 H          1 MOL1         0.0947
      20    C7      19.261262   18.163123   25.637851 C.3        1 MOL1        -0.1477
      21    H14     19.241862   17.380167   26.407499 H          1 MOL1         0.0947
      22    H15     19.883775   17.773237   24.823213 H          1 MOL1         0.0947
      23    C8      19.896172   19.433403   26.233552 C.3        1 MOL1         0.0145
      24    H16     19.284875   19.794490   27.064956 H          1 MOL1         0.0921
      25    H17     19.939138   20.217034   25.472907 H          1 MOL1         0.0921
      26    N1      21.302294   19.207283   26.749761 N.4        1 MOL1        -0.5969
      27    H18     21.326219   18.500130   27.491917 H          1 MOL1         0.3603
      28    H19     21.706390   20.064934   27.141809 H          1 MOL1         0.3603
      29    H20     21.935440   18.889096   26.008882 H          1 MOL1         0.3603
@<TRIPOS>BOND
    1     1     2    1
    2     1     3    1
    3     1     4    1
    4     1     5    1
    5     5     6    1
    6     5     7    1
    7     5     8    1
    8     8     9    1
    9     8    10    1
   10     8    11    1
   11    11    12    1
   12    11    13    1
   13    11    14    1
   14    14    15    1
   15    14    16    1
   16    14    17    1
   17    17    18    1
   18    17    19    1
   19    17    20    1
   20    20    21    1
   21    20    22    1
   22    20    23    1
   23    23    24    1
   24    23    25    1
   25    23    26    1
   26    26    27    1
   27    26    28    1
   28    26    29    1
@<TRIPOS>SUBSTRUCTURE
       1 MOL1            1 RESIDUE      1      MOL     
@<SCITEGIC>MOL_PROPERTY
VM2 Rank
SciTegic.value.IntegerValue
377

@<SCITEGIC>MOL_PROPERTY
Conf_Id
SciTegic.value.IntegerValue
273

@<SCITEGIC>MOL_PROPERTY
Probability
SciTegic.value.DoubleValue
0.00

@<SCITEGIC>MOL_PROPERTY
Sum Probability
SciTegic.value.DoubleValue
99.92

@<SCITEGIC>MOL_PROPERTY
Delta G
SciTegic.value.DoubleValue
4.560

@<SCITEGIC>MOL_PROPERTY
G
SciTegic.value.DoubleValue
62.707

@<SCITEGIC>MOL_PROPERTY
E
SciTegic.value.DoubleValue
24.685

@<SCITEGIC>MOL_PROPERTY
-TS
SciTegic.value.DoubleValue
38.021

@<SCITEGIC>MOL_PROPERTY
U+W
SciTegic.value.DoubleValue
0.541

@<SCITEGIC>MOL_PROPERTY
U
SciTegic.value.DoubleValue
53.378

@<SCITEGIC>MOL_PROPERTY
W
SciTegic.value.DoubleValue
-52.837

@<SCITEGIC>MOL_PROPERTY
W(PB)
SciTegic.value.DoubleValue
-55.256

@<SCITEGIC>MOL_PROPERTY
W(SA)
SciTegic.value.DoubleValue
2.419

@<SCITEGIC>MOL_PROPERTY
Valence
SciTegic.value.DoubleValue
6.394

@<SCITEGIC>MOL_PROPERTY
Coulomb
SciTegic.value.DoubleValue
46.521

@<SCITEGIC>MOL_PROPERTY
VdW
SciTegic.value.DoubleValue
0.463

@<SCITEGIC>MOL_PROPERTY
VdW6
SciTegic.value.DoubleValue
-10.599

@<SCITEGIC>MOL_PROPERTY
VdW12
SciTegic.value.DoubleValue
11.062

@<SCITEGIC>MOL_PROPERTY
Bond
SciTegic.value.DoubleValue
0.301

@<SCITEGIC>MOL_PROPERTY
Angle
SciTegic.value.DoubleValue
1.793

@<SCITEGIC>MOL_PROPERTY
Pdih
SciTegic.value.DoubleValue
4.299

@<SCITEGIC>MOL_PROPERTY
Idih
SciTegic.value.DoubleValue
0.000

@<SCITEGIC>MOL_PROPERTY
Tether
SciTegic.value.DoubleValue
0.000

@<TRIPOS>MOLECULE
guest-3_vm2.mol2 : vm2 ligand conformer 378
          29          28           1
SMALL
USER_CHARGES
 
@<TRIPOS>ATOM
       1    C1      21.273942   19.696645   20.767546 C.3        1 MOL1        -0.2427
       2    H1      22.061029   19.755018   21.530605 H          1 MOL1         0.0958
       3    H2      21.360800   18.727122   20.259900 H          1 MOL1         0.0958
       4    H3      21.464229   20.483568   20.026227 H          1 MOL1         0.0958
       5    C2      19.875995   19.868941   21.398151 C.3        1 MOL1        -0.1412
       6    H4      19.113119   19.841882   20.607506 H          1 MOL1         0.0947
       7    H5      19.808879   20.859162   21.870146 H          1 MOL1         0.0947
       8    C3      19.582276   18.771848   22.444523 C.3        1 MOL1        -0.1437
       9    H6      19.644195   17.783971   21.967698 H          1 MOL1         0.0947
      10    H7      20.359132   18.798722   23.217675 H          1 MOL1         0.0947
      11    C4      18.184379   18.948384   23.084133 C.3        1 MOL1        -0.1437
      12    H8      17.428366   18.932686   22.287019 H          1 MOL1         0.0947
      13    H9      18.099571   19.937069   23.551905 H          1 MOL1         0.0947
      14    C5      17.828642   17.843769   24.110351 C.3        1 MOL1        -0.1437
      15    H10     16.798390   18.006138   24.455825 H          1 MOL1         0.0947
      16    H11     17.818053   16.874542   23.592970 H          1 MOL1         0.0947
      17    C6      18.758025   17.731750   25.349438 C.3        1 MOL1        -0.1437
      18    H12     19.773054   17.446377   25.046626 H          1 MOL1         0.0947
      19    H13     18.391555   16.890577   25.953895 H          1 MOL1         0.0947
      20    C7      18.784575   18.989599   26.258660 C.3        1 MOL1        -0.1477
      21    H14     17.782264   19.436145   26.298454 H          1 MOL1         0.0947
      22    H15     19.017142   18.682528   27.287009 H          1 MOL1         0.0947
      23    C8      19.806897   20.064655   25.835529 C.3        1 MOL1         0.0145
      24    H16     19.670716   20.954852   26.455558 H          1 MOL1         0.0921
      25    H17     19.648302   20.350142   24.794007 H          1 MOL1         0.0921
      26    N1      21.249268   19.622409   25.986669 N.4        1 MOL1        -0.5969
      27    H18     21.471449   19.382289   26.958412 H          1 MOL1         0.3603
      28    H19     21.904753   20.358895   25.703216 H          1 MOL1         0.3603
      29    H20     21.455646   18.796811   25.416594 H          1 MOL1         0.3603
@<TRIPOS>BOND
    1     1     2    1
    2     1     3    1
    3     1     4    1
    4     1     5    1
    5     5     6    1
    6     5     7    1
    7     5     8    1
    8     8     9    1
    9     8    10    1
   10     8    11    1
   11    11    12    1
   12    11    13    1
   13    11    14    1
   14    14    15    1
   15    14    16    1
   16    14    17    1
   17    17    18    1
   18    17    19    1
   19    17    20    1
   20    20    21    1
   21    20    22    1
   22    20    23    1
   23    23    24    1
   24    23    25    1
   25    23    26    1
   26    26    27    1
   27    26    28    1
   28    26    29    1
@<TRIPOS>SUBSTRUCTURE
       1 MOL1            1 RESIDUE      1      MOL     
@<SCITEGIC>MOL_PROPERTY
VM2 Rank
SciTegic.value.IntegerValue
378

@<SCITEGIC>MOL_PROPERTY
Conf_Id
SciTegic.value.IntegerValue
2001

@<SCITEGIC>MOL_PROPERTY
Probability
SciTegic.value.DoubleValue
0.00

@<SCITEGIC>MOL_PROPERTY
Sum Probability
SciTegic.value.DoubleValue
99.92

@<SCITEGIC>MOL_PROPERTY
Delta G
SciTegic.value.DoubleValue
4.560

@<SCITEGIC>MOL_PROPERTY
G
SciTegic.value.DoubleValue
62.707

@<SCITEGIC>MOL_PROPERTY
E
SciTegic.value.DoubleValue
24.402

@<SCITEGIC>MOL_PROPERTY
-TS
SciTegic.value.DoubleValue
38.305

@<SCITEGIC>MOL_PROPERTY
U+W
SciTegic.value.DoubleValue
0.257

@<SCITEGIC>MOL_PROPERTY
U
SciTegic.value.DoubleValue
53.119

@<SCITEGIC>MOL_PROPERTY
W
SciTegic.value.DoubleValue
-52.862

@<SCITEGIC>MOL_PROPERTY
W(PB)
SciTegic.value.DoubleValue
-55.228

@<SCITEGIC>MOL_PROPERTY
W(SA)
SciTegic.value.DoubleValue
2.366

@<SCITEGIC>MOL_PROPERTY
Valence
SciTegic.value.DoubleValue
5.725

@<SCITEGIC>MOL_PROPERTY
Coulomb
SciTegic.value.DoubleValue
47.202

@<SCITEGIC>MOL_PROPERTY
VdW
SciTegic.value.DoubleValue
0.192

@<SCITEGIC>MOL_PROPERTY
VdW6
SciTegic.value.DoubleValue
-10.875

@<SCITEGIC>MOL_PROPERTY
VdW12
SciTegic.value.DoubleValue
11.067

@<SCITEGIC>MOL_PROPERTY
Bond
SciTegic.value.DoubleValue
0.290

@<SCITEGIC>MOL_PROPERTY
Angle
SciTegic.value.DoubleValue
1.814

@<SCITEGIC>MOL_PROPERTY
Pdih
SciTegic.value.DoubleValue
3.621

@<SCITEGIC>MOL_PROPERTY
Idih
SciTegic.value.DoubleValue
0.000

@<SCITEGIC>MOL_PROPERTY
Tether
SciTegic.value.DoubleValue
0.000

@<TRIPOS>MOLECULE
guest-3_vm2.mol2 : vm2 ligand conformer 379
          29          28           1
SMALL
USER_CHARGES
 
@<TRIPOS>ATOM
       1    C1      19.346949   18.304878   20.268364 C.3        1 MOL1        -0.2427
       2    H1      19.027189   18.180521   19.225706 H          1 MOL1         0.0958
       3    H2      20.207942   17.645198   20.436696 H          1 MOL1         0.0958
       4    H3      18.519957   17.970850   20.907120 H          1 MOL1         0.0958
       5    C2      19.711756   19.778938   20.548710 C.3        1 MOL1        -0.1412
       6    H4      18.817818   20.405575   20.422693 H          1 MOL1         0.0947
       7    H5      20.429043   20.115409   19.787143 H          1 MOL1         0.0947
       8    C3      20.327302   20.028770   21.949157 C.3        1 MOL1        -0.1437
       9    H6      21.275832   19.483230   22.048114 H          1 MOL1         0.0947
      10    H7      20.590742   21.093843   22.008915 H          1 MOL1         0.0947
      11    C4      19.387783   19.695747   23.137245 C.3        1 MOL1        -0.1437
      12    H8      18.339066   19.815715   22.832826 H          1 MOL1         0.0947
      13    H9      19.563475   20.436914   23.927983 H          1 MOL1         0.0947
      14    C5      19.621722   18.280978   23.726128 C.3        1 MOL1        -0.1437
      15    H10     19.576709   17.532107   22.926637 H          1 MOL1         0.0947
      16    H11     20.639165   18.217408   24.134475 H          1 MOL1         0.0947
      17    C6      18.590580   17.887247   24.815059 C.3        1 MOL1        -0.1437
      18    H12     18.806598   16.863597   25.151009 H          1 MOL1         0.0947
      19    H13     17.588734   17.852347   24.365304 H          1 MOL1         0.0947
      20    C7      18.555087   18.822380   26.049316 C.3        1 MOL1        -0.1477
      21    H14     18.210903   19.821841   25.754247 H          1 MOL1         0.0947
      22    H15     17.812431   18.439580   26.761867 H          1 MOL1         0.0947
      23    C8      19.919987   18.929831   26.754048 C.3        1 MOL1         0.0145
      24    H16     20.658708   19.348232   26.065449 H          1 MOL1         0.0921
      25    H17     20.256360   17.935057   27.058325 H          1 MOL1         0.0921
      26    N1      19.882834   19.809230   27.986973 N.4        1 MOL1        -0.5969
      27    H18     19.224710   19.454581   28.688780 H          1 MOL1         0.3603
      28    H19     19.598129   20.768531   27.763339 H          1 MOL1         0.3603
      29    H20     20.801038   19.867651   28.440940 H          1 MOL1         0.3603
@<TRIPOS>BOND
    1     1     2    1
    2     1     3    1
    3     1     4    1
    4     1     5    1
    5     5     6    1
    6     5     7    1
    7     5     8    1
    8     8     9    1
    9     8    10    1
   10     8    11    1
   11    11    12    1
   12    11    13    1
   13    11    14    1
   14    14    15    1
   15    14    16    1
   16    14    17    1
   17    17    18    1
   18    17    19    1
   19    17    20    1
   20    20    21    1
   21    20    22    1
   22    20    23    1
   23    23    24    1
   24    23    25    1
   25    23    26    1
   26    26    27    1
   27    26    28    1
   28    26    29    1
@<TRIPOS>SUBSTRUCTURE
       1 MOL1            1 RESIDUE      1      MOL     
@<SCITEGIC>MOL_PROPERTY
VM2 Rank
SciTegic.value.IntegerValue
379

@<SCITEGIC>MOL_PROPERTY
Conf_Id
SciTegic.value.IntegerValue
1319

@<SCITEGIC>MOL_PROPERTY
Probability
SciTegic.value.DoubleValue
0.00

@<SCITEGIC>MOL_PROPERTY
Sum Probability
SciTegic.value.DoubleValue
99.92

@<SCITEGIC>MOL_PROPERTY
Delta G
SciTegic.value.DoubleValue
4.568

@<SCITEGIC>MOL_PROPERTY
G
SciTegic.value.DoubleValue
62.714

@<SCITEGIC>MOL_PROPERTY
E
SciTegic.value.DoubleValue
24.790

@<SCITEGIC>MOL_PROPERTY
-TS
SciTegic.value.DoubleValue
37.924

@<SCITEGIC>MOL_PROPERTY
U+W
SciTegic.value.DoubleValue
0.645

@<SCITEGIC>MOL_PROPERTY
U
SciTegic.value.DoubleValue
52.669

@<SCITEGIC>MOL_PROPERTY
W
SciTegic.value.DoubleValue
-52.023

@<SCITEGIC>MOL_PROPERTY
W(PB)
SciTegic.value.DoubleValue
-54.472

@<SCITEGIC>MOL_PROPERTY
W(SA)
SciTegic.value.DoubleValue
2.449

@<SCITEGIC>MOL_PROPERTY
Valence
SciTegic.value.DoubleValue
6.353

@<SCITEGIC>MOL_PROPERTY
Coulomb
SciTegic.value.DoubleValue
45.455

@<SCITEGIC>MOL_PROPERTY
VdW
SciTegic.value.DoubleValue
0.860

@<SCITEGIC>MOL_PROPERTY
VdW6
SciTegic.value.DoubleValue
-10.068

@<SCITEGIC>MOL_PROPERTY
VdW12
SciTegic.value.DoubleValue
10.928

@<SCITEGIC>MOL_PROPERTY
Bond
SciTegic.value.DoubleValue
0.298

@<SCITEGIC>MOL_PROPERTY
Angle
SciTegic.value.DoubleValue
1.597

@<SCITEGIC>MOL_PROPERTY
Pdih
SciTegic.value.DoubleValue
4.458

@<SCITEGIC>MOL_PROPERTY
Idih
SciTegic.value.DoubleValue
0.000

@<SCITEGIC>MOL_PROPERTY
Tether
SciTegic.value.DoubleValue
0.000

@<TRIPOS>MOLECULE
guest-3_vm2.mol2 : vm2 ligand conformer 380
          29          28           1
SMALL
USER_CHARGES
 
@<TRIPOS>ATOM
       1    C1      21.328555   19.547505   21.063767 C.3        1 MOL1        -0.2427
       2    H1      21.530786   20.041852   22.021901 H          1 MOL1         0.0958
       3    H2      21.732619   18.527885   21.109903 H          1 MOL1         0.0958
       4    H3      21.881846   20.093087   20.288446 H          1 MOL1         0.0958
       5    C2      19.817395   19.532224   20.739602 C.3        1 MOL1        -0.1412
       6    H4      19.678213   19.145015   19.720564 H          1 MOL1         0.0947
       7    H5      19.430277   20.560717   20.733160 H          1 MOL1         0.0947
       8    C3      18.986439   18.666096   21.716853 C.3        1 MOL1        -0.1437
       9    H6      17.952092   18.620954   21.348972 H          1 MOL1         0.0947
      10    H7      19.364338   17.634462   21.704458 H          1 MOL1         0.0947
      11    C4      18.984990   19.203420   23.167908 C.3        1 MOL1        -0.1437
      12    H8      18.648860   20.249234   23.167185 H          1 MOL1         0.0947
      13    H9      20.008200   19.196679   23.555074 H          1 MOL1         0.0947
      14    C5      18.061964   18.364959   24.085763 C.3        1 MOL1        -0.1437
      15    H10     17.054109   18.367314   23.647936 H          1 MOL1         0.0947
      16    H11     18.385604   17.315062   24.095025 H          1 MOL1         0.0947
      17    C6      17.955506   18.900962   25.537509 C.3        1 MOL1        -0.1437
      18    H12     16.970799   18.611236   25.929706 H          1 MOL1         0.0947
      19    H13     17.958307   19.999046   25.541582 H          1 MOL1         0.0947
      20    C7      19.021207   18.345149   26.519618 C.3        1 MOL1        -0.1477
      21    H14     18.779560   18.685638   27.535238 H          1 MOL1         0.0947
      22    H15     18.952387   17.249548   26.544911 H          1 MOL1         0.0947
      23    C8      20.476321   18.740085   26.203442 C.3        1 MOL1         0.0145
      24    H16     20.764875   18.342878   25.227797 H          1 MOL1         0.0921
      25    H17     21.140300   18.302075   26.953590 H          1 MOL1         0.0921
      26    N1      20.711622   20.237600   26.200536 N.4        1 MOL1        -0.5969
      27    H18     20.492207   20.656703   27.110185 H          1 MOL1         0.3603
      28    H19     20.128796   20.707818   25.501206 H          1 MOL1         0.3603
      29    H20     21.688505   20.469976   25.990657 H          1 MOL1         0.3603
@<TRIPOS>BOND
    1     1     2    1
    2     1     3    1
    3     1     4    1
    4     1     5    1
    5     5     6    1
    6     5     7    1
    7     5     8    1
    8     8     9    1
    9     8    10    1
   10     8    11    1
   11    11    12    1
   12    11    13    1
   13    11    14    1
   14    14    15    1
   15    14    16    1
   16    14    17    1
   17    17    18    1
   18    17    19    1
   19    17    20    1
   20    20    21    1
   21    20    22    1
   22    20    23    1
   23    23    24    1
   24    23    25    1
   25    23    26    1
   26    26    27    1
   27    26    28    1
   28    26    29    1
@<TRIPOS>SUBSTRUCTURE
       1 MOL1            1 RESIDUE      1      MOL     
@<SCITEGIC>MOL_PROPERTY
VM2 Rank
SciTegic.value.IntegerValue
380

@<SCITEGIC>MOL_PROPERTY
Conf_Id
SciTegic.value.IntegerValue
2012

@<SCITEGIC>MOL_PROPERTY
Probability
SciTegic.value.DoubleValue
0.00

@<SCITEGIC>MOL_PROPERTY
Sum Probability
SciTegic.value.DoubleValue
99.93

@<SCITEGIC>MOL_PROPERTY
Delta G
SciTegic.value.DoubleValue
4.572

@<SCITEGIC>MOL_PROPERTY
G
SciTegic.value.DoubleValue
62.718

@<SCITEGIC>MOL_PROPERTY
E
SciTegic.value.DoubleValue
24.892

@<SCITEGIC>MOL_PROPERTY
-TS
SciTegic.value.DoubleValue
37.826

@<SCITEGIC>MOL_PROPERTY
U+W
SciTegic.value.DoubleValue
0.748

@<SCITEGIC>MOL_PROPERTY
U
SciTegic.value.DoubleValue
53.213

@<SCITEGIC>MOL_PROPERTY
W
SciTegic.value.DoubleValue
-52.465

@<SCITEGIC>MOL_PROPERTY
W(PB)
SciTegic.value.DoubleValue
-54.907

@<SCITEGIC>MOL_PROPERTY
W(SA)
SciTegic.value.DoubleValue
2.442

@<SCITEGIC>MOL_PROPERTY
Valence
SciTegic.value.DoubleValue
5.781

@<SCITEGIC>MOL_PROPERTY
Coulomb
SciTegic.value.DoubleValue
46.780

@<SCITEGIC>MOL_PROPERTY
VdW
SciTegic.value.DoubleValue
0.652

@<SCITEGIC>MOL_PROPERTY
VdW6
SciTegic.value.DoubleValue
-10.174

@<SCITEGIC>MOL_PROPERTY
VdW12
SciTegic.value.DoubleValue
10.826

@<SCITEGIC>MOL_PROPERTY
Bond
SciTegic.value.DoubleValue
0.293

@<SCITEGIC>MOL_PROPERTY
Angle
SciTegic.value.DoubleValue
1.657

@<SCITEGIC>MOL_PROPERTY
Pdih
SciTegic.value.DoubleValue
3.831

@<SCITEGIC>MOL_PROPERTY
Idih
SciTegic.value.DoubleValue
0.000

@<SCITEGIC>MOL_PROPERTY
Tether
SciTegic.value.DoubleValue
0.000

@<TRIPOS>MOLECULE
guest-3_vm2.mol2 : vm2 ligand conformer 381
          29          28           1
SMALL
USER_CHARGES
 
@<TRIPOS>ATOM
       1    C1      20.770797   18.286282   21.007533 C.3        1 MOL1        -0.2427
       2    H1      21.305422   18.973934   21.673646 H          1 MOL1         0.0958
       3    H2      21.341625   17.349545   20.969574 H          1 MOL1         0.0958
       4    H3      20.770323   18.720055   19.999196 H          1 MOL1         0.0958
       5    C2      19.328222   18.022149   21.495844 C.3        1 MOL1        -0.1412
       6    H4      19.340331   17.569388   22.495287 H          1 MOL1         0.0947
       7    H5      18.868240   17.272821   20.836682 H          1 MOL1         0.0947
       8    C3      18.438585   19.289122   21.492518 C.3        1 MOL1        -0.1437
       9    H6      18.374981   19.668566   20.463401 H          1 MOL1         0.0947
      10    H7      17.414208   19.001504   21.766336 H          1 MOL1         0.0947
      11    C4      18.898135   20.448024   22.417975 C.3        1 MOL1        -0.1437
      12    H8      18.211748   21.288885   22.247482 H          1 MOL1         0.0947
      13    H9      19.887078   20.817635   22.116728 H          1 MOL1         0.0947
      14    C5      18.875201   20.119263   23.934015 C.3        1 MOL1        -0.1437
      15    H10     18.585222   21.028871   24.477938 H          1 MOL1         0.0947
      16    H11     18.090705   19.379467   24.140843 H          1 MOL1         0.0947
      17    C6      20.242194   19.644147   24.489926 C.3        1 MOL1        -0.1437
      18    H12     21.006969   20.396872   24.254291 H          1 MOL1         0.0947
      19    H13     20.560156   18.718207   23.997445 H          1 MOL1         0.0947
      20    C7      20.225717   19.420153   26.019996 C.3        1 MOL1        -0.1477
      21    H14     21.243560   19.181728   26.356253 H          1 MOL1         0.0947
      22    H15     19.936657   20.350336   26.527115 H          1 MOL1         0.0947
      23    C8      19.277079   18.282756   26.442126 C.3        1 MOL1         0.0145
      24    H16     19.566044   17.356544   25.938163 H          1 MOL1         0.0921
      25    H17     18.252316   18.528067   26.151799 H          1 MOL1         0.0921
      26    N1      19.288070   18.026105   27.935068 N.4        1 MOL1        -0.5969
      27    H18     20.220552   17.762224   28.270176 H          1 MOL1         0.3603
      28    H19     18.650455   17.265764   28.195750 H          1 MOL1         0.3603
      29    H20     18.999259   18.853986   28.466728 H          1 MOL1         0.3603
@<TRIPOS>BOND
    1     1     2    1
    2     1     3    1
    3     1     4    1
    4     1     5    1
    5     5     6    1
    6     5     7    1
    7     5     8    1
    8     8     9    1
    9     8    10    1
   10     8    11    1
   11    11    12    1
   12    11    13    1
   13    11    14    1
   14    14    15    1
   15    14    16    1
   16    14    17    1
   17    17    18    1
   18    17    19    1
   19    17    20    1
   20    20    21    1
   21    20    22    1
   22    20    23    1
   23    23    24    1
   24    23    25    1
   25    23    26    1
   26    26    27    1
   27    26    28    1
   28    26    29    1
@<TRIPOS>SUBSTRUCTURE
       1 MOL1            1 RESIDUE      1      MOL     
@<SCITEGIC>MOL_PROPERTY
VM2 Rank
SciTegic.value.IntegerValue
381

@<SCITEGIC>MOL_PROPERTY
Conf_Id
SciTegic.value.IntegerValue
978

@<SCITEGIC>MOL_PROPERTY
Probability
SciTegic.value.DoubleValue
0.00

@<SCITEGIC>MOL_PROPERTY
Sum Probability
SciTegic.value.DoubleValue
99.93

@<SCITEGIC>MOL_PROPERTY
Delta G
SciTegic.value.DoubleValue
4.593

@<SCITEGIC>MOL_PROPERTY
G
SciTegic.value.DoubleValue
62.739

@<SCITEGIC>MOL_PROPERTY
E
SciTegic.value.DoubleValue
24.647

@<SCITEGIC>MOL_PROPERTY
-TS
SciTegic.value.DoubleValue
38.092

@<SCITEGIC>MOL_PROPERTY
U+W
SciTegic.value.DoubleValue
0.502

@<SCITEGIC>MOL_PROPERTY
U
SciTegic.value.DoubleValue
52.578

@<SCITEGIC>MOL_PROPERTY
W
SciTegic.value.DoubleValue
-52.076

@<SCITEGIC>MOL_PROPERTY
W(PB)
SciTegic.value.DoubleValue
-54.478

@<SCITEGIC>MOL_PROPERTY
W(SA)
SciTegic.value.DoubleValue
2.402

@<SCITEGIC>MOL_PROPERTY
Valence
SciTegic.value.DoubleValue
6.481

@<SCITEGIC>MOL_PROPERTY
Coulomb
SciTegic.value.DoubleValue
45.487

@<SCITEGIC>MOL_PROPERTY
VdW
SciTegic.value.DoubleValue
0.611

@<SCITEGIC>MOL_PROPERTY
VdW6
SciTegic.value.DoubleValue
-10.291

@<SCITEGIC>MOL_PROPERTY
VdW12
SciTegic.value.DoubleValue
10.902

@<SCITEGIC>MOL_PROPERTY
Bond
SciTegic.value.DoubleValue
0.300

@<SCITEGIC>MOL_PROPERTY
Angle
SciTegic.value.DoubleValue
1.868

@<SCITEGIC>MOL_PROPERTY
Pdih
SciTegic.value.DoubleValue
4.312

@<SCITEGIC>MOL_PROPERTY
Idih
SciTegic.value.DoubleValue
0.000

@<SCITEGIC>MOL_PROPERTY
Tether
SciTegic.value.DoubleValue
0.000

@<TRIPOS>MOLECULE
guest-3_vm2.mol2 : vm2 ligand conformer 382
          29          28           1
SMALL
USER_CHARGES
 
@<TRIPOS>ATOM
       1    C1      20.431556   18.057801   20.270771 C.3        1 MOL1        -0.2427
       2    H1      20.723418   17.586407   21.215764 H          1 MOL1         0.0958
       3    H2      20.212131   17.257142   19.552659 H          1 MOL1         0.0958
       4    H3      21.296804   18.617038   19.891740 H          1 MOL1         0.0958
       5    C2      19.205886   18.985996   20.437567 C.3        1 MOL1        -0.1412
       6    H4      18.323950   18.404311   20.739858 H          1 MOL1         0.0947
       7    H5      18.965146   19.409307   19.452317 H          1 MOL1         0.0947
       8    C3      19.449886   20.151433   21.430574 C.3        1 MOL1        -0.1437
       9    H6      20.516413   20.414391   21.453539 H          1 MOL1         0.0947
      10    H7      18.934550   21.042046   21.045080 H          1 MOL1         0.0947
      11    C4      18.932723   19.901050   22.870904 C.3        1 MOL1        -0.1437
      12    H8      17.845453   19.745595   22.845285 H          1 MOL1         0.0947
      13    H9      19.097123   20.819558   23.447744 H          1 MOL1         0.0947
      14    C5      19.605672   18.705883   23.590311 C.3        1 MOL1        -0.1437
      15    H10     19.373065   17.783966   23.042450 H          1 MOL1         0.0947
      16    H11     20.697974   18.820629   23.565101 H          1 MOL1         0.0947
      17    C6      19.135485   18.515829   25.053670 C.3        1 MOL1        -0.1437
      18    H12     19.520251   17.551678   25.411309 H          1 MOL1         0.0947
      19    H13     18.039632   18.440214   25.081891 H          1 MOL1         0.0947
      20    C7      19.608403   19.640008   26.009642 C.3        1 MOL1        -0.1477
      21    H14     20.701399   19.736113   25.966260 H          1 MOL1         0.0947
      22    H15     19.195208   20.603456   25.687544 H          1 MOL1         0.0947
      23    C8      19.171456   19.401515   27.467953 C.3        1 MOL1         0.0145
      24    H16     18.085252   19.285069   27.512553 H          1 MOL1         0.0921
      25    H17     19.446705   20.268446   28.074750 H          1 MOL1         0.0921
      26    N1      19.802933   18.178484   28.103608 N.4        1 MOL1        -0.5969
      27    H18     19.502220   18.057233   29.076982 H          1 MOL1         0.3603
      28    H19     20.826414   18.239429   28.111348 H          1 MOL1         0.3603
      29    H20     19.553999   17.319513   27.603252 H          1 MOL1         0.3603
@<TRIPOS>BOND
    1     1     2    1
    2     1     3    1
    3     1     4    1
    4     1     5    1
    5     5     6    1
    6     5     7    1
    7     5     8    1
    8     8     9    1
    9     8    10    1
   10     8    11    1
   11    11    12    1
   12    11    13    1
   13    11    14    1
   14    14    15    1
   15    14    16    1
   16    14    17    1
   17    17    18    1
   18    17    19    1
   19    17    20    1
   20    20    21    1
   21    20    22    1
   22    20    23    1
   23    23    24    1
   24    23    25    1
   25    23    26    1
   26    26    27    1
   27    26    28    1
   28    26    29    1
@<TRIPOS>SUBSTRUCTURE
       1 MOL1            1 RESIDUE      1      MOL     
@<SCITEGIC>MOL_PROPERTY
VM2 Rank
SciTegic.value.IntegerValue
382

@<SCITEGIC>MOL_PROPERTY
Conf_Id
SciTegic.value.IntegerValue
260

@<SCITEGIC>MOL_PROPERTY
Probability
SciTegic.value.DoubleValue
0.00

@<SCITEGIC>MOL_PROPERTY
Sum Probability
SciTegic.value.DoubleValue
99.93

@<SCITEGIC>MOL_PROPERTY
Delta G
SciTegic.value.DoubleValue
4.599

@<SCITEGIC>MOL_PROPERTY
G
SciTegic.value.DoubleValue
62.745

@<SCITEGIC>MOL_PROPERTY
E
SciTegic.value.DoubleValue
25.098

@<SCITEGIC>MOL_PROPERTY
-TS
SciTegic.value.DoubleValue
37.648

@<SCITEGIC>MOL_PROPERTY
U+W
SciTegic.value.DoubleValue
0.953

@<SCITEGIC>MOL_PROPERTY
U
SciTegic.value.DoubleValue
52.563

@<SCITEGIC>MOL_PROPERTY
W
SciTegic.value.DoubleValue
-51.609

@<SCITEGIC>MOL_PROPERTY
W(PB)
SciTegic.value.DoubleValue
-54.113

@<SCITEGIC>MOL_PROPERTY
W(SA)
SciTegic.value.DoubleValue
2.503

@<SCITEGIC>MOL_PROPERTY
Valence
SciTegic.value.DoubleValue
6.391

@<SCITEGIC>MOL_PROPERTY
Coulomb
SciTegic.value.DoubleValue
44.996

@<SCITEGIC>MOL_PROPERTY
VdW
SciTegic.value.DoubleValue
1.177

@<SCITEGIC>MOL_PROPERTY
VdW6
SciTegic.value.DoubleValue
-9.539

@<SCITEGIC>MOL_PROPERTY
VdW12
SciTegic.value.DoubleValue
10.715

@<SCITEGIC>MOL_PROPERTY
Bond
SciTegic.value.DoubleValue
0.302

@<SCITEGIC>MOL_PROPERTY
Angle
SciTegic.value.DoubleValue
1.557

@<SCITEGIC>MOL_PROPERTY
Pdih
SciTegic.value.DoubleValue
4.532

@<SCITEGIC>MOL_PROPERTY
Idih
SciTegic.value.DoubleValue
0.000

@<SCITEGIC>MOL_PROPERTY
Tether
SciTegic.value.DoubleValue
0.000

@<TRIPOS>MOLECULE
guest-3_vm2.mol2 : vm2 ligand conformer 383
          29          28           1
SMALL
USER_CHARGES
 
@<TRIPOS>ATOM
       1    C1      21.096786   18.499978   21.362282 C.3        1 MOL1        -0.2427
       2    H1      21.678497   19.425961   21.267300 H          1 MOL1         0.0958
       3    H2      21.068593   18.223727   22.421497 H          1 MOL1         0.0958
       4    H3      21.641175   17.709093   20.830338 H          1 MOL1         0.0958
       5    C2      19.680216   18.672767   20.766772 C.3        1 MOL1        -0.1412
       6    H4      19.118113   17.731525   20.841052 H          1 MOL1         0.0947
       7    H5      19.790383   18.874249   19.692014 H          1 MOL1         0.0947
       8    C3      18.872104   19.834432   21.401309 C.3        1 MOL1        -0.1437
       9    H6      19.543237   20.647288   21.707734 H          1 MOL1         0.0947
      10    H7      18.236637   20.267303   20.616400 H          1 MOL1         0.0947
      11    C4      17.935481   19.420291   22.568704 C.3        1 MOL1        -0.1437
      12    H8      17.209734   18.685737   22.193472 H          1 MOL1         0.0947
      13    H9      17.342935   20.295443   22.868862 H          1 MOL1         0.0947
      14    C5      18.624793   18.834936   23.826173 C.3        1 MOL1        -0.1437
      15    H10     17.838755   18.539657   24.533568 H          1 MOL1         0.0947
      16    H11     19.153327   17.909618   23.565581 H          1 MOL1         0.0947
      17    C6      19.588583   19.830122   24.521198 C.3        1 MOL1        -0.1437
      18    H12     19.038820   20.736882   24.808875 H          1 MOL1         0.0947
      19    H13     20.365211   20.150504   23.815443 H          1 MOL1         0.0947
      20    C7      20.283050   19.230461   25.766250 C.3        1 MOL1        -0.1477
      21    H14     20.847397   18.333758   25.477500 H          1 MOL1         0.0947
      22    H15     21.015804   19.953900   26.147834 H          1 MOL1         0.0947
      23    C8      19.291570   18.879097   26.891134 C.3        1 MOL1         0.0145
      24    H16     18.584004   18.124090   26.539175 H          1 MOL1         0.0921
      25    H17     18.729303   19.771786   27.178032 H          1 MOL1         0.0921
      26    N1      19.971419   18.335916   28.131176 N.4        1 MOL1        -0.5969
      27    H18     20.497566   17.478306   27.933426 H          1 MOL1         0.3603
      28    H19     19.294633   18.108500   28.867983 H          1 MOL1         0.3603
      29    H20     20.632363   19.010526   28.530565 H          1 MOL1         0.3603
@<TRIPOS>BOND
    1     1     2    1
    2     1     3    1
    3     1     4    1
    4     1     5    1
    5     5     6    1
    6     5     7    1
    7     5     8    1
    8     8     9    1
    9     8    10    1
   10     8    11    1
   11    11    12    1
   12    11    13    1
   13    11    14    1
   14    14    15    1
   15    14    16    1
   16    14    17    1
   17    17    18    1
   18    17    19    1
   19    17    20    1
   20    20    21    1
   21    20    22    1
   22    20    23    1
   23    23    24    1
   24    23    25    1
   25    23    26    1
   26    26    27    1
   27    26    28    1
   28    26    29    1
@<TRIPOS>SUBSTRUCTURE
       1 MOL1            1 RESIDUE      1      MOL     
@<SCITEGIC>MOL_PROPERTY
VM2 Rank
SciTegic.value.IntegerValue
383

@<SCITEGIC>MOL_PROPERTY
Conf_Id
SciTegic.value.IntegerValue
841

@<SCITEGIC>MOL_PROPERTY
Probability
SciTegic.value.DoubleValue
0.00

@<SCITEGIC>MOL_PROPERTY
Sum Probability
SciTegic.value.DoubleValue
99.93

@<SCITEGIC>MOL_PROPERTY
Delta G
SciTegic.value.DoubleValue
4.606

@<SCITEGIC>MOL_PROPERTY
G
SciTegic.value.DoubleValue
62.752

@<SCITEGIC>MOL_PROPERTY
E
SciTegic.value.DoubleValue
24.631

@<SCITEGIC>MOL_PROPERTY
-TS
SciTegic.value.DoubleValue
38.121

@<SCITEGIC>MOL_PROPERTY
U+W
SciTegic.value.DoubleValue
0.487

@<SCITEGIC>MOL_PROPERTY
U
SciTegic.value.DoubleValue
52.469

@<SCITEGIC>MOL_PROPERTY
W
SciTegic.value.DoubleValue
-51.982

@<SCITEGIC>MOL_PROPERTY
W(PB)
SciTegic.value.DoubleValue
-54.381

@<SCITEGIC>MOL_PROPERTY
W(SA)
SciTegic.value.DoubleValue
2.399

@<SCITEGIC>MOL_PROPERTY
Valence
SciTegic.value.DoubleValue
6.500

@<SCITEGIC>MOL_PROPERTY
Coulomb
SciTegic.value.DoubleValue
45.340

@<SCITEGIC>MOL_PROPERTY
VdW
SciTegic.value.DoubleValue
0.629

@<SCITEGIC>MOL_PROPERTY
VdW6
SciTegic.value.DoubleValue
-10.352

@<SCITEGIC>MOL_PROPERTY
VdW12
SciTegic.value.DoubleValue
10.981

@<SCITEGIC>MOL_PROPERTY
Bond
SciTegic.value.DoubleValue
0.305

@<SCITEGIC>MOL_PROPERTY
Angle
SciTegic.value.DoubleValue
1.982

@<SCITEGIC>MOL_PROPERTY
Pdih
SciTegic.value.DoubleValue
4.214

@<SCITEGIC>MOL_PROPERTY
Idih
SciTegic.value.DoubleValue
0.000

@<SCITEGIC>MOL_PROPERTY
Tether
SciTegic.value.DoubleValue
0.000

@<TRIPOS>MOLECULE
guest-3_vm2.mol2 : vm2 ligand conformer 384
          29          28           1
SMALL
USER_CHARGES
 
@<TRIPOS>ATOM
       1    C1      20.950153   18.123452   20.462894 C.3        1 MOL1        -0.2427
       2    H1      21.506297   18.949204   20.000241 H          1 MOL1         0.0958
       3    H2      21.656623   17.304021   20.648457 H          1 MOL1         0.0958
       4    H3      20.202925   17.767730   19.741531 H          1 MOL1         0.0958
       5    C2      20.280071   18.573411   21.778333 C.3        1 MOL1        -0.1412
       6    H4      21.052812   18.898973   22.488508 H          1 MOL1         0.0947
       7    H5      19.768181   17.711847   22.226558 H          1 MOL1         0.0947
       8    C3      19.270484   19.719324   21.541006 C.3        1 MOL1        -0.1437
       9    H6      19.766568   20.519419   20.974421 H          1 MOL1         0.0947
      10    H7      18.450896   19.358025   20.904677 H          1 MOL1         0.0947
      11    C4      18.684730   20.335136   22.837783 C.3        1 MOL1        -0.1437
      12    H8      18.028752   21.164767   22.540104 H          1 MOL1         0.0947
      13    H9      19.488568   20.794385   23.426014 H          1 MOL1         0.0947
      14    C5      17.851046   19.351850   23.704205 C.3        1 MOL1        -0.1437
      15    H10     17.005931   19.897920   24.145592 H          1 MOL1         0.0947
      16    H11     17.398832   18.588253   23.056542 H          1 MOL1         0.0947
      17    C6      18.635263   18.660606   24.850237 C.3        1 MOL1        -0.1437
      18    H12     19.534294   18.174363   24.455728 H          1 MOL1         0.0947
      19    H13     18.008119   17.857856   25.262160 H          1 MOL1         0.0947
      20    C7      19.017842   19.626955   25.999647 C.3        1 MOL1        -0.1477
      21    H14     19.704104   20.404114   25.641701 H          1 MOL1         0.0947
      22    H15     18.116756   20.144323   26.354691 H          1 MOL1         0.0947
      23    C8      19.662010   18.898041   27.194385 C.3        1 MOL1         0.0145
      24    H16     18.985906   18.120210   27.559391 H          1 MOL1         0.0921
      25    H17     19.831806   19.610953   28.005832 H          1 MOL1         0.0921
      26    N1      20.992401   18.249225   26.866510 N.4        1 MOL1        -0.5969
      27    H18     20.897480   17.539798   26.133200 H          1 MOL1         0.3603
      28    H19     21.400217   17.783562   27.684708 H          1 MOL1         0.3603
      29    H20     21.679660   18.935782   26.538648 H          1 MOL1         0.3603
@<TRIPOS>BOND
    1     1     2    1
    2     1     3    1
    3     1     4    1
    4     1     5    1
    5     5     6    1
    6     5     7    1
    7     5     8    1
    8     8     9    1
    9     8    10    1
   10     8    11    1
   11    11    12    1
   12    11    13    1
   13    11    14    1
   14    14    15    1
   15    14    16    1
   16    14    17    1
   17    17    18    1
   18    17    19    1
   19    17    20    1
   20    20    21    1
   21    20    22    1
   22    20    23    1
   23    23    24    1
   24    23    25    1
   25    23    26    1
   26    26    27    1
   27    26    28    1
   28    26    29    1
@<TRIPOS>SUBSTRUCTURE
       1 MOL1            1 RESIDUE      1      MOL     
@<SCITEGIC>MOL_PROPERTY
VM2 Rank
SciTegic.value.IntegerValue
384

@<SCITEGIC>MOL_PROPERTY
Conf_Id
SciTegic.value.IntegerValue
2879

@<SCITEGIC>MOL_PROPERTY
Probability
SciTegic.value.DoubleValue
0.00

@<SCITEGIC>MOL_PROPERTY
Sum Probability
SciTegic.value.DoubleValue
99.94

@<SCITEGIC>MOL_PROPERTY
Delta G
SciTegic.value.DoubleValue
4.613

@<SCITEGIC>MOL_PROPERTY
G
SciTegic.value.DoubleValue
62.759

@<SCITEGIC>MOL_PROPERTY
E
SciTegic.value.DoubleValue
25.057

@<SCITEGIC>MOL_PROPERTY
-TS
SciTegic.value.DoubleValue
37.702

@<SCITEGIC>MOL_PROPERTY
U+W
SciTegic.value.DoubleValue
0.913

@<SCITEGIC>MOL_PROPERTY
U
SciTegic.value.DoubleValue
53.508

@<SCITEGIC>MOL_PROPERTY
W
SciTegic.value.DoubleValue
-52.595

@<SCITEGIC>MOL_PROPERTY
W(PB)
SciTegic.value.DoubleValue
-55.025

@<SCITEGIC>MOL_PROPERTY
W(SA)
SciTegic.value.DoubleValue
2.430

@<SCITEGIC>MOL_PROPERTY
Valence
SciTegic.value.DoubleValue
6.434

@<SCITEGIC>MOL_PROPERTY
Coulomb
SciTegic.value.DoubleValue
46.137

@<SCITEGIC>MOL_PROPERTY
VdW
SciTegic.value.DoubleValue
0.938

@<SCITEGIC>MOL_PROPERTY
VdW6
SciTegic.value.DoubleValue
-9.756

@<SCITEGIC>MOL_PROPERTY
VdW12
SciTegic.value.DoubleValue
10.693

@<SCITEGIC>MOL_PROPERTY
Bond
SciTegic.value.DoubleValue
0.309

@<SCITEGIC>MOL_PROPERTY
Angle
SciTegic.value.DoubleValue
1.511

@<SCITEGIC>MOL_PROPERTY
Pdih
SciTegic.value.DoubleValue
4.614

@<SCITEGIC>MOL_PROPERTY
Idih
SciTegic.value.DoubleValue
0.000

@<SCITEGIC>MOL_PROPERTY
Tether
SciTegic.value.DoubleValue
0.000

@<TRIPOS>MOLECULE
guest-3_vm2.mol2 : vm2 ligand conformer 385
          29          28           1
SMALL
USER_CHARGES
 
@<TRIPOS>ATOM
       1    C1      21.195038   18.356355   21.953559 C.3        1 MOL1        -0.2427
       2    H1      21.085755   17.307991   22.259771 H          1 MOL1         0.0958
       3    H2      22.159273   18.453403   21.438143 H          1 MOL1         0.0958
       4    H3      21.243662   18.971931   22.857769 H          1 MOL1         0.0958
       5    C2      20.039838   18.783567   21.018453 C.3        1 MOL1        -0.1412
       6    H4      20.108657   18.179177   20.103134 H          1 MOL1         0.0947
       7    H5      20.172471   19.827211   20.701243 H          1 MOL1         0.0947
       8    C3      18.629426   18.581862   21.631192 C.3        1 MOL1        -0.1437
       9    H6      17.943528   18.323672   20.812561 H          1 MOL1         0.0947
      10    H7      18.621108   17.710087   22.298284 H          1 MOL1         0.0947
      11    C4      18.038831   19.828966   22.343622 C.3        1 MOL1        -0.1437
      12    H8      17.005146   19.604590   22.640676 H          1 MOL1         0.0947
      13    H9      17.966780   20.649430   21.616510 H          1 MOL1         0.0947
      14    C5      18.810989   20.336239   23.586581 C.3        1 MOL1        -0.1437
      15    H10     19.818382   20.658049   23.294767 H          1 MOL1         0.0947
      16    H11     18.307130   21.238510   23.959606 H          1 MOL1         0.0947
      17    C6      18.886668   19.298490   24.732202 C.3        1 MOL1        -0.1437
      18    H12     19.401114   18.395545   24.382442 H          1 MOL1         0.0947
      19    H13     17.870124   18.994693   25.017850 H          1 MOL1         0.0947
      20    C7      19.622302   19.865775   25.968883 C.3        1 MOL1        -0.1477
      21    H14     20.646723   20.153867   25.697764 H          1 MOL1         0.0947
      22    H15     19.117403   20.781499   26.304182 H          1 MOL1         0.0947
      23    C8      19.662096   18.871780   27.145378 C.3        1 MOL1         0.0145
      24    H16     18.644003   18.574608   27.410986 H          1 MOL1         0.0921
      25    H17     20.113848   19.356888   28.014924 H          1 MOL1         0.0921
      26    N1      20.458812   17.614965   26.855129 N.4        1 MOL1        -0.5969
      27    H18     20.064635   17.089582   26.068591 H          1 MOL1         0.3603
      28    H19     20.476301   16.981237   27.661788 H          1 MOL1         0.3603
      29    H20     21.433752   17.828627   26.620483 H          1 MOL1         0.3603
@<TRIPOS>BOND
    1     1     2    1
    2     1     3    1
    3     1     4    1
    4     1     5    1
    5     5     6    1
    6     5     7    1
    7     5     8    1
    8     8     9    1
    9     8    10    1
   10     8    11    1
   11    11    12    1
   12    11    13    1
   13    11    14    1
   14    14    15    1
   15    14    16    1
   16    14    17    1
   17    17    18    1
   18    17    19    1
   19    17    20    1
   20    20    21    1
   21    20    22    1
   22    20    23    1
   23    23    24    1
   24    23    25    1
   25    23    26    1
   26    26    27    1
   27    26    28    1
   28    26    29    1
@<TRIPOS>SUBSTRUCTURE
       1 MOL1            1 RESIDUE      1      MOL     
@<SCITEGIC>MOL_PROPERTY
VM2 Rank
SciTegic.value.IntegerValue
385

@<SCITEGIC>MOL_PROPERTY
Conf_Id
SciTegic.value.IntegerValue
328

@<SCITEGIC>MOL_PROPERTY
Probability
SciTegic.value.DoubleValue
0.00

@<SCITEGIC>MOL_PROPERTY
Sum Probability
SciTegic.value.DoubleValue
99.94

@<SCITEGIC>MOL_PROPERTY
Delta G
SciTegic.value.DoubleValue
4.627

@<SCITEGIC>MOL_PROPERTY
G
SciTegic.value.DoubleValue
62.773

@<SCITEGIC>MOL_PROPERTY
E
SciTegic.value.DoubleValue
24.628

@<SCITEGIC>MOL_PROPERTY
-TS
SciTegic.value.DoubleValue
38.145

@<SCITEGIC>MOL_PROPERTY
U+W
SciTegic.value.DoubleValue
0.483

@<SCITEGIC>MOL_PROPERTY
U
SciTegic.value.DoubleValue
52.998

@<SCITEGIC>MOL_PROPERTY
W
SciTegic.value.DoubleValue
-52.515

@<SCITEGIC>MOL_PROPERTY
W(PB)
SciTegic.value.DoubleValue
-54.900

@<SCITEGIC>MOL_PROPERTY
W(SA)
SciTegic.value.DoubleValue
2.384

@<SCITEGIC>MOL_PROPERTY
Valence
SciTegic.value.DoubleValue
6.240

@<SCITEGIC>MOL_PROPERTY
Coulomb
SciTegic.value.DoubleValue
46.194

@<SCITEGIC>MOL_PROPERTY
VdW
SciTegic.value.DoubleValue
0.564

@<SCITEGIC>MOL_PROPERTY
VdW6
SciTegic.value.DoubleValue
-10.443

@<SCITEGIC>MOL_PROPERTY
VdW12
SciTegic.value.DoubleValue
11.007

@<SCITEGIC>MOL_PROPERTY
Bond
SciTegic.value.DoubleValue
0.299

@<SCITEGIC>MOL_PROPERTY
Angle
SciTegic.value.DoubleValue
1.873

@<SCITEGIC>MOL_PROPERTY
Pdih
SciTegic.value.DoubleValue
4.069

@<SCITEGIC>MOL_PROPERTY
Idih
SciTegic.value.DoubleValue
0.000

@<SCITEGIC>MOL_PROPERTY
Tether
SciTegic.value.DoubleValue
0.000

@<TRIPOS>MOLECULE
guest-3_vm2.mol2 : vm2 ligand conformer 386
          29          28           1
SMALL
USER_CHARGES
 
@<TRIPOS>ATOM
       1    C1      19.971211   18.634791   19.879358 C.3        1 MOL1        -0.2427
       2    H1      21.037740   18.880249   19.964628 H          1 MOL1         0.0958
       3    H2      19.841329   18.009585   18.986513 H          1 MOL1         0.0958
       4    H3      19.416013   19.565795   19.712048 H          1 MOL1         0.0958
       5    C2      19.470039   17.889938   21.137577 C.3        1 MOL1        -0.1412
       6    H4      19.965071   16.909962   21.186008 H          1 MOL1         0.0947
       7    H5      18.394150   17.686308   21.044256 H          1 MOL1         0.0947
       8    C3      19.747556   18.649459   22.457473 C.3        1 MOL1        -0.1437
       9    H6      19.493403   17.980077   23.288878 H          1 MOL1         0.0947
      10    H7      20.821949   18.863407   22.539543 H          1 MOL1         0.0947
      11    C4      18.937291   19.961858   22.597091 C.3        1 MOL1        -0.1437
      12    H8      17.863465   19.731120   22.572651 H          1 MOL1         0.0947
      13    H9      19.131313   20.606726   21.730725 H          1 MOL1         0.0947
      14    C5      19.259059   20.778715   23.875340 C.3        1 MOL1        -0.1437
      15    H10     20.305365   21.113289   23.854742 H          1 MOL1         0.0947
      16    H11     18.655487   21.696284   23.840966 H          1 MOL1         0.0947
      17    C6      18.951903   20.048757   25.208878 C.3        1 MOL1        -0.1437
      18    H12     18.143996   19.320891   25.057158 H          1 MOL1         0.0947
      19    H13     18.565792   20.785024   25.927517 H          1 MOL1         0.0947
      20    C7      20.196403   19.371623   25.837755 C.3        1 MOL1        -0.1477
      21    H14     20.634253   18.637347   25.152103 H          1 MOL1         0.0947
      22    H15     20.970315   20.131269   26.010341 H          1 MOL1         0.0947
      23    C8      19.881836   18.687720   27.181824 C.3        1 MOL1         0.0145
      24    H16     19.440764   19.413662   27.870181 H          1 MOL1         0.0921
      25    H17     20.809279   18.315996   27.625886 H          1 MOL1         0.0921
      26    N1      18.928702   17.515137   27.059705 N.4        1 MOL1        -0.5969
      27    H18     18.022139   17.801988   26.677617 H          1 MOL1         0.3603
      28    H19     18.746568   17.076990   27.969346 H          1 MOL1         0.3603
      29    H20     19.300955   16.784631   26.444226 H          1 MOL1         0.3603
@<TRIPOS>BOND
    1     1     2    1
    2     1     3    1
    3     1     4    1
    4     1     5    1
    5     5     6    1
    6     5     7    1
    7     5     8    1
    8     8     9    1
    9     8    10    1
   10     8    11    1
   11    11    12    1
   12    11    13    1
   13    11    14    1
   14    14    15    1
   15    14    16    1
   16    14    17    1
   17    17    18    1
   18    17    19    1
   19    17    20    1
   20    20    21    1
   21    20    22    1
   22    20    23    1
   23    23    24    1
   24    23    25    1
   25    23    26    1
   26    26    27    1
   27    26    28    1
   28    26    29    1
@<TRIPOS>SUBSTRUCTURE
       1 MOL1            1 RESIDUE      1      MOL     
@<SCITEGIC>MOL_PROPERTY
VM2 Rank
SciTegic.value.IntegerValue
386

@<SCITEGIC>MOL_PROPERTY
Conf_Id
SciTegic.value.IntegerValue
314

@<SCITEGIC>MOL_PROPERTY
Probability
SciTegic.value.DoubleValue
0.00

@<SCITEGIC>MOL_PROPERTY
Sum Probability
SciTegic.value.DoubleValue
99.94

@<SCITEGIC>MOL_PROPERTY
Delta G
SciTegic.value.DoubleValue
4.632

@<SCITEGIC>MOL_PROPERTY
G
SciTegic.value.DoubleValue
62.779

@<SCITEGIC>MOL_PROPERTY
E
SciTegic.value.DoubleValue
25.049

@<SCITEGIC>MOL_PROPERTY
-TS
SciTegic.value.DoubleValue
37.730

@<SCITEGIC>MOL_PROPERTY
U+W
SciTegic.value.DoubleValue
0.904

@<SCITEGIC>MOL_PROPERTY
U
SciTegic.value.DoubleValue
53.351

@<SCITEGIC>MOL_PROPERTY
W
SciTegic.value.DoubleValue
-52.447

@<SCITEGIC>MOL_PROPERTY
W(PB)
SciTegic.value.DoubleValue
-54.905

@<SCITEGIC>MOL_PROPERTY
W(SA)
SciTegic.value.DoubleValue
2.458

@<SCITEGIC>MOL_PROPERTY
Valence
SciTegic.value.DoubleValue
6.328

@<SCITEGIC>MOL_PROPERTY
Coulomb
SciTegic.value.DoubleValue
46.024

@<SCITEGIC>MOL_PROPERTY
VdW
SciTegic.value.DoubleValue
0.999

@<SCITEGIC>MOL_PROPERTY
VdW6
SciTegic.value.DoubleValue
-9.756

@<SCITEGIC>MOL_PROPERTY
VdW12
SciTegic.value.DoubleValue
10.755

@<SCITEGIC>MOL_PROPERTY
Bond
SciTegic.value.DoubleValue
0.298

@<SCITEGIC>MOL_PROPERTY
Angle
SciTegic.value.DoubleValue
1.517

@<SCITEGIC>MOL_PROPERTY
Pdih
SciTegic.value.DoubleValue
4.514

@<SCITEGIC>MOL_PROPERTY
Idih
SciTegic.value.DoubleValue
0.000

@<SCITEGIC>MOL_PROPERTY
Tether
SciTegic.value.DoubleValue
0.000

@<TRIPOS>MOLECULE
guest-3_vm2.mol2 : vm2 ligand conformer 387
          29          28           1
SMALL
USER_CHARGES
 
@<TRIPOS>ATOM
       1    C1      20.030293   20.485390   20.173632 C.3        1 MOL1        -0.2427
       2    H1      19.124641   20.515204   19.553857 H          1 MOL1         0.0958
       3    H2      20.398708   21.513844   20.281139 H          1 MOL1         0.0958
       4    H3      20.793831   19.908058   19.636098 H          1 MOL1         0.0958
       5    C2      19.737153   19.864468   21.555810 C.3        1 MOL1        -0.1412
       6    H4      18.990624   20.477225   22.079989 H          1 MOL1         0.0947
       7    H5      20.655985   19.888018   22.156324 H          1 MOL1         0.0947
       8    C3      19.227154   18.410735   21.431220 C.3        1 MOL1        -0.1437
       9    H6      18.381749   18.388574   20.729742 H          1 MOL1         0.0947
      10    H7      20.011716   17.785317   20.983442 H          1 MOL1         0.0947
      11    C4      18.764479   17.779420   22.769572 C.3        1 MOL1        -0.1437
      12    H8      18.377676   16.776036   22.544168 H          1 MOL1         0.0947
      13    H9      17.910251   18.340824   23.167574 H          1 MOL1         0.0947
      14    C5      19.883297   17.634766   23.837208 C.3        1 MOL1        -0.1437
      15    H10     19.733696   16.693596   24.384112 H          1 MOL1         0.0947
      16    H11     20.854646   17.529296   23.334790 H          1 MOL1         0.0947
      17    C6      19.956599   18.791258   24.868155 C.3        1 MOL1        -0.1437
      18    H12     19.982888   19.761056   24.357017 H          1 MOL1         0.0947
      19    H13     20.907545   18.703915   25.410019 H          1 MOL1         0.0947
      20    C7      18.790210   18.773870   25.888435 C.3        1 MOL1        -0.1477
      21    H14     17.830200   18.848224   25.363522 H          1 MOL1         0.0947
      22    H15     18.777229   17.817509   26.427835 H          1 MOL1         0.0947
      23    C8      18.871315   19.932109   26.901421 C.3        1 MOL1         0.0145
      24    H16     17.981312   19.921020   27.536484 H          1 MOL1         0.0921
      25    H17     18.898065   20.886288   26.368313 H          1 MOL1         0.0921
      26    N1      20.083500   19.865984   27.809548 N.4        1 MOL1        -0.5969
      27    H18     20.100072   20.642757   28.479558 H          1 MOL1         0.3603
      28    H19     20.958558   19.909025   27.277982 H          1 MOL1         0.3603
      29    H20     20.102550   18.998458   28.355734 H          1 MOL1         0.3603
@<TRIPOS>BOND
    1     1     2    1
    2     1     3    1
    3     1     4    1
    4     1     5    1
    5     5     6    1
    6     5     7    1
    7     5     8    1
    8     8     9    1
    9     8    10    1
   10     8    11    1
   11    11    12    1
   12    11    13    1
   13    11    14    1
   14    14    15    1
   15    14    16    1
   16    14    17    1
   17    17    18    1
   18    17    19    1
   19    17    20    1
   20    20    21    1
   21    20    22    1
   22    20    23    1
   23    23    24    1
   24    23    25    1
   25    23    26    1
   26    26    27    1
   27    26    28    1
   28    26    29    1
@<TRIPOS>SUBSTRUCTURE
       1 MOL1            1 RESIDUE      1      MOL     
@<SCITEGIC>MOL_PROPERTY
VM2 Rank
SciTegic.value.IntegerValue
387

@<SCITEGIC>MOL_PROPERTY
Conf_Id
SciTegic.value.IntegerValue
1045

@<SCITEGIC>MOL_PROPERTY
Probability
SciTegic.value.DoubleValue
0.00

@<SCITEGIC>MOL_PROPERTY
Sum Probability
SciTegic.value.DoubleValue
99.94

@<SCITEGIC>MOL_PROPERTY
Delta G
SciTegic.value.DoubleValue
4.640

@<SCITEGIC>MOL_PROPERTY
G
SciTegic.value.DoubleValue
62.786

@<SCITEGIC>MOL_PROPERTY
E
SciTegic.value.DoubleValue
25.048

@<SCITEGIC>MOL_PROPERTY
-TS
SciTegic.value.DoubleValue
37.738

@<SCITEGIC>MOL_PROPERTY
U+W
SciTegic.value.DoubleValue
0.903

@<SCITEGIC>MOL_PROPERTY
U
SciTegic.value.DoubleValue
52.921

@<SCITEGIC>MOL_PROPERTY
W
SciTegic.value.DoubleValue
-52.018

@<SCITEGIC>MOL_PROPERTY
W(PB)
SciTegic.value.DoubleValue
-54.481

@<SCITEGIC>MOL_PROPERTY
W(SA)
SciTegic.value.DoubleValue
2.463

@<SCITEGIC>MOL_PROPERTY
Valence
SciTegic.value.DoubleValue
6.490

@<SCITEGIC>MOL_PROPERTY
Coulomb
SciTegic.value.DoubleValue
45.404

@<SCITEGIC>MOL_PROPERTY
VdW
SciTegic.value.DoubleValue
1.027

@<SCITEGIC>MOL_PROPERTY
VdW6
SciTegic.value.DoubleValue
-9.651

@<SCITEGIC>MOL_PROPERTY
VdW12
SciTegic.value.DoubleValue
10.678

@<SCITEGIC>MOL_PROPERTY
Bond
SciTegic.value.DoubleValue
0.307

@<SCITEGIC>MOL_PROPERTY
Angle
SciTegic.value.DoubleValue
1.468

@<SCITEGIC>MOL_PROPERTY
Pdih
SciTegic.value.DoubleValue
4.715

@<SCITEGIC>MOL_PROPERTY
Idih
SciTegic.value.DoubleValue
0.000

@<SCITEGIC>MOL_PROPERTY
Tether
SciTegic.value.DoubleValue
0.000

@<TRIPOS>MOLECULE
guest-3_vm2.mol2 : vm2 ligand conformer 388
          29          28           1
SMALL
USER_CHARGES
 
@<TRIPOS>ATOM
       1    C1      21.123398   18.574491   21.364239 C.3        1 MOL1        -0.2427
       2    H1      20.990543   17.493930   21.224265 H          1 MOL1         0.0958
       3    H2      22.052571   18.863929   20.856613 H          1 MOL1         0.0958
       4    H3      21.260975   18.764024   22.433909 H          1 MOL1         0.0958
       5    C2      19.924886   19.359418   20.782331 C.3        1 MOL1        -0.1412
       6    H4      19.898309   19.176606   19.698952 H          1 MOL1         0.0947
       7    H5      20.082874   20.440223   20.901972 H          1 MOL1         0.0947
       8    C3      18.555603   18.945495   21.381396 C.3        1 MOL1        -0.1437
       9    H6      17.800836   19.043060   20.588877 H          1 MOL1         0.0947
      10    H7      18.557816   17.880056   21.645765 H          1 MOL1         0.0947
      11    C4      18.074688   19.811464   22.577389 C.3        1 MOL1        -0.1437
      12    H8      17.058305   19.496366   22.850840 H          1 MOL1         0.0947
      13    H9      17.981567   20.853505   22.241894 H          1 MOL1         0.0947
      14    C5      18.960872   19.779264   23.847292 C.3        1 MOL1        -0.1437
      15    H10     19.958785   20.172015   23.616238 H          1 MOL1         0.0947
      16    H11     18.528166   20.476391   24.576834 H          1 MOL1         0.0947
      17    C6      19.069249   18.372398   24.488640 C.3        1 MOL1        -0.1437
      18    H12     19.478594   17.661663   23.759821 H          1 MOL1         0.0947
      19    H13     18.066239   18.006433   24.747965 H          1 MOL1         0.0947
      20    C7      19.968868   18.348479   25.746474 C.3        1 MOL1        -0.1477
      21    H14     20.074163   17.310394   26.088811 H          1 MOL1         0.0947
      22    H15     20.976880   18.697328   25.485403 H          1 MOL1         0.0947
      23    C8      19.406856   19.202554   26.898234 C.3        1 MOL1         0.0145
      24    H16     18.403029   18.855568   27.157615 H          1 MOL1         0.0921
      25    H17     19.340587   20.247970   26.586349 H          1 MOL1         0.0921
      26    N1      20.259579   19.144438   28.149005 N.4        1 MOL1        -0.5969
      27    H18     20.339847   18.188847   28.512129 H          1 MOL1         0.3603
      28    H19     19.868549   19.719078   28.903675 H          1 MOL1         0.3603
      29    H20     21.212007   19.483553   27.977803 H          1 MOL1         0.3603
@<TRIPOS>BOND
    1     1     2    1
    2     1     3    1
    3     1     4    1
    4     1     5    1
    5     5     6    1
    6     5     7    1
    7     5     8    1
    8     8     9    1
    9     8    10    1
   10     8    11    1
   11    11    12    1
   12    11    13    1
   13    11    14    1
   14    14    15    1
   15    14    16    1
   16    14    17    1
   17    17    18    1
   18    17    19    1
   19    17    20    1
   20    20    21    1
   21    20    22    1
   22    20    23    1
   23    23    24    1
   24    23    25    1
   25    23    26    1
   26    26    27    1
   27    26    28    1
   28    26    29    1
@<TRIPOS>SUBSTRUCTURE
       1 MOL1            1 RESIDUE      1      MOL     
@<SCITEGIC>MOL_PROPERTY
VM2 Rank
SciTegic.value.IntegerValue
388

@<SCITEGIC>MOL_PROPERTY
Conf_Id
SciTegic.value.IntegerValue
139

@<SCITEGIC>MOL_PROPERTY
Probability
SciTegic.value.DoubleValue
0.00

@<SCITEGIC>MOL_PROPERTY
Sum Probability
SciTegic.value.DoubleValue
99.94

@<SCITEGIC>MOL_PROPERTY
Delta G
SciTegic.value.DoubleValue
4.663

@<SCITEGIC>MOL_PROPERTY
G
SciTegic.value.DoubleValue
62.809

@<SCITEGIC>MOL_PROPERTY
E
SciTegic.value.DoubleValue
24.689

@<SCITEGIC>MOL_PROPERTY
-TS
SciTegic.value.DoubleValue
38.120

@<SCITEGIC>MOL_PROPERTY
U+W
SciTegic.value.DoubleValue
0.545

@<SCITEGIC>MOL_PROPERTY
U
SciTegic.value.DoubleValue
52.469

@<SCITEGIC>MOL_PROPERTY
W
SciTegic.value.DoubleValue
-51.924

@<SCITEGIC>MOL_PROPERTY
W(PB)
SciTegic.value.DoubleValue
-54.343

@<SCITEGIC>MOL_PROPERTY
W(SA)
SciTegic.value.DoubleValue
2.419

@<SCITEGIC>MOL_PROPERTY
Valence
SciTegic.value.DoubleValue
6.500

@<SCITEGIC>MOL_PROPERTY
Coulomb
SciTegic.value.DoubleValue
45.340

@<SCITEGIC>MOL_PROPERTY
VdW
SciTegic.value.DoubleValue
0.629

@<SCITEGIC>MOL_PROPERTY
VdW6
SciTegic.value.DoubleValue
-10.352

@<SCITEGIC>MOL_PROPERTY
VdW12
SciTegic.value.DoubleValue
10.982

@<SCITEGIC>MOL_PROPERTY
Bond
SciTegic.value.DoubleValue
0.305

@<SCITEGIC>MOL_PROPERTY
Angle
SciTegic.value.DoubleValue
1.981

@<SCITEGIC>MOL_PROPERTY
Pdih
SciTegic.value.DoubleValue
4.214

@<SCITEGIC>MOL_PROPERTY
Idih
SciTegic.value.DoubleValue
0.000

@<SCITEGIC>MOL_PROPERTY
Tether
SciTegic.value.DoubleValue
0.000

@<TRIPOS>MOLECULE
guest-3_vm2.mol2 : vm2 ligand conformer 389
          29          28           1
SMALL
USER_CHARGES
 
@<TRIPOS>ATOM
       1    C1      20.107643   17.942231   20.436965 C.3        1 MOL1        -0.2427
       2    H1      19.683452   17.532386   19.511236 H          1 MOL1         0.0958
       3    H2      21.200938   17.886331   20.355492 H          1 MOL1         0.0958
       4    H3      19.798060   17.290871   21.261772 H          1 MOL1         0.0958
       5    C2      19.644734   19.403229   20.643925 C.3        1 MOL1        -0.1412
       6    H4      18.547341   19.460481   20.643228 H          1 MOL1         0.0947
       7    H5      19.978205   19.990235   19.776701 H          1 MOL1         0.0947
       8    C3      20.218055   20.051470   21.930323 C.3        1 MOL1        -0.1437
       9    H6      21.182990   19.594149   22.188976 H          1 MOL1         0.0947
      10    H7      20.439938   21.105272   21.712107 H          1 MOL1         0.0947
      11    C4      19.268917   20.019540   23.156095 C.3        1 MOL1        -0.1437
      12    H8      18.350607   20.574891   22.921096 H          1 MOL1         0.0947
      13    H9      19.759608   20.567426   23.970386 H          1 MOL1         0.0947
      14    C5      18.899240   18.595177   23.638324 C.3        1 MOL1        -0.1437
      15    H10     18.353345   18.077500   22.839532 H          1 MOL1         0.0947
      16    H11     19.813217   18.012947   23.815477 H          1 MOL1         0.0947
      17    C6      18.003416   18.579033   24.904349 C.3        1 MOL1        -0.1437
      18    H12     17.736959   17.537320   25.130719 H          1 MOL1         0.0947
      19    H13     17.056824   19.090886   24.682612 H          1 MOL1         0.0947
      20    C7      18.636246   19.215524   26.167070 C.3        1 MOL1        -0.1477
      21    H14     18.769833   20.294564   26.019517 H          1 MOL1         0.0947
      22    H15     17.936126   19.106154   27.005931 H          1 MOL1         0.0947
      23    C8      19.982475   18.572636   26.548519 C.3        1 MOL1         0.0145
      24    H16     20.701403   18.713628   25.737192 H          1 MOL1         0.0921
      25    H17     19.846191   17.499423   26.706463 H          1 MOL1         0.0921
      26    N1      20.583274   19.159160   27.809429 N.4        1 MOL1        -0.5969
      27    H18     20.760816   20.164670   27.715823 H          1 MOL1         0.3603
      28    H19     21.478837   18.717824   28.045605 H          1 MOL1         0.3603
      29    H20     19.966535   19.035342   28.619207 H          1 MOL1         0.3603
@<TRIPOS>BOND
    1     1     2    1
    2     1     3    1
    3     1     4    1
    4     1     5    1
    5     5     6    1
    6     5     7    1
    7     5     8    1
    8     8     9    1
    9     8    10    1
   10     8    11    1
   11    11    12    1
   12    11    13    1
   13    11    14    1
   14    14    15    1
   15    14    16    1
   16    14    17    1
   17    17    18    1
   18    17    19    1
   19    17    20    1
   20    20    21    1
   21    20    22    1
   22    20    23    1
   23    23    24    1
   24    23    25    1
   25    23    26    1
   26    26    27    1
   27    26    28    1
   28    26    29    1
@<TRIPOS>SUBSTRUCTURE
       1 MOL1            1 RESIDUE      1      MOL     
@<SCITEGIC>MOL_PROPERTY
VM2 Rank
SciTegic.value.IntegerValue
389

@<SCITEGIC>MOL_PROPERTY
Conf_Id
SciTegic.value.IntegerValue
614

@<SCITEGIC>MOL_PROPERTY
Probability
SciTegic.value.DoubleValue
0.00

@<SCITEGIC>MOL_PROPERTY
Sum Probability
SciTegic.value.DoubleValue
99.95

@<SCITEGIC>MOL_PROPERTY
Delta G
SciTegic.value.DoubleValue
4.666

@<SCITEGIC>MOL_PROPERTY
G
SciTegic.value.DoubleValue
62.813

@<SCITEGIC>MOL_PROPERTY
E
SciTegic.value.DoubleValue
24.987

@<SCITEGIC>MOL_PROPERTY
-TS
SciTegic.value.DoubleValue
37.826

@<SCITEGIC>MOL_PROPERTY
U+W
SciTegic.value.DoubleValue
0.842

@<SCITEGIC>MOL_PROPERTY
U
SciTegic.value.DoubleValue
52.892

@<SCITEGIC>MOL_PROPERTY
W
SciTegic.value.DoubleValue
-52.049

@<SCITEGIC>MOL_PROPERTY
W(PB)
SciTegic.value.DoubleValue
-54.498

@<SCITEGIC>MOL_PROPERTY
W(SA)
SciTegic.value.DoubleValue
2.449

@<SCITEGIC>MOL_PROPERTY
Valence
SciTegic.value.DoubleValue
6.463

@<SCITEGIC>MOL_PROPERTY
Coulomb
SciTegic.value.DoubleValue
45.485

@<SCITEGIC>MOL_PROPERTY
VdW
SciTegic.value.DoubleValue
0.944

@<SCITEGIC>MOL_PROPERTY
VdW6
SciTegic.value.DoubleValue
-9.991

@<SCITEGIC>MOL_PROPERTY
VdW12
SciTegic.value.DoubleValue
10.935

@<SCITEGIC>MOL_PROPERTY
Bond
SciTegic.value.DoubleValue
0.305

@<SCITEGIC>MOL_PROPERTY
Angle
SciTegic.value.DoubleValue
1.765

@<SCITEGIC>MOL_PROPERTY
Pdih
SciTegic.value.DoubleValue
4.393

@<SCITEGIC>MOL_PROPERTY
Idih
SciTegic.value.DoubleValue
0.000

@<SCITEGIC>MOL_PROPERTY
Tether
SciTegic.value.DoubleValue
0.000

@<TRIPOS>MOLECULE
guest-3_vm2.mol2 : vm2 ligand conformer 390
          29          28           1
SMALL
USER_CHARGES
 
@<TRIPOS>ATOM
       1    C1      20.168091   19.445365   20.140797 C.3        1 MOL1        -0.2427
       2    H1      19.790790   18.628906   19.511534 H          1 MOL1         0.0958
       3    H2      19.353402   20.162762   20.300349 H          1 MOL1         0.0958
       4    H3      20.959018   19.962630   19.582510 H          1 MOL1         0.0958
       5    C2      20.715825   18.905807   21.481199 C.3        1 MOL1        -0.1412
       6    H4      21.065646   19.741010   22.101705 H          1 MOL1         0.0947
       7    H5      21.606036   18.294520   21.277565 H          1 MOL1         0.0947
       8    C3      19.695934   18.040225   22.265442 C.3        1 MOL1        -0.1437
       9    H6      19.492454   17.132205   21.681417 H          1 MOL1         0.0947
      10    H7      20.171978   17.690233   23.187691 H          1 MOL1         0.0947
      11    C4      18.335866   18.722550   22.586229 C.3        1 MOL1        -0.1437
      12    H8      17.681718   18.003905   23.098410 H          1 MOL1         0.0947
      13    H9      17.829739   18.941065   21.636665 H          1 MOL1         0.0947
      14    C5      18.407180   20.034283   23.416183 C.3        1 MOL1        -0.1437
      15    H10     19.290500   20.625090   23.146545 H          1 MOL1         0.0947
      16    H11     17.548378   20.656315   23.128559 H          1 MOL1         0.0947
      17    C6      18.340728   19.850485   24.954502 C.3        1 MOL1        -0.1437
      18    H12     17.393467   19.364253   25.225892 H          1 MOL1         0.0947
      19    H13     18.313502   20.848035   25.414786 H          1 MOL1         0.0947
      20    C7      19.517809   19.054402   25.560583 C.3        1 MOL1        -0.1477
      21    H14     19.446209   18.002175   25.260845 H          1 MOL1         0.0947
      22    H15     20.469388   19.446215   25.177418 H          1 MOL1         0.0947
      23    C8      19.513117   19.129868   27.097409 C.3        1 MOL1         0.0145
      24    H16     18.572677   18.726893   27.482928 H          1 MOL1         0.0921
      25    H17     19.596969   20.172645   27.415217 H          1 MOL1         0.0921
      26    N1      20.649449   18.355015   27.732656 N.4        1 MOL1        -0.5969
      27    H18     20.612007   17.358315   27.494765 H          1 MOL1         0.3603
      28    H19     20.628088   18.418968   28.756450 H          1 MOL1         0.3603
      29    H20     21.565136   18.703908   27.430606 H          1 MOL1         0.3603
@<TRIPOS>BOND
    1     1     2    1
    2     1     3    1
    3     1     4    1
    4     1     5    1
    5     5     6    1
    6     5     7    1
    7     5     8    1
    8     8     9    1
    9     8    10    1
   10     8    11    1
   11    11    12    1
   12    11    13    1
   13    11    14    1
   14    14    15    1
   15    14    16    1
   16    14    17    1
   17    17    18    1
   18    17    19    1
   19    17    20    1
   20    20    21    1
   21    20    22    1
   22    20    23    1
   23    23    24    1
   24    23    25    1
   25    23    26    1
   26    26    27    1
   27    26    28    1
   28    26    29    1
@<TRIPOS>SUBSTRUCTURE
       1 MOL1            1 RESIDUE      1      MOL     
@<SCITEGIC>MOL_PROPERTY
VM2 Rank
SciTegic.value.IntegerValue
390

@<SCITEGIC>MOL_PROPERTY
Conf_Id
SciTegic.value.IntegerValue
1865

@<SCITEGIC>MOL_PROPERTY
Probability
SciTegic.value.DoubleValue
0.00

@<SCITEGIC>MOL_PROPERTY
Sum Probability
SciTegic.value.DoubleValue
99.95

@<SCITEGIC>MOL_PROPERTY
Delta G
SciTegic.value.DoubleValue
4.675

@<SCITEGIC>MOL_PROPERTY
G
SciTegic.value.DoubleValue
62.822

@<SCITEGIC>MOL_PROPERTY
E
SciTegic.value.DoubleValue
25.272

@<SCITEGIC>MOL_PROPERTY
-TS
SciTegic.value.DoubleValue
37.550

@<SCITEGIC>MOL_PROPERTY
U+W
SciTegic.value.DoubleValue
1.127

@<SCITEGIC>MOL_PROPERTY
U
SciTegic.value.DoubleValue
53.307

@<SCITEGIC>MOL_PROPERTY
W
SciTegic.value.DoubleValue
-52.180

@<SCITEGIC>MOL_PROPERTY
W(PB)
SciTegic.value.DoubleValue
-54.610

@<SCITEGIC>MOL_PROPERTY
W(SA)
SciTegic.value.DoubleValue
2.430

@<SCITEGIC>MOL_PROPERTY
Valence
SciTegic.value.DoubleValue
6.870

@<SCITEGIC>MOL_PROPERTY
Coulomb
SciTegic.value.DoubleValue
45.552

@<SCITEGIC>MOL_PROPERTY
VdW
SciTegic.value.DoubleValue
0.885

@<SCITEGIC>MOL_PROPERTY
VdW6
SciTegic.value.DoubleValue
-10.165

@<SCITEGIC>MOL_PROPERTY
VdW12
SciTegic.value.DoubleValue
11.050

@<SCITEGIC>MOL_PROPERTY
Bond
SciTegic.value.DoubleValue
0.356

@<SCITEGIC>MOL_PROPERTY
Angle
SciTegic.value.DoubleValue
2.437

@<SCITEGIC>MOL_PROPERTY
Pdih
SciTegic.value.DoubleValue
4.076

@<SCITEGIC>MOL_PROPERTY
Idih
SciTegic.value.DoubleValue
0.000

@<SCITEGIC>MOL_PROPERTY
Tether
SciTegic.value.DoubleValue
0.000

@<TRIPOS>MOLECULE
guest-3_vm2.mol2 : vm2 ligand conformer 391
          29          28           1
SMALL
USER_CHARGES
 
@<TRIPOS>ATOM
       1    C1      20.956725   18.744865   20.680855 C.3        1 MOL1        -0.2427
       2    H1      21.229058   18.017144   21.455343 H          1 MOL1         0.0958
       3    H2      20.536843   18.197310   19.827159 H          1 MOL1         0.0958
       4    H3      21.880719   19.233371   20.345610 H          1 MOL1         0.0958
       5    C2      19.953761   19.791822   21.215565 C.3        1 MOL1        -0.1412
       6    H4      19.793564   20.555668   20.442005 H          1 MOL1         0.0947
       7    H5      20.390279   20.319782   22.073954 H          1 MOL1         0.0947
       8    C3      18.581402   19.184937   21.602431 C.3        1 MOL1        -0.1437
       9    H6      17.908811   19.994057   21.915688 H          1 MOL1         0.0947
      10    H7      18.119923   18.753317   20.703695 H          1 MOL1         0.0947
      11    C4      18.628223   18.092996   22.705499 C.3        1 MOL1        -0.1437
      12    H8      19.137209   17.204416   22.308822 H          1 MOL1         0.0947
      13    H9      17.601019   17.770142   22.923672 H          1 MOL1         0.0947
      14    C5      19.315789   18.510163   24.031587 C.3        1 MOL1        -0.1437
      15    H10     19.311514   17.634930   24.691983 H          1 MOL1         0.0947
      16    H11     20.369512   18.755945   23.845584 H          1 MOL1         0.0947
      17    C6      18.615530   19.692246   24.747268 C.3        1 MOL1        -0.1437
      18    H12     17.585155   19.407663   25.001084 H          1 MOL1         0.0947
      19    H13     18.538477   20.542355   24.057717 H          1 MOL1         0.0947
      20    C7      19.342856   20.189449   26.022666 C.3        1 MOL1        -0.1477
      21    H14     20.354627   20.536865   25.774710 H          1 MOL1         0.0947
      22    H15     18.804190   21.071553   26.393556 H          1 MOL1         0.0947
      23    C8      19.403031   19.160413   27.170417 C.3        1 MOL1         0.0145
      24    H16     18.463473   18.603597   27.220019 H          1 MOL1         0.0921
      25    H17     19.533413   19.691036   28.117463 H          1 MOL1         0.0921
      26    N1      20.546682   18.171109   27.058714 N.4        1 MOL1        -0.5969
      27    H18     20.494494   17.626194   26.193444 H          1 MOL1         0.3603
      28    H19     20.549453   17.503820   27.838044 H          1 MOL1         0.3603
      29    H20     21.457234   18.642434   27.065569 H          1 MOL1         0.3603
@<TRIPOS>BOND
    1     1     2    1
    2     1     3    1
    3     1     4    1
    4     1     5    1
    5     5     6    1
    6     5     7    1
    7     5     8    1
    8     8     9    1
    9     8    10    1
   10     8    11    1
   11    11    12    1
   12    11    13    1
   13    11    14    1
   14    14    15    1
   15    14    16    1
   16    14    17    1
   17    17    18    1
   18    17    19    1
   19    17    20    1
   20    20    21    1
   21    20    22    1
   22    20    23    1
   23    23    24    1
   24    23    25    1
   25    23    26    1
   26    26    27    1
   27    26    28    1
   28    26    29    1
@<TRIPOS>SUBSTRUCTURE
       1 MOL1            1 RESIDUE      1      MOL     
@<SCITEGIC>MOL_PROPERTY
VM2 Rank
SciTegic.value.IntegerValue
391

@<SCITEGIC>MOL_PROPERTY
Conf_Id
SciTegic.value.IntegerValue
843

@<SCITEGIC>MOL_PROPERTY
Probability
SciTegic.value.DoubleValue
0.00

@<SCITEGIC>MOL_PROPERTY
Sum Probability
SciTegic.value.DoubleValue
99.95

@<SCITEGIC>MOL_PROPERTY
Delta G
SciTegic.value.DoubleValue
4.714

@<SCITEGIC>MOL_PROPERTY
G
SciTegic.value.DoubleValue
62.860

@<SCITEGIC>MOL_PROPERTY
E
SciTegic.value.DoubleValue
24.807

@<SCITEGIC>MOL_PROPERTY
-TS
SciTegic.value.DoubleValue
38.053

@<SCITEGIC>MOL_PROPERTY
U+W
SciTegic.value.DoubleValue
0.663

@<SCITEGIC>MOL_PROPERTY
U
SciTegic.value.DoubleValue
53.073

@<SCITEGIC>MOL_PROPERTY
W
SciTegic.value.DoubleValue
-52.411

@<SCITEGIC>MOL_PROPERTY
W(PB)
SciTegic.value.DoubleValue
-54.809

@<SCITEGIC>MOL_PROPERTY
W(SA)
SciTegic.value.DoubleValue
2.398

@<SCITEGIC>MOL_PROPERTY
Valence
SciTegic.value.DoubleValue
5.710

@<SCITEGIC>MOL_PROPERTY
Coulomb
SciTegic.value.DoubleValue
46.606

@<SCITEGIC>MOL_PROPERTY
VdW
SciTegic.value.DoubleValue
0.757

@<SCITEGIC>MOL_PROPERTY
VdW6
SciTegic.value.DoubleValue
-10.974

@<SCITEGIC>MOL_PROPERTY
VdW12
SciTegic.value.DoubleValue
11.731

@<SCITEGIC>MOL_PROPERTY
Bond
SciTegic.value.DoubleValue
0.336

@<SCITEGIC>MOL_PROPERTY
Angle
SciTegic.value.DoubleValue
2.045

@<SCITEGIC>MOL_PROPERTY
Pdih
SciTegic.value.DoubleValue
3.329

@<SCITEGIC>MOL_PROPERTY
Idih
SciTegic.value.DoubleValue
0.000

@<SCITEGIC>MOL_PROPERTY
Tether
SciTegic.value.DoubleValue
0.000

@<TRIPOS>MOLECULE
guest-3_vm2.mol2 : vm2 ligand conformer 392
          29          28           1
SMALL
USER_CHARGES
 
@<TRIPOS>ATOM
       1    C1      20.869742   18.500492   20.675454 C.3        1 MOL1        -0.2427
       2    H1      20.902187   19.223350   19.850022 H          1 MOL1         0.0958
       3    H2      21.529616   18.861309   21.474173 H          1 MOL1         0.0958
       4    H3      21.282064   17.551841   20.308242 H          1 MOL1         0.0958
       5    C2      19.423476   18.302367   21.182434 C.3        1 MOL1        -0.1412
       6    H4      19.416229   17.583945   22.013059 H          1 MOL1         0.0947
       7    H5      18.827674   17.842757   20.381622 H          1 MOL1         0.0947
       8    C3      18.737701   19.623849   21.612250 C.3        1 MOL1        -0.1437
       9    H6      18.665406   20.285087   20.737880 H          1 MOL1         0.0947
      10    H7      17.700826   19.409932   21.902620 H          1 MOL1         0.0947
      11    C4      19.448162   20.395999   22.756940 C.3        1 MOL1        -0.1437
      12    H8      18.852835   21.286191   23.002151 H          1 MOL1         0.0947
      13    H9      20.409587   20.778131   22.388657 H          1 MOL1         0.0947
      14    C5      19.698831   19.586214   24.055669 C.3        1 MOL1        -0.1437
      15    H10     20.363043   18.737741   23.845305 H          1 MOL1         0.0947
      16    H11     20.238942   20.240443   24.750248 H          1 MOL1         0.0947
      17    C6      18.399262   19.084899   24.733672 C.3        1 MOL1        -0.1437
      18    H12     17.812349   18.502699   24.012091 H          1 MOL1         0.0947
      19    H13     17.776725   19.945989   25.013058 H          1 MOL1         0.0947
      20    C7      18.630932   18.189966   25.977972 C.3        1 MOL1        -0.1477
      21    H14     17.650961   17.832644   26.321201 H          1 MOL1         0.0947
      22    H15     19.199144   17.291673   25.702174 H          1 MOL1         0.0947
      23    C8      19.311478   18.903117   27.164625 C.3        1 MOL1         0.0145
      24    H16     19.064071   18.372351   28.087954 H          1 MOL1         0.0921
      25    H17     18.934238   19.925732   27.249591 H          1 MOL1         0.0921
      26    N1      20.824417   18.951097   27.075984 N.4        1 MOL1        -0.5969
      27    H18     21.232386   18.010754   27.051203 H          1 MOL1         0.3603
      28    H19     21.237131   19.435040   27.881032 H          1 MOL1         0.3603
      29    H20     21.140312   19.440307   26.233825 H          1 MOL1         0.3603
@<TRIPOS>BOND
    1     1     2    1
    2     1     3    1
    3     1     4    1
    4     1     5    1
    5     5     6    1
    6     5     7    1
    7     5     8    1
    8     8     9    1
    9     8    10    1
   10     8    11    1
   11    11    12    1
   12    11    13    1
   13    11    14    1
   14    14    15    1
   15    14    16    1
   16    14    17    1
   17    17    18    1
   18    17    19    1
   19    17    20    1
   20    20    21    1
   21    20    22    1
   22    20    23    1
   23    23    24    1
   24    23    25    1
   25    23    26    1
   26    26    27    1
   27    26    28    1
   28    26    29    1
@<TRIPOS>SUBSTRUCTURE
       1 MOL1            1 RESIDUE      1      MOL     
@<SCITEGIC>MOL_PROPERTY
VM2 Rank
SciTegic.value.IntegerValue
392

@<SCITEGIC>MOL_PROPERTY
Conf_Id
SciTegic.value.IntegerValue
844

@<SCITEGIC>MOL_PROPERTY
Probability
SciTegic.value.DoubleValue
0.00

@<SCITEGIC>MOL_PROPERTY
Sum Probability
SciTegic.value.DoubleValue
99.95

@<SCITEGIC>MOL_PROPERTY
Delta G
SciTegic.value.DoubleValue
4.717

@<SCITEGIC>MOL_PROPERTY
G
SciTegic.value.DoubleValue
62.864

@<SCITEGIC>MOL_PROPERTY
E
SciTegic.value.DoubleValue
24.810

@<SCITEGIC>MOL_PROPERTY
-TS
SciTegic.value.DoubleValue
38.053

@<SCITEGIC>MOL_PROPERTY
U+W
SciTegic.value.DoubleValue
0.666

@<SCITEGIC>MOL_PROPERTY
U
SciTegic.value.DoubleValue
53.074

@<SCITEGIC>MOL_PROPERTY
W
SciTegic.value.DoubleValue
-52.408

@<SCITEGIC>MOL_PROPERTY
W(PB)
SciTegic.value.DoubleValue
-54.805

@<SCITEGIC>MOL_PROPERTY
W(SA)
SciTegic.value.DoubleValue
2.397

@<SCITEGIC>MOL_PROPERTY
Valence
SciTegic.value.DoubleValue
5.710

@<SCITEGIC>MOL_PROPERTY
Coulomb
SciTegic.value.DoubleValue
46.607

@<SCITEGIC>MOL_PROPERTY
VdW
SciTegic.value.DoubleValue
0.757

@<SCITEGIC>MOL_PROPERTY
VdW6
SciTegic.value.DoubleValue
-10.975

@<SCITEGIC>MOL_PROPERTY
VdW12
SciTegic.value.DoubleValue
11.732

@<SCITEGIC>MOL_PROPERTY
Bond
SciTegic.value.DoubleValue
0.336

@<SCITEGIC>MOL_PROPERTY
Angle
SciTegic.value.DoubleValue
2.046

@<SCITEGIC>MOL_PROPERTY
Pdih
SciTegic.value.DoubleValue
3.328

@<SCITEGIC>MOL_PROPERTY
Idih
SciTegic.value.DoubleValue
0.000

@<SCITEGIC>MOL_PROPERTY
Tether
SciTegic.value.DoubleValue
0.000

@<TRIPOS>MOLECULE
guest-3_vm2.mol2 : vm2 ligand conformer 393
          29          28           1
SMALL
USER_CHARGES
 
@<TRIPOS>ATOM
       1    C1      20.989645   18.687160   20.770062 C.3        1 MOL1        -0.2427
       2    H1      21.204551   18.117918   21.683067 H          1 MOL1         0.0958
       3    H2      21.250040   18.050362   19.914781 H          1 MOL1         0.0958
       4    H3      21.647531   19.565594   20.748295 H          1 MOL1         0.0958
       5    C2      19.503416   19.104659   20.701451 C.3        1 MOL1        -0.1412
       6    H4      18.865318   18.212437   20.748953 H          1 MOL1         0.0947
       7    H5      19.308908   19.558466   19.719694 H          1 MOL1         0.0947
       8    C3      19.094721   20.118356   21.800963 C.3        1 MOL1        -0.1437
       9    H6      19.644812   21.055093   21.636560 H          1 MOL1         0.0947
      10    H7      18.032323   20.368515   21.675179 H          1 MOL1         0.0947
      11    C4      19.334976   19.656158   23.261917 C.3        1 MOL1        -0.1437
      12    H8      19.044602   20.484712   23.919323 H          1 MOL1         0.0947
      13    H9      20.406320   19.486317   23.430727 H          1 MOL1         0.0947
      14    C5      18.529625   18.393254   23.655539 C.3        1 MOL1        -0.1437
      15    H10     17.455062   18.606540   23.573594 H          1 MOL1         0.0947
      16    H11     18.737446   17.588817   22.938888 H          1 MOL1         0.0947
      17    C6      18.841799   17.846386   25.072697 C.3        1 MOL1        -0.1437
      18    H12     19.888392   17.519781   25.124818 H          1 MOL1         0.0947
      19    H13     18.243543   16.935237   25.211337 H          1 MOL1         0.0947
      20    C7      18.511601   18.815546   26.239297 C.3        1 MOL1        -0.1477
      21    H14     17.600034   19.380534   26.003620 H          1 MOL1         0.0947
      22    H15     18.276486   18.226548   27.135788 H          1 MOL1         0.0947
      23    C8      19.647512   19.797562   26.596224 C.3        1 MOL1         0.0145
      24    H16     19.293975   20.492972   27.362308 H          1 MOL1         0.0921
      25    H17     19.937486   20.379471   25.719722 H          1 MOL1         0.0921
      26    N1      20.890705   19.118920   27.136849 N.4        1 MOL1        -0.5969
      27    H18     21.297528   18.472699   26.453651 H          1 MOL1         0.3603
      28    H19     20.689982   18.577542   27.984100 H          1 MOL1         0.3603
      29    H20     21.619851   19.798106   27.380761 H          1 MOL1         0.3603
@<TRIPOS>BOND
    1     1     2    1
    2     1     3    1
    3     1     4    1
    4     1     5    1
    5     5     6    1
    6     5     7    1
    7     5     8    1
    8     8     9    1
    9     8    10    1
   10     8    11    1
   11    11    12    1
   12    11    13    1
   13    11    14    1
   14    14    15    1
   15    14    16    1
   16    14    17    1
   17    17    18    1
   18    17    19    1
   19    17    20    1
   20    20    21    1
   21    20    22    1
   22    20    23    1
   23    23    24    1
   24    23    25    1
   25    23    26    1
   26    26    27    1
   27    26    28    1
   28    26    29    1
@<TRIPOS>SUBSTRUCTURE
       1 MOL1            1 RESIDUE      1      MOL     
@<SCITEGIC>MOL_PROPERTY
VM2 Rank
SciTegic.value.IntegerValue
393

@<SCITEGIC>MOL_PROPERTY
Conf_Id
SciTegic.value.IntegerValue
970

@<SCITEGIC>MOL_PROPERTY
Probability
SciTegic.value.DoubleValue
0.00

@<SCITEGIC>MOL_PROPERTY
Sum Probability
SciTegic.value.DoubleValue
99.95

@<SCITEGIC>MOL_PROPERTY
Delta G
SciTegic.value.DoubleValue
4.717

@<SCITEGIC>MOL_PROPERTY
G
SciTegic.value.DoubleValue
62.864

@<SCITEGIC>MOL_PROPERTY
E
SciTegic.value.DoubleValue
24.898

@<SCITEGIC>MOL_PROPERTY
-TS
SciTegic.value.DoubleValue
37.965

@<SCITEGIC>MOL_PROPERTY
U+W
SciTegic.value.DoubleValue
0.754

@<SCITEGIC>MOL_PROPERTY
U
SciTegic.value.DoubleValue
53.257

@<SCITEGIC>MOL_PROPERTY
W
SciTegic.value.DoubleValue
-52.503

@<SCITEGIC>MOL_PROPERTY
W(PB)
SciTegic.value.DoubleValue
-54.904

@<SCITEGIC>MOL_PROPERTY
W(SA)
SciTegic.value.DoubleValue
2.400

@<SCITEGIC>MOL_PROPERTY
Valence
SciTegic.value.DoubleValue
6.240

@<SCITEGIC>MOL_PROPERTY
Coulomb
SciTegic.value.DoubleValue
46.087

@<SCITEGIC>MOL_PROPERTY
VdW
SciTegic.value.DoubleValue
0.930

@<SCITEGIC>MOL_PROPERTY
VdW6
SciTegic.value.DoubleValue
-10.706

@<SCITEGIC>MOL_PROPERTY
VdW12
SciTegic.value.DoubleValue
11.636

@<SCITEGIC>MOL_PROPERTY
Bond
SciTegic.value.DoubleValue
0.335

@<SCITEGIC>MOL_PROPERTY
Angle
SciTegic.value.DoubleValue
2.087

@<SCITEGIC>MOL_PROPERTY
Pdih
SciTegic.value.DoubleValue
3.817

@<SCITEGIC>MOL_PROPERTY
Idih
SciTegic.value.DoubleValue
0.000

@<SCITEGIC>MOL_PROPERTY
Tether
SciTegic.value.DoubleValue
0.000

@<TRIPOS>MOLECULE
guest-3_vm2.mol2 : vm2 ligand conformer 394
          29          28           1
SMALL
USER_CHARGES
 
@<TRIPOS>ATOM
       1    C1      20.778996   18.128740   20.917583 C.3        1 MOL1        -0.2427
       2    H1      21.526985   18.641483   21.536060 H          1 MOL1         0.0958
       3    H2      20.323973   17.326887   21.511910 H          1 MOL1         0.0958
       4    H3      21.303928   17.656625   20.077112 H          1 MOL1         0.0958
       5    C2      19.711734   19.117612   20.400358 C.3        1 MOL1        -0.1412
       6    H4      18.945350   18.566380   19.837797 H          1 MOL1         0.0947
       7    H5      20.184198   19.801238   19.681235 H          1 MOL1         0.0947
       8    C3      19.036199   19.961984   21.510668 C.3        1 MOL1        -0.1437
       9    H6      19.786864   20.589898   22.006106 H          1 MOL1         0.0947
      10    H7      18.345379   20.660847   21.019207 H          1 MOL1         0.0947
      11    C4      18.227553   19.135856   22.548085 C.3        1 MOL1        -0.1437
      12    H8      17.850823   18.221323   22.069875 H          1 MOL1         0.0947
      13    H9      17.333119   19.704678   22.837233 H          1 MOL1         0.0947
      14    C5      19.005767   18.762146   23.836549 C.3        1 MOL1        -0.1437
      15    H10     18.430419   17.993434   24.369016 H          1 MOL1         0.0947
      16    H11     19.968661   18.303221   23.582786 H          1 MOL1         0.0947
      17    C6      19.236852   19.969214   24.781536 C.3        1 MOL1        -0.1437
      18    H12     18.269743   20.404394   25.069025 H          1 MOL1         0.0947
      19    H13     19.785051   20.758610   24.252080 H          1 MOL1         0.0947
      20    C7      20.031542   19.596869   26.055328 C.3        1 MOL1        -0.1477
      21    H14     21.006824   19.178745   25.772488 H          1 MOL1         0.0947
      22    H15     20.235706   20.511746   26.627387 H          1 MOL1         0.0947
      23    C8      19.281177   18.598292   26.956363 C.3        1 MOL1         0.0145
      24    H16     19.112484   17.664272   26.414395 H          1 MOL1         0.0921
      25    H17     18.309985   19.014333   27.237528 H          1 MOL1         0.0921
      26    N1      20.034179   18.267288   28.228529 N.4        1 MOL1        -0.5969
      27    H18     20.201771   19.101427   28.800902 H          1 MOL1         0.3603
      28    H19     20.948625   17.846792   28.032485 H          1 MOL1         0.3603
      29    H20     19.518222   17.601560   28.814410 H          1 MOL1         0.3603
@<TRIPOS>BOND
    1     1     2    1
    2     1     3    1
    3     1     4    1
    4     1     5    1
    5     5     6    1
    6     5     7    1
    7     5     8    1
    8     8     9    1
    9     8    10    1
   10     8    11    1
   11    11    12    1
   12    11    13    1
   13    11    14    1
   14    14    15    1
   15    14    16    1
   16    14    17    1
   17    17    18    1
   18    17    19    1
   19    17    20    1
   20    20    21    1
   21    20    22    1
   22    20    23    1
   23    23    24    1
   24    23    25    1
   25    23    26    1
   26    26    27    1
   27    26    28    1
   28    26    29    1
@<TRIPOS>SUBSTRUCTURE
       1 MOL1            1 RESIDUE      1      MOL     
@<SCITEGIC>MOL_PROPERTY
VM2 Rank
SciTegic.value.IntegerValue
394

@<SCITEGIC>MOL_PROPERTY
Conf_Id
SciTegic.value.IntegerValue
1819

@<SCITEGIC>MOL_PROPERTY
Probability
SciTegic.value.DoubleValue
0.00

@<SCITEGIC>MOL_PROPERTY
Sum Probability
SciTegic.value.DoubleValue
99.96

@<SCITEGIC>MOL_PROPERTY
Delta G
SciTegic.value.DoubleValue
4.722

@<SCITEGIC>MOL_PROPERTY
G
SciTegic.value.DoubleValue
62.868

@<SCITEGIC>MOL_PROPERTY
E
SciTegic.value.DoubleValue
25.160

@<SCITEGIC>MOL_PROPERTY
-TS
SciTegic.value.DoubleValue
37.708

@<SCITEGIC>MOL_PROPERTY
U+W
SciTegic.value.DoubleValue
1.016

@<SCITEGIC>MOL_PROPERTY
U
SciTegic.value.DoubleValue
52.804

@<SCITEGIC>MOL_PROPERTY
W
SciTegic.value.DoubleValue
-51.789

@<SCITEGIC>MOL_PROPERTY
W(PB)
SciTegic.value.DoubleValue
-54.253

@<SCITEGIC>MOL_PROPERTY
W(SA)
SciTegic.value.DoubleValue
2.465

@<SCITEGIC>MOL_PROPERTY
Valence
SciTegic.value.DoubleValue
6.649

@<SCITEGIC>MOL_PROPERTY
Coulomb
SciTegic.value.DoubleValue
45.138

@<SCITEGIC>MOL_PROPERTY
VdW
SciTegic.value.DoubleValue
1.018

@<SCITEGIC>MOL_PROPERTY
VdW6
SciTegic.value.DoubleValue
-9.634

@<SCITEGIC>MOL_PROPERTY
VdW12
SciTegic.value.DoubleValue
10.652

@<SCITEGIC>MOL_PROPERTY
Bond
SciTegic.value.DoubleValue
0.309

@<SCITEGIC>MOL_PROPERTY
Angle
SciTegic.value.DoubleValue
1.537

@<SCITEGIC>MOL_PROPERTY
Pdih
SciTegic.value.DoubleValue
4.803

@<SCITEGIC>MOL_PROPERTY
Idih
SciTegic.value.DoubleValue
0.000

@<SCITEGIC>MOL_PROPERTY
Tether
SciTegic.value.DoubleValue
0.000

@<TRIPOS>MOLECULE
guest-3_vm2.mol2 : vm2 ligand conformer 395
          29          28           1
SMALL
USER_CHARGES
 
@<TRIPOS>ATOM
       1    C1      20.711208   20.088818   21.124831 C.3        1 MOL1        -0.2427
       2    H1      21.646561   19.862993   21.652969 H          1 MOL1         0.0958
       3    H2      20.972492   20.600330   20.189456 H          1 MOL1         0.0958
       4    H3      20.137056   20.794775   21.733517 H          1 MOL1         0.0958
       5    C2      19.916706   18.796536   20.826778 C.3        1 MOL1        -0.1412
       6    H4      20.514404   18.189369   20.132564 H          1 MOL1         0.0947
       7    H5      18.986681   19.036546   20.293114 H          1 MOL1         0.0947
       8    C3      19.611040   17.938744   22.082283 C.3        1 MOL1        -0.1437
       9    H6      19.583140   16.886981   21.765709 H          1 MOL1         0.0947
      10    H7      20.437390   18.000902   22.802300 H          1 MOL1         0.0947
      11    C4      18.252469   18.241548   22.770449 C.3        1 MOL1        -0.1437
      12    H8      18.062497   17.467230   23.525294 H          1 MOL1         0.0947
      13    H9      17.448173   18.126386   22.031037 H          1 MOL1         0.0947
      14    C5      18.116596   19.636022   23.435422 C.3        1 MOL1        -0.1437
      15    H10     18.130199   20.411410   22.659553 H          1 MOL1         0.0947
      16    H11     17.121437   19.705747   23.895623 H          1 MOL1         0.0947
      17    C6      19.184282   19.962876   24.511704 C.3        1 MOL1        -0.1437
      18    H12     19.000503   20.980200   24.884039 H          1 MOL1         0.0947
      19    H13     20.184094   19.982383   24.059531 H          1 MOL1         0.0947
      20    C7      19.175613   18.981858   25.706933 C.3        1 MOL1        -0.1477
      21    H14     18.167019   18.933563   26.138427 H          1 MOL1         0.0947
      22    H15     19.431592   17.970738   25.365936 H          1 MOL1         0.0947
      23    C8      20.176906   19.413384   26.792478 C.3        1 MOL1         0.0145
      24    H16     19.920805   20.413274   27.153106 H          1 MOL1         0.0921
      25    H17     21.185147   19.447042   26.370882 H          1 MOL1         0.0921
      26    N1      20.199181   18.478213   27.984122 N.4        1 MOL1        -0.5969
      27    H18     20.460903   17.523805   27.715757 H          1 MOL1         0.3603
      28    H19     19.283782   18.422898   28.442888 H          1 MOL1         0.3603
      29    H20     20.872145   18.784035   28.695647 H          1 MOL1         0.3603
@<TRIPOS>BOND
    1     1     2    1
    2     1     3    1
    3     1     4    1
    4     1     5    1
    5     5     6    1
    6     5     7    1
    7     5     8    1
    8     8     9    1
    9     8    10    1
   10     8    11    1
   11    11    12    1
   12    11    13    1
   13    11    14    1
   14    14    15    1
   15    14    16    1
   16    14    17    1
   17    17    18    1
   18    17    19    1
   19    17    20    1
   20    20    21    1
   21    20    22    1
   22    20    23    1
   23    23    24    1
   24    23    25    1
   25    23    26    1
   26    26    27    1
   27    26    28    1
   28    26    29    1
@<TRIPOS>SUBSTRUCTURE
       1 MOL1            1 RESIDUE      1      MOL     
@<SCITEGIC>MOL_PROPERTY
VM2 Rank
SciTegic.value.IntegerValue
395

@<SCITEGIC>MOL_PROPERTY
Conf_Id
SciTegic.value.IntegerValue
2543

@<SCITEGIC>MOL_PROPERTY
Probability
SciTegic.value.DoubleValue
0.00

@<SCITEGIC>MOL_PROPERTY
Sum Probability
SciTegic.value.DoubleValue
99.96

@<SCITEGIC>MOL_PROPERTY
Delta G
SciTegic.value.DoubleValue
4.739

@<SCITEGIC>MOL_PROPERTY
G
SciTegic.value.DoubleValue
62.885

@<SCITEGIC>MOL_PROPERTY
E
SciTegic.value.DoubleValue
24.640

@<SCITEGIC>MOL_PROPERTY
-TS
SciTegic.value.DoubleValue
38.245

@<SCITEGIC>MOL_PROPERTY
U+W
SciTegic.value.DoubleValue
0.496

@<SCITEGIC>MOL_PROPERTY
U
SciTegic.value.DoubleValue
52.590

@<SCITEGIC>MOL_PROPERTY
W
SciTegic.value.DoubleValue
-52.094

@<SCITEGIC>MOL_PROPERTY
W(PB)
SciTegic.value.DoubleValue
-54.512

@<SCITEGIC>MOL_PROPERTY
W(SA)
SciTegic.value.DoubleValue
2.418

@<SCITEGIC>MOL_PROPERTY
Valence
SciTegic.value.DoubleValue
6.629

@<SCITEGIC>MOL_PROPERTY
Coulomb
SciTegic.value.DoubleValue
45.433

@<SCITEGIC>MOL_PROPERTY
VdW
SciTegic.value.DoubleValue
0.528

@<SCITEGIC>MOL_PROPERTY
VdW6
SciTegic.value.DoubleValue
-10.597

@<SCITEGIC>MOL_PROPERTY
VdW12
SciTegic.value.DoubleValue
11.125

@<SCITEGIC>MOL_PROPERTY
Bond
SciTegic.value.DoubleValue
0.321

@<SCITEGIC>MOL_PROPERTY
Angle
SciTegic.value.DoubleValue
2.254

@<SCITEGIC>MOL_PROPERTY
Pdih
SciTegic.value.DoubleValue
4.053

@<SCITEGIC>MOL_PROPERTY
Idih
SciTegic.value.DoubleValue
0.000

@<SCITEGIC>MOL_PROPERTY
Tether
SciTegic.value.DoubleValue
0.000

@<TRIPOS>MOLECULE
guest-3_vm2.mol2 : vm2 ligand conformer 396
          29          28           1
SMALL
USER_CHARGES
 
@<TRIPOS>ATOM
       1    C1      20.929977   18.519792   20.766435 C.3        1 MOL1        -0.2427
       2    H1      21.443458   18.788282   21.698127 H          1 MOL1         0.0958
       3    H2      20.884411   17.425013   20.700751 H          1 MOL1         0.0958
       4    H3      21.546442   18.881586   19.933429 H          1 MOL1         0.0958
       5    C2      19.515758   19.139270   20.702209 C.3        1 MOL1        -0.1412
       6    H4      19.092065   18.949988   19.706077 H          1 MOL1         0.0947
       7    H5      19.585002   20.231182   20.793967 H          1 MOL1         0.0947
       8    C3      18.542619   18.569922   21.766343 C.3        1 MOL1        -0.1437
       9    H6      17.563346   19.053218   21.645757 H          1 MOL1         0.0947
      10    H7      18.378626   17.503869   21.557194 H          1 MOL1         0.0947
      11    C4      19.000339   18.717665   23.240927 C.3        1 MOL1        -0.1437
      12    H8      19.935124   18.164843   23.401190 H          1 MOL1         0.0947
      13    H9      18.242170   18.234267   23.869022 H          1 MOL1         0.0947
      14    C5      19.169708   20.188390   23.695615 C.3        1 MOL1        -0.1437
      15    H10     19.849568   20.707666   23.008564 H          1 MOL1         0.0947
      16    H11     18.203741   20.706217   23.620426 H          1 MOL1         0.0947
      17    C6      19.737249   20.357869   25.128804 C.3        1 MOL1        -0.1437
      18    H12     19.848124   21.435599   25.311908 H          1 MOL1         0.0947
      19    H13     20.753660   19.946619   25.179056 H          1 MOL1         0.0947
      20    C7      18.852100   19.770640   26.260588 C.3        1 MOL1        -0.1477
      21    H14     19.029719   20.339492   27.182951 H          1 MOL1         0.0947
      22    H15     17.792112   19.919275   26.015550 H          1 MOL1         0.0947
      23    C8      19.105923   18.278456   26.562263 C.3        1 MOL1         0.0145
      24    H16     18.975011   17.679613   25.659372 H          1 MOL1         0.0921
      25    H17     18.381488   17.933619   27.305063 H          1 MOL1         0.0921
      26    N1      20.490327   17.995996   27.111816 N.4        1 MOL1        -0.5969
      27    H18     20.665165   18.508208   27.982611 H          1 MOL1         0.3603
      28    H19     21.223745   18.265801   26.449121 H          1 MOL1         0.3603
      29    H20     20.622192   16.999796   27.318305 H          1 MOL1         0.3603
@<TRIPOS>BOND
    1     1     2    1
    2     1     3    1
    3     1     4    1
    4     1     5    1
    5     5     6    1
    6     5     7    1
    7     5     8    1
    8     8     9    1
    9     8    10    1
   10     8    11    1
   11    11    12    1
   12    11    13    1
   13    11    14    1
   14    14    15    1
   15    14    16    1
   16    14    17    1
   17    17    18    1
   18    17    19    1
   19    17    20    1
   20    20    21    1
   21    20    22    1
   22    20    23    1
   23    23    24    1
   24    23    25    1
   25    23    26    1
   26    26    27    1
   27    26    28    1
   28    26    29    1
@<TRIPOS>SUBSTRUCTURE
       1 MOL1            1 RESIDUE      1      MOL     
@<SCITEGIC>MOL_PROPERTY
VM2 Rank
SciTegic.value.IntegerValue
396

@<SCITEGIC>MOL_PROPERTY
Conf_Id
SciTegic.value.IntegerValue
682

@<SCITEGIC>MOL_PROPERTY
Probability
SciTegic.value.DoubleValue
0.00

@<SCITEGIC>MOL_PROPERTY
Sum Probability
SciTegic.value.DoubleValue
99.96

@<SCITEGIC>MOL_PROPERTY
Delta G
SciTegic.value.DoubleValue
4.741

@<SCITEGIC>MOL_PROPERTY
G
SciTegic.value.DoubleValue
62.887

@<SCITEGIC>MOL_PROPERTY
E
SciTegic.value.DoubleValue
24.921

@<SCITEGIC>MOL_PROPERTY
-TS
SciTegic.value.DoubleValue
37.966

@<SCITEGIC>MOL_PROPERTY
U+W
SciTegic.value.DoubleValue
0.777

@<SCITEGIC>MOL_PROPERTY
U
SciTegic.value.DoubleValue
53.257

@<SCITEGIC>MOL_PROPERTY
W
SciTegic.value.DoubleValue
-52.480

@<SCITEGIC>MOL_PROPERTY
W(PB)
SciTegic.value.DoubleValue
-54.882

@<SCITEGIC>MOL_PROPERTY
W(SA)
SciTegic.value.DoubleValue
2.401

@<SCITEGIC>MOL_PROPERTY
Valence
SciTegic.value.DoubleValue
6.240

@<SCITEGIC>MOL_PROPERTY
Coulomb
SciTegic.value.DoubleValue
46.087

@<SCITEGIC>MOL_PROPERTY
VdW
SciTegic.value.DoubleValue
0.930

@<SCITEGIC>MOL_PROPERTY
VdW6
SciTegic.value.DoubleValue
-10.706

@<SCITEGIC>MOL_PROPERTY
VdW12
SciTegic.value.DoubleValue
11.636

@<SCITEGIC>MOL_PROPERTY
Bond
SciTegic.value.DoubleValue
0.336

@<SCITEGIC>MOL_PROPERTY
Angle
SciTegic.value.DoubleValue
2.087

@<SCITEGIC>MOL_PROPERTY
Pdih
SciTegic.value.DoubleValue
3.818

@<SCITEGIC>MOL_PROPERTY
Idih
SciTegic.value.DoubleValue
0.000

@<SCITEGIC>MOL_PROPERTY
Tether
SciTegic.value.DoubleValue
0.000

@<TRIPOS>MOLECULE
guest-3_vm2.mol2 : vm2 ligand conformer 397
          29          28           1
SMALL
USER_CHARGES
 
@<TRIPOS>ATOM
       1    C1      20.249179   19.022213   20.069032 C.3        1 MOL1        -0.2427
       2    H1      20.867399   19.466890   19.278476 H          1 MOL1         0.0958
       3    H2      20.272072   17.932319   19.940138 H          1 MOL1         0.0958
       4    H3      19.218999   19.365928   19.913968 H          1 MOL1         0.0958
       5    C2      20.779619   19.428249   21.462700 C.3        1 MOL1        -0.1412
       6    H4      20.715254   20.519108   21.579181 H          1 MOL1         0.0947
       7    H5      21.847451   19.175300   21.521784 H          1 MOL1         0.0947
       8    C3      20.040008   18.733220   22.631148 C.3        1 MOL1        -0.1437
       9    H6      20.124056   17.643538   22.519242 H          1 MOL1         0.0947
      10    H7      20.561315   18.984970   23.560987 H          1 MOL1         0.0947
      11    C4      18.545205   19.130420   22.736404 C.3        1 MOL1        -0.1437
      12    H8      18.030152   18.788146   21.829317 H          1 MOL1         0.0947
      13    H9      18.440184   20.223806   22.751655 H          1 MOL1         0.0947
      14    C5      17.820599   18.508174   23.958810 C.3        1 MOL1        -0.1437
      15    H10     16.789198   18.278599   23.657254 H          1 MOL1         0.0947
      16    H11     18.268400   17.539862   24.219568 H          1 MOL1         0.0947
      17    C6      17.739141   19.430912   25.204715 C.3        1 MOL1        -0.1437
      18    H12     17.111325   18.941114   25.961943 H          1 MOL1         0.0947
      19    H13     17.211235   20.355029   24.931752 H          1 MOL1         0.0947
      20    C7      19.094576   19.801266   25.852086 C.3        1 MOL1        -0.1477
      21    H14     19.700281   20.384121   25.147235 H          1 MOL1         0.0947
      22    H15     18.907038   20.459943   26.710424 H          1 MOL1         0.0947
      23    C8      19.877497   18.565549   26.333565 C.3        1 MOL1         0.0145
      24    H16     20.086100   17.906322   25.487188 H          1 MOL1         0.0921
      25    H17     19.278176   18.011467   27.060972 H          1 MOL1         0.0921
      26    N1      21.198177   18.917997   26.986540 N.4        1 MOL1        -0.5969
      27    H18     21.068304   19.513944   27.810812 H          1 MOL1         0.3603
      28    H19     21.820063   19.421052   26.345252 H          1 MOL1         0.3603
      29    H20     21.703248   18.081689   27.299702 H          1 MOL1         0.3603
@<TRIPOS>BOND
    1     1     2    1
    2     1     3    1
    3     1     4    1
    4     1     5    1
    5     5     6    1
    6     5     7    1
    7     5     8    1
    8     8     9    1
    9     8    10    1
   10     8    11    1
   11    11    12    1
   12    11    13    1
   13    11    14    1
   14    14    15    1
   15    14    16    1
   16    14    17    1
   17    17    18    1
   18    17    19    1
   19    17    20    1
   20    20    21    1
   21    20    22    1
   22    20    23    1
   23    23    24    1
   24    23    25    1
   25    23    26    1
   26    26    27    1
   27    26    28    1
   28    26    29    1
@<TRIPOS>SUBSTRUCTURE
       1 MOL1            1 RESIDUE      1      MOL     
@<SCITEGIC>MOL_PROPERTY
VM2 Rank
SciTegic.value.IntegerValue
397

@<SCITEGIC>MOL_PROPERTY
Conf_Id
SciTegic.value.IntegerValue
2507

@<SCITEGIC>MOL_PROPERTY
Probability
SciTegic.value.DoubleValue
0.00

@<SCITEGIC>MOL_PROPERTY
Sum Probability
SciTegic.value.DoubleValue
99.96

@<SCITEGIC>MOL_PROPERTY
Delta G
SciTegic.value.DoubleValue
4.757

@<SCITEGIC>MOL_PROPERTY
G
SciTegic.value.DoubleValue
62.904

@<SCITEGIC>MOL_PROPERTY
E
SciTegic.value.DoubleValue
24.852

@<SCITEGIC>MOL_PROPERTY
-TS
SciTegic.value.DoubleValue
38.052

@<SCITEGIC>MOL_PROPERTY
U+W
SciTegic.value.DoubleValue
0.707

@<SCITEGIC>MOL_PROPERTY
U
SciTegic.value.DoubleValue
53.465

@<SCITEGIC>MOL_PROPERTY
W
SciTegic.value.DoubleValue
-52.757

@<SCITEGIC>MOL_PROPERTY
W(PB)
SciTegic.value.DoubleValue
-55.178

@<SCITEGIC>MOL_PROPERTY
W(SA)
SciTegic.value.DoubleValue
2.420

@<SCITEGIC>MOL_PROPERTY
Valence
SciTegic.value.DoubleValue
6.491

@<SCITEGIC>MOL_PROPERTY
Coulomb
SciTegic.value.DoubleValue
46.407

@<SCITEGIC>MOL_PROPERTY
VdW
SciTegic.value.DoubleValue
0.567

@<SCITEGIC>MOL_PROPERTY
VdW6
SciTegic.value.DoubleValue
-10.393

@<SCITEGIC>MOL_PROPERTY
VdW12
SciTegic.value.DoubleValue
10.960

@<SCITEGIC>MOL_PROPERTY
Bond
SciTegic.value.DoubleValue
0.299

@<SCITEGIC>MOL_PROPERTY
Angle
SciTegic.value.DoubleValue
1.747

@<SCITEGIC>MOL_PROPERTY
Pdih
SciTegic.value.DoubleValue
4.444

@<SCITEGIC>MOL_PROPERTY
Idih
SciTegic.value.DoubleValue
0.000

@<SCITEGIC>MOL_PROPERTY
Tether
SciTegic.value.DoubleValue
0.000

@<TRIPOS>MOLECULE
guest-3_vm2.mol2 : vm2 ligand conformer 398
          29          28           1
SMALL
USER_CHARGES
 
@<TRIPOS>ATOM
       1    C1      20.552483   20.077572   20.767001 C.3        1 MOL1        -0.2427
       2    H1      20.278972   20.749151   21.589525 H          1 MOL1         0.0958
       3    H2      21.620537   20.223340   20.560141 H          1 MOL1         0.0958
       4    H3      19.992801   20.386600   19.874718 H          1 MOL1         0.0958
       5    C2      20.264931   18.599091   21.114661 C.3        1 MOL1        -0.1412
       6    H4      20.847348   18.293025   21.992962 H          1 MOL1         0.0947
       7    H5      20.622757   17.970328   20.287500 H          1 MOL1         0.0947
       8    C3      18.761746   18.304482   21.339033 C.3        1 MOL1        -0.1437
       9    H6      18.215622   18.553121   20.418686 H          1 MOL1         0.0947
      10    H7      18.630979   17.222550   21.478255 H          1 MOL1         0.0947
      11    C4      18.092200   19.046902   22.526948 C.3        1 MOL1        -0.1437
      12    H8      17.022166   18.798635   22.501067 H          1 MOL1         0.0947
      13    H9      18.139560   20.134392   22.383607 H          1 MOL1         0.0947
      14    C5      18.634766   18.656031   23.926868 C.3        1 MOL1        -0.1437
      15    H10     17.790514   18.658883   24.629043 H          1 MOL1         0.0947
      16    H11     19.011880   17.624327   23.909823 H          1 MOL1         0.0947
      17    C6      19.724705   19.619330   24.462710 C.3        1 MOL1        -0.1437
      18    H12     19.312624   20.634890   24.540883 H          1 MOL1         0.0947
      19    H13     20.556159   19.680180   23.751737 H          1 MOL1         0.0947
      20    C7      20.291078   19.188372   25.835979 C.3        1 MOL1        -0.1477
      21    H14     20.722910   18.181763   25.757058 H          1 MOL1         0.0947
      22    H15     21.113575   19.862755   26.109173 H          1 MOL1         0.0947
      23    C8      19.230798   19.211159   26.952787 C.3        1 MOL1         0.0145
      24    H16     18.427765   18.508629   26.715698 H          1 MOL1         0.0921
      25    H17     18.800627   20.213221   27.031366 H          1 MOL1         0.0921
      26    N1      19.791293   18.835061   28.309012 N.4        1 MOL1        -0.5969
      27    H18     20.188823   17.889848   28.308978 H          1 MOL1         0.3603
      28    H19     19.070125   18.856238   29.038479 H          1 MOL1         0.3603
      29    H20     20.535103   19.475559   28.605615 H          1 MOL1         0.3603
@<TRIPOS>BOND
    1     1     2    1
    2     1     3    1
    3     1     4    1
    4     1     5    1
    5     5     6    1
    6     5     7    1
    7     5     8    1
    8     8     9    1
    9     8    10    1
   10     8    11    1
   11    11    12    1
   12    11    13    1
   13    11    14    1
   14    14    15    1
   15    14    16    1
   16    14    17    1
   17    17    18    1
   18    17    19    1
   19    17    20    1
   20    20    21    1
   21    20    22    1
   22    20    23    1
   23    23    24    1
   24    23    25    1
   25    23    26    1
   26    26    27    1
   27    26    28    1
   28    26    29    1
@<TRIPOS>SUBSTRUCTURE
       1 MOL1            1 RESIDUE      1      MOL     
@<SCITEGIC>MOL_PROPERTY
VM2 Rank
SciTegic.value.IntegerValue
398

@<SCITEGIC>MOL_PROPERTY
Conf_Id
SciTegic.value.IntegerValue
2308

@<SCITEGIC>MOL_PROPERTY
Probability
SciTegic.value.DoubleValue
0.00

@<SCITEGIC>MOL_PROPERTY
Sum Probability
SciTegic.value.DoubleValue
99.96

@<SCITEGIC>MOL_PROPERTY
Delta G
SciTegic.value.DoubleValue
4.760

@<SCITEGIC>MOL_PROPERTY
G
SciTegic.value.DoubleValue
62.906

@<SCITEGIC>MOL_PROPERTY
E
SciTegic.value.DoubleValue
24.807

@<SCITEGIC>MOL_PROPERTY
-TS
SciTegic.value.DoubleValue
38.099

@<SCITEGIC>MOL_PROPERTY
U+W
SciTegic.value.DoubleValue
0.663

@<SCITEGIC>MOL_PROPERTY
U
SciTegic.value.DoubleValue
52.451

@<SCITEGIC>MOL_PROPERTY
W
SciTegic.value.DoubleValue
-51.788

@<SCITEGIC>MOL_PROPERTY
W(PB)
SciTegic.value.DoubleValue
-54.223

@<SCITEGIC>MOL_PROPERTY
W(SA)
SciTegic.value.DoubleValue
2.434

@<SCITEGIC>MOL_PROPERTY
Valence
SciTegic.value.DoubleValue
6.551

@<SCITEGIC>MOL_PROPERTY
Coulomb
SciTegic.value.DoubleValue
45.186

@<SCITEGIC>MOL_PROPERTY
VdW
SciTegic.value.DoubleValue
0.714

@<SCITEGIC>MOL_PROPERTY
VdW6
SciTegic.value.DoubleValue
-10.138

@<SCITEGIC>MOL_PROPERTY
VdW12
SciTegic.value.DoubleValue
10.851

@<SCITEGIC>MOL_PROPERTY
Bond
SciTegic.value.DoubleValue
0.301

@<SCITEGIC>MOL_PROPERTY
Angle
SciTegic.value.DoubleValue
1.825

@<SCITEGIC>MOL_PROPERTY
Pdih
SciTegic.value.DoubleValue
4.425

@<SCITEGIC>MOL_PROPERTY
Idih
SciTegic.value.DoubleValue
0.000

@<SCITEGIC>MOL_PROPERTY
Tether
SciTegic.value.DoubleValue
0.000

@<TRIPOS>MOLECULE
guest-3_vm2.mol2 : vm2 ligand conformer 399
          29          28           1
SMALL
USER_CHARGES
 
@<TRIPOS>ATOM
       1    C1      19.620017   18.964053   20.146083 C.3        1 MOL1        -0.2427
       2    H1      19.095397   19.392804   19.282518 H          1 MOL1         0.0958
       3    H2      20.460405   19.627498   20.385107 H          1 MOL1         0.0958
       4    H3      20.025695   17.989986   19.843554 H          1 MOL1         0.0958
       5    C2      18.657090   18.815816   21.345545 C.3        1 MOL1        -0.1412
       6    H4      17.778495   18.239368   21.024152 H          1 MOL1         0.0947
       7    H5      18.278027   19.803381   21.640478 H          1 MOL1         0.0947
       8    C3      19.296759   18.102539   22.563564 C.3        1 MOL1        -0.1437
       9    H6      18.532507   17.980289   23.341265 H          1 MOL1         0.0947
      10    H7      19.581976   17.083799   22.267417 H          1 MOL1         0.0947
      11    C4      20.541887   18.811004   23.162635 C.3        1 MOL1        -0.1437
      12    H8      21.351275   18.799175   22.420840 H          1 MOL1         0.0947
      13    H9      20.925334   18.222338   24.004919 H          1 MOL1         0.0947
      14    C5      20.312655   20.275939   23.618208 C.3        1 MOL1        -0.1437
      15    H10     21.255956   20.669157   24.021236 H          1 MOL1         0.0947
      16    H11     20.096371   20.891920   22.735304 H          1 MOL1         0.0947
      17    C6      19.188270   20.501453   24.664987 C.3        1 MOL1        -0.1437
      18    H12     18.218617   20.166352   24.273556 H          1 MOL1         0.0947
      19    H13     19.086932   21.586569   24.804580 H          1 MOL1         0.0947
      20    C7      19.454679   19.870365   26.055168 C.3        1 MOL1        -0.1477
      21    H14     20.515462   19.974585   26.318904 H          1 MOL1         0.0947
      22    H15     18.891417   20.438068   26.807763 H          1 MOL1         0.0947
      23    C8      19.024743   18.394431   26.151232 C.3        1 MOL1         0.0145
      24    H16     19.583888   17.790219   25.434934 H          1 MOL1         0.0921
      25    H17     17.960618   18.307041   25.916171 H          1 MOL1         0.0921
      26    N1      19.247901   17.802400   27.527578 N.4        1 MOL1        -0.5969
      27    H18     20.236215   17.830425   27.799275 H          1 MOL1         0.3603
      28    H19     18.952622   16.820926   27.572982 H          1 MOL1         0.3603
      29    H20     18.722107   18.306268   28.249422 H          1 MOL1         0.3603
@<TRIPOS>BOND
    1     1     2    1
    2     1     3    1
    3     1     4    1
    4     1     5    1
    5     5     6    1
    6     5     7    1
    7     5     8    1
    8     8     9    1
    9     8    10    1
   10     8    11    1
   11    11    12    1
   12    11    13    1
   13    11    14    1
   14    14    15    1
   15    14    16    1
   16    14    17    1
   17    17    18    1
   18    17    19    1
   19    17    20    1
   20    20    21    1
   21    20    22    1
   22    20    23    1
   23    23    24    1
   24    23    25    1
   25    23    26    1
   26    26    27    1
   27    26    28    1
   28    26    29    1
@<TRIPOS>SUBSTRUCTURE
       1 MOL1            1 RESIDUE      1      MOL     
@<SCITEGIC>MOL_PROPERTY
VM2 Rank
SciTegic.value.IntegerValue
399

@<SCITEGIC>MOL_PROPERTY
Conf_Id
SciTegic.value.IntegerValue
2571

@<SCITEGIC>MOL_PROPERTY
Probability
SciTegic.value.DoubleValue
0.00

@<SCITEGIC>MOL_PROPERTY
Sum Probability
SciTegic.value.DoubleValue
99.97

@<SCITEGIC>MOL_PROPERTY
Delta G
SciTegic.value.DoubleValue
4.774

@<SCITEGIC>MOL_PROPERTY
G
SciTegic.value.DoubleValue
62.920

@<SCITEGIC>MOL_PROPERTY
E
SciTegic.value.DoubleValue
24.349

@<SCITEGIC>MOL_PROPERTY
-TS
SciTegic.value.DoubleValue
38.571

@<SCITEGIC>MOL_PROPERTY
U+W
SciTegic.value.DoubleValue
0.204

@<SCITEGIC>MOL_PROPERTY
U
SciTegic.value.DoubleValue
52.862

@<SCITEGIC>MOL_PROPERTY
W
SciTegic.value.DoubleValue
-52.657

@<SCITEGIC>MOL_PROPERTY
W(PB)
SciTegic.value.DoubleValue
-55.034

@<SCITEGIC>MOL_PROPERTY
W(SA)
SciTegic.value.DoubleValue
2.376

@<SCITEGIC>MOL_PROPERTY
Valence
SciTegic.value.DoubleValue
6.386

@<SCITEGIC>MOL_PROPERTY
Coulomb
SciTegic.value.DoubleValue
46.094

@<SCITEGIC>MOL_PROPERTY
VdW
SciTegic.value.DoubleValue
0.382

@<SCITEGIC>MOL_PROPERTY
VdW6
SciTegic.value.DoubleValue
-11.635

@<SCITEGIC>MOL_PROPERTY
VdW12
SciTegic.value.DoubleValue
12.017

@<SCITEGIC>MOL_PROPERTY
Bond
SciTegic.value.DoubleValue
0.346

@<SCITEGIC>MOL_PROPERTY
Angle
SciTegic.value.DoubleValue
2.395

@<SCITEGIC>MOL_PROPERTY
Pdih
SciTegic.value.DoubleValue
3.645

@<SCITEGIC>MOL_PROPERTY
Idih
SciTegic.value.DoubleValue
0.000

@<SCITEGIC>MOL_PROPERTY
Tether
SciTegic.value.DoubleValue
0.000

@<TRIPOS>MOLECULE
guest-3_vm2.mol2 : vm2 ligand conformer 400
          29          28           1
SMALL
USER_CHARGES
 
@<TRIPOS>ATOM
       1    C1      19.702538   19.196512   20.151346 C.3        1 MOL1        -0.2427
       2    H1      19.932187   18.142698   20.352047 H          1 MOL1         0.0958
       3    H2      19.037199   19.229699   19.278982 H          1 MOL1         0.0958
       4    H3      20.636193   19.706996   19.881908 H          1 MOL1         0.0958
       5    C2      19.032479   19.871601   21.369207 C.3        1 MOL1        -0.1412
       6    H4      18.111078   19.334129   21.630171 H          1 MOL1         0.0947
       7    H5      18.719412   20.885387   21.083305 H          1 MOL1         0.0947
       8    C3      19.961668   19.972220   22.605327 C.3        1 MOL1        -0.1437
       9    H6      20.829952   20.593167   22.345729 H          1 MOL1         0.0947
      10    H7      19.435180   20.518424   23.397989 H          1 MOL1         0.0947
      11    C4      20.471857   18.613848   23.158215 C.3        1 MOL1        -0.1437
      12    H8      21.128897   18.794519   24.017668 H          1 MOL1         0.0947
      13    H9      21.117509   18.141635   22.406113 H          1 MOL1         0.0947
      14    C5      19.363173   17.605551   23.558572 C.3        1 MOL1        -0.1437
      15    H10     18.819147   17.299798   22.655088 H          1 MOL1         0.0947
      16    H11     19.840972   16.689670   23.932391 H          1 MOL1         0.0947
      17    C6      18.334023   18.098943   24.611309 C.3        1 MOL1        -0.1437
      18    H12     17.568687   17.316700   24.709223 H          1 MOL1         0.0947
      19    H13     17.798935   18.985959   24.247137 H          1 MOL1         0.0947
      20    C7      18.919307   18.364691   26.021511 C.3        1 MOL1        -0.1477
      21    H14     18.113581   18.250486   26.758880 H          1 MOL1         0.0947
      22    H15     19.672597   17.604108   26.265942 H          1 MOL1         0.0947
      23    C8      19.515859   19.775654   26.182025 C.3        1 MOL1         0.0145
      24    H16     18.748970   20.524181   25.965592 H          1 MOL1         0.0921
      25    H17     20.340947   19.919280   25.482450 H          1 MOL1         0.0921
      26    N1      20.043095   20.038981   27.577488 N.4        1 MOL1        -0.5969
      27    H18     19.307114   19.951858   28.286107 H          1 MOL1         0.3603
      28    H19     20.432815   20.983885   27.665898 H          1 MOL1         0.3603
      29    H20     20.788104   19.382816   27.833962 H          1 MOL1         0.3603
@<TRIPOS>BOND
    1     1     2    1
    2     1     3    1
    3     1     4    1
    4     1     5    1
    5     5     6    1
    6     5     7    1
    7     5     8    1
    8     8     9    1
    9     8    10    1
   10     8    11    1
   11    11    12    1
   12    11    13    1
   13    11    14    1
   14    14    15    1
   15    14    16    1
   16    14    17    1
   17    17    18    1
   18    17    19    1
   19    17    20    1
   20    20    21    1
   21    20    22    1
   22    20    23    1
   23    23    24    1
   24    23    25    1
   25    23    26    1
   26    26    27    1
   27    26    28    1
   28    26    29    1
@<TRIPOS>SUBSTRUCTURE
       1 MOL1            1 RESIDUE      1      MOL     
@<SCITEGIC>MOL_PROPERTY
VM2 Rank
SciTegic.value.IntegerValue
400

@<SCITEGIC>MOL_PROPERTY
Conf_Id
SciTegic.value.IntegerValue
971

@<SCITEGIC>MOL_PROPERTY
Probability
SciTegic.value.DoubleValue
0.00

@<SCITEGIC>MOL_PROPERTY
Sum Probability
SciTegic.value.DoubleValue
99.97

@<SCITEGIC>MOL_PROPERTY
Delta G
SciTegic.value.DoubleValue
4.774

@<SCITEGIC>MOL_PROPERTY
G
SciTegic.value.DoubleValue
62.920

@<SCITEGIC>MOL_PROPERTY
E
SciTegic.value.DoubleValue
24.349

@<SCITEGIC>MOL_PROPERTY
-TS
SciTegic.value.DoubleValue
38.572

@<SCITEGIC>MOL_PROPERTY
U+W
SciTegic.value.DoubleValue
0.204

@<SCITEGIC>MOL_PROPERTY
U
SciTegic.value.DoubleValue
52.862

@<SCITEGIC>MOL_PROPERTY
W
SciTegic.value.DoubleValue
-52.657

@<SCITEGIC>MOL_PROPERTY
W(PB)
SciTegic.value.DoubleValue
-55.038

@<SCITEGIC>MOL_PROPERTY
W(SA)
SciTegic.value.DoubleValue
2.380

@<SCITEGIC>MOL_PROPERTY
Valence
SciTegic.value.DoubleValue
6.386

@<SCITEGIC>MOL_PROPERTY
Coulomb
SciTegic.value.DoubleValue
46.094

@<SCITEGIC>MOL_PROPERTY
VdW
SciTegic.value.DoubleValue
0.382

@<SCITEGIC>MOL_PROPERTY
VdW6
SciTegic.value.DoubleValue
-11.635

@<SCITEGIC>MOL_PROPERTY
VdW12
SciTegic.value.DoubleValue
12.017

@<SCITEGIC>MOL_PROPERTY
Bond
SciTegic.value.DoubleValue
0.346

@<SCITEGIC>MOL_PROPERTY
Angle
SciTegic.value.DoubleValue
2.395

@<SCITEGIC>MOL_PROPERTY
Pdih
SciTegic.value.DoubleValue
3.645

@<SCITEGIC>MOL_PROPERTY
Idih
SciTegic.value.DoubleValue
0.000

@<SCITEGIC>MOL_PROPERTY
Tether
SciTegic.value.DoubleValue
0.000

@<TRIPOS>MOLECULE
guest-3_vm2.mol2 : vm2 ligand conformer 401
          29          28           1
SMALL
USER_CHARGES
 
@<TRIPOS>ATOM
       1    C1      20.742532   19.193484   20.535698 C.3        1 MOL1        -0.2427
       2    H1      21.640239   19.137864   21.164987 H          1 MOL1         0.0958
       3    H2      21.045218   18.991213   19.500146 H          1 MOL1         0.0958
       4    H3      20.359599   20.220803   20.572549 H          1 MOL1         0.0958
       5    C2      19.676858   18.173469   20.996531 C.3        1 MOL1        -0.1412
       6    H4      20.062979   17.158279   20.829098 H          1 MOL1         0.0947
       7    H5      18.778711   18.267943   20.370356 H          1 MOL1         0.0947
       8    C3      19.294113   18.319383   22.488830 C.3        1 MOL1        -0.1437
       9    H6      18.626726   17.489278   22.757928 H          1 MOL1         0.0947
      10    H7      20.195637   18.199605   23.099492 H          1 MOL1         0.0947
      11    C4      18.586515   19.660723   22.811486 C.3        1 MOL1        -0.1437
      12    H8      17.731942   19.765695   22.128972 H          1 MOL1         0.0947
      13    H9      19.248737   20.510657   22.601795 H          1 MOL1         0.0947
      14    C5      18.057276   19.757164   24.266678 C.3        1 MOL1        -0.1437
      15    H10     17.140825   20.363106   24.249130 H          1 MOL1         0.0947
      16    H11     17.743633   18.769084   24.628650 H          1 MOL1         0.0947
      17    C6      19.030157   20.429840   25.272480 C.3        1 MOL1        -0.1437
      18    H12     18.506123   20.565441   26.228056 H          1 MOL1         0.0947
      19    H13     19.263133   21.444031   24.920047 H          1 MOL1         0.0947
      20    C7      20.358656   19.675512   25.531116 C.3        1 MOL1        -0.1477
      21    H14     20.970120   19.683785   24.620574 H          1 MOL1         0.0947
      22    H15     20.941242   20.223159   26.283661 H          1 MOL1         0.0947
      23    C8      20.168227   18.221189   26.006842 C.3        1 MOL1         0.0145
      24    H16     21.145886   17.747538   26.130389 H          1 MOL1         0.0921
      25    H17     19.608369   17.657368   25.256439 H          1 MOL1         0.0921
      26    N1      19.429666   18.107237   27.325341 N.4        1 MOL1        -0.5969
      27    H18     19.923499   18.593937   28.080526 H          1 MOL1         0.3603
      28    H19     19.319995   17.130302   27.618352 H          1 MOL1         0.3603
      29    H20     18.490401   18.512836   27.266478 H          1 MOL1         0.3603
@<TRIPOS>BOND
    1     1     2    1
    2     1     3    1
    3     1     4    1
    4     1     5    1
    5     5     6    1
    6     5     7    1
    7     5     8    1
    8     8     9    1
    9     8    10    1
   10     8    11    1
   11    11    12    1
   12    11    13    1
   13    11    14    1
   14    14    15    1
   15    14    16    1
   16    14    17    1
   17    17    18    1
   18    17    19    1
   19    17    20    1
   20    20    21    1
   21    20    22    1
   22    20    23    1
   23    23    24    1
   24    23    25    1
   25    23    26    1
   26    26    27    1
   27    26    28    1
   28    26    29    1
@<TRIPOS>SUBSTRUCTURE
       1 MOL1            1 RESIDUE      1      MOL     
@<SCITEGIC>MOL_PROPERTY
VM2 Rank
SciTegic.value.IntegerValue
401

@<SCITEGIC>MOL_PROPERTY
Conf_Id
SciTegic.value.IntegerValue
624

@<SCITEGIC>MOL_PROPERTY
Probability
SciTegic.value.DoubleValue
0.00

@<SCITEGIC>MOL_PROPERTY
Sum Probability
SciTegic.value.DoubleValue
99.97

@<SCITEGIC>MOL_PROPERTY
Delta G
SciTegic.value.DoubleValue
4.799

@<SCITEGIC>MOL_PROPERTY
G
SciTegic.value.DoubleValue
62.945

@<SCITEGIC>MOL_PROPERTY
E
SciTegic.value.DoubleValue
24.773

@<SCITEGIC>MOL_PROPERTY
-TS
SciTegic.value.DoubleValue
38.172

@<SCITEGIC>MOL_PROPERTY
U+W
SciTegic.value.DoubleValue
0.629

@<SCITEGIC>MOL_PROPERTY
U
SciTegic.value.DoubleValue
53.096

@<SCITEGIC>MOL_PROPERTY
W
SciTegic.value.DoubleValue
-52.467

@<SCITEGIC>MOL_PROPERTY
W(PB)
SciTegic.value.DoubleValue
-54.850

@<SCITEGIC>MOL_PROPERTY
W(SA)
SciTegic.value.DoubleValue
2.382

@<SCITEGIC>MOL_PROPERTY
Valence
SciTegic.value.DoubleValue
6.476

@<SCITEGIC>MOL_PROPERTY
Coulomb
SciTegic.value.DoubleValue
46.057

@<SCITEGIC>MOL_PROPERTY
VdW
SciTegic.value.DoubleValue
0.563

@<SCITEGIC>MOL_PROPERTY
VdW6
SciTegic.value.DoubleValue
-11.156

@<SCITEGIC>MOL_PROPERTY
VdW12
SciTegic.value.DoubleValue
11.719

@<SCITEGIC>MOL_PROPERTY
Bond
SciTegic.value.DoubleValue
0.325

@<SCITEGIC>MOL_PROPERTY
Angle
SciTegic.value.DoubleValue
1.896

@<SCITEGIC>MOL_PROPERTY
Pdih
SciTegic.value.DoubleValue
4.256

@<SCITEGIC>MOL_PROPERTY
Idih
SciTegic.value.DoubleValue
0.000

@<SCITEGIC>MOL_PROPERTY
Tether
SciTegic.value.DoubleValue
0.000

@<TRIPOS>MOLECULE
guest-3_vm2.mol2 : vm2 ligand conformer 402
          29          28           1
SMALL
USER_CHARGES
 
@<TRIPOS>ATOM
       1    C1      19.134806   19.159138   20.055945 C.3        1 MOL1        -0.2427
       2    H1      18.311807   18.942686   19.362670 H          1 MOL1         0.0958
       3    H2      19.030922   20.203349   20.376355 H          1 MOL1         0.0958
       4    H3      20.076884   19.060683   19.501219 H          1 MOL1         0.0958
       5    C2      19.096377   18.192277   21.260751 C.3        1 MOL1        -0.1412
       6    H4      19.079980   17.160060   20.884106 H          1 MOL1         0.0947
       7    H5      18.155362   18.322062   21.810949 H          1 MOL1         0.0947
       8    C3      20.306400   18.346063   22.217872 C.3        1 MOL1        -0.1437
       9    H6      20.207013   17.615379   23.027428 H          1 MOL1         0.0947
      10    H7      21.215621   18.053358   21.675070 H          1 MOL1         0.0947
      11    C4      20.530526   19.770076   22.800937 C.3        1 MOL1        -0.1437
      12    H8      20.779781   20.443047   21.969834 H          1 MOL1         0.0947
      13    H9      21.423961   19.763243   23.439976 H          1 MOL1         0.0947
      14    C5      19.341216   20.387984   23.587510 C.3        1 MOL1        -0.1437
      15    H10     19.420053   21.480394   23.500291 H          1 MOL1         0.0947
      16    H11     18.382780   20.133782   23.119606 H          1 MOL1         0.0947
      17    C6      19.299692   20.056258   25.101692 C.3        1 MOL1        -0.1437
      18    H12     18.481884   20.635702   25.552294 H          1 MOL1         0.0947
      19    H13     20.224183   20.411567   25.576350 H          1 MOL1         0.0947
      20    C7      19.086767   18.559187   25.429084 C.3        1 MOL1        -0.1477
      21    H14     18.278171   18.156964   24.804531 H          1 MOL1         0.0947
      22    H15     19.993126   17.989538   25.192784 H          1 MOL1         0.0947
      23    C8      18.727616   18.324495   26.908741 C.3        1 MOL1         0.0145
      24    H16     18.529568   17.261492   27.070956 H          1 MOL1         0.0921
      25    H17     17.822048   18.882923   27.160665 H          1 MOL1         0.0921
      26    N1      19.820601   18.742522   27.872469 N.4        1 MOL1        -0.5969
      27    H18     20.693283   18.231920   27.702612 H          1 MOL1         0.3603
      28    H19     19.555465   18.568131   28.848072 H          1 MOL1         0.3603
      29    H20     20.033406   19.741844   27.792497 H          1 MOL1         0.3603
@<TRIPOS>BOND
    1     1     2    1
    2     1     3    1
    3     1     4    1
    4     1     5    1
    5     5     6    1
    6     5     7    1
    7     5     8    1
    8     8     9    1
    9     8    10    1
   10     8    11    1
   11    11    12    1
   12    11    13    1
   13    11    14    1
   14    14    15    1
   15    14    16    1
   16    14    17    1
   17    17    18    1
   18    17    19    1
   19    17    20    1
   20    20    21    1
   21    20    22    1
   22    20    23    1
   23    23    24    1
   24    23    25    1
   25    23    26    1
   26    26    27    1
   27    26    28    1
   28    26    29    1
@<TRIPOS>SUBSTRUCTURE
       1 MOL1            1 RESIDUE      1      MOL     
@<SCITEGIC>MOL_PROPERTY
VM2 Rank
SciTegic.value.IntegerValue
402

@<SCITEGIC>MOL_PROPERTY
Conf_Id
SciTegic.value.IntegerValue
1374

@<SCITEGIC>MOL_PROPERTY
Probability
SciTegic.value.DoubleValue
0.00

@<SCITEGIC>MOL_PROPERTY
Sum Probability
SciTegic.value.DoubleValue
99.97

@<SCITEGIC>MOL_PROPERTY
Delta G
SciTegic.value.DoubleValue
4.820

@<SCITEGIC>MOL_PROPERTY
G
SciTegic.value.DoubleValue
62.967

@<SCITEGIC>MOL_PROPERTY
E
SciTegic.value.DoubleValue
25.361

@<SCITEGIC>MOL_PROPERTY
-TS
SciTegic.value.DoubleValue
37.605

@<SCITEGIC>MOL_PROPERTY
U+W
SciTegic.value.DoubleValue
1.217

@<SCITEGIC>MOL_PROPERTY
U
SciTegic.value.DoubleValue
53.379

@<SCITEGIC>MOL_PROPERTY
W
SciTegic.value.DoubleValue
-52.162

@<SCITEGIC>MOL_PROPERTY
W(PB)
SciTegic.value.DoubleValue
-54.562

@<SCITEGIC>MOL_PROPERTY
W(SA)
SciTegic.value.DoubleValue
2.400

@<SCITEGIC>MOL_PROPERTY
Valence
SciTegic.value.DoubleValue
6.973

@<SCITEGIC>MOL_PROPERTY
Coulomb
SciTegic.value.DoubleValue
45.451

@<SCITEGIC>MOL_PROPERTY
VdW
SciTegic.value.DoubleValue
0.955

@<SCITEGIC>MOL_PROPERTY
VdW6
SciTegic.value.DoubleValue
-10.740

@<SCITEGIC>MOL_PROPERTY
VdW12
SciTegic.value.DoubleValue
11.695

@<SCITEGIC>MOL_PROPERTY
Bond
SciTegic.value.DoubleValue
0.375

@<SCITEGIC>MOL_PROPERTY
Angle
SciTegic.value.DoubleValue
2.531

@<SCITEGIC>MOL_PROPERTY
Pdih
SciTegic.value.DoubleValue
4.067

@<SCITEGIC>MOL_PROPERTY
Idih
SciTegic.value.DoubleValue
0.000

@<SCITEGIC>MOL_PROPERTY
Tether
SciTegic.value.DoubleValue
0.000

@<TRIPOS>MOLECULE
guest-3_vm2.mol2 : vm2 ligand conformer 403
          29          28           1
SMALL
USER_CHARGES
 
@<TRIPOS>ATOM
       1    C1      19.202534   19.364262   20.064869 C.3        1 MOL1        -0.2427
       2    H1      18.452739   18.613741   20.344788 H          1 MOL1         0.0958
       3    H2      18.714832   20.085420   19.396376 H          1 MOL1         0.0958
       4    H3      19.997015   18.862933   19.497073 H          1 MOL1         0.0958
       5    C2      19.776127   20.080513   21.308182 C.3        1 MOL1        -0.1412
       6    H4      18.962637   20.557692   21.869980 H          1 MOL1         0.0947
       7    H5      20.426753   20.900579   20.973851 H          1 MOL1         0.0947
       8    C3      20.598159   19.149126   22.235868 C.3        1 MOL1        -0.1437
       9    H6      21.491045   18.817018   21.688646 H          1 MOL1         0.0947
      10    H7      20.978941   19.739550   23.075815 H          1 MOL1         0.0947
      11    C4      19.854912   17.886549   22.756924 C.3        1 MOL1        -0.1437
      12    H8      20.538763   17.295656   23.381291 H          1 MOL1         0.0947
      13    H9      19.629223   17.244580   21.895118 H          1 MOL1         0.0947
      14    C5      18.533934   18.136213   23.536477 C.3        1 MOL1        -0.1437
      15    H10     17.962209   18.959734   23.092508 H          1 MOL1         0.0947
      16    H11     17.901230   17.247457   23.406163 H          1 MOL1         0.0947
      17    C6      18.692439   18.359356   25.062791 C.3        1 MOL1        -0.1437
      18    H12     19.174664   17.479725   25.509935 H          1 MOL1         0.0947
      19    H13     17.686773   18.413792   25.502428 H          1 MOL1         0.0947
      20    C7      19.473874   19.637003   25.451029 C.3        1 MOL1        -0.1477
      21    H14     20.539112   19.509911   25.225464 H          1 MOL1         0.0947
      22    H15     19.114045   20.484841   24.853227 H          1 MOL1         0.0947
      23    C8      19.323779   19.989339   26.943269 C.3        1 MOL1         0.0145
      24    H16     18.266053   20.124004   27.185015 H          1 MOL1         0.0921
      25    H17     19.843537   20.928952   27.149397 H          1 MOL1         0.0921
      26    N1      19.888242   18.935640   27.875591 N.4        1 MOL1        -0.5969
      27    H18     19.779929   19.201094   28.860636 H          1 MOL1         0.3603
      28    H19     20.888979   18.781791   27.714361 H          1 MOL1         0.3603
      29    H20     19.419089   18.032632   27.753938 H          1 MOL1         0.3603
@<TRIPOS>BOND
    1     1     2    1
    2     1     3    1
    3     1     4    1
    4     1     5    1
    5     5     6    1
    6     5     7    1
    7     5     8    1
    8     8     9    1
    9     8    10    1
   10     8    11    1
   11    11    12    1
   12    11    13    1
   13    11    14    1
   14    14    15    1
   15    14    16    1
   16    14    17    1
   17    17    18    1
   18    17    19    1
   19    17    20    1
   20    20    21    1
   21    20    22    1
   22    20    23    1
   23    23    24    1
   24    23    25    1
   25    23    26    1
   26    26    27    1
   27    26    28    1
   28    26    29    1
@<TRIPOS>SUBSTRUCTURE
       1 MOL1            1 RESIDUE      1      MOL     
@<SCITEGIC>MOL_PROPERTY
VM2 Rank
SciTegic.value.IntegerValue
403

@<SCITEGIC>MOL_PROPERTY
Conf_Id
SciTegic.value.IntegerValue
1046

@<SCITEGIC>MOL_PROPERTY
Probability
SciTegic.value.DoubleValue
0.00

@<SCITEGIC>MOL_PROPERTY
Sum Probability
SciTegic.value.DoubleValue
99.97

@<SCITEGIC>MOL_PROPERTY
Delta G
SciTegic.value.DoubleValue
4.838

@<SCITEGIC>MOL_PROPERTY
G
SciTegic.value.DoubleValue
62.985

@<SCITEGIC>MOL_PROPERTY
E
SciTegic.value.DoubleValue
25.387

@<SCITEGIC>MOL_PROPERTY
-TS
SciTegic.value.DoubleValue
37.598

@<SCITEGIC>MOL_PROPERTY
U+W
SciTegic.value.DoubleValue
1.243

@<SCITEGIC>MOL_PROPERTY
U
SciTegic.value.DoubleValue
53.380

@<SCITEGIC>MOL_PROPERTY
W
SciTegic.value.DoubleValue
-52.137

@<SCITEGIC>MOL_PROPERTY
W(PB)
SciTegic.value.DoubleValue
-54.543

@<SCITEGIC>MOL_PROPERTY
W(SA)
SciTegic.value.DoubleValue
2.406

@<SCITEGIC>MOL_PROPERTY
Valence
SciTegic.value.DoubleValue
6.975

@<SCITEGIC>MOL_PROPERTY
Coulomb
SciTegic.value.DoubleValue
45.454

@<SCITEGIC>MOL_PROPERTY
VdW
SciTegic.value.DoubleValue
0.951

@<SCITEGIC>MOL_PROPERTY
VdW6
SciTegic.value.DoubleValue
-10.746

@<SCITEGIC>MOL_PROPERTY
VdW12
SciTegic.value.DoubleValue
11.697

@<SCITEGIC>MOL_PROPERTY
Bond
SciTegic.value.DoubleValue
0.375

@<SCITEGIC>MOL_PROPERTY
Angle
SciTegic.value.DoubleValue
2.543

@<SCITEGIC>MOL_PROPERTY
Pdih
SciTegic.value.DoubleValue
4.058

@<SCITEGIC>MOL_PROPERTY
Idih
SciTegic.value.DoubleValue
0.000

@<SCITEGIC>MOL_PROPERTY
Tether
SciTegic.value.DoubleValue
0.000

@<TRIPOS>MOLECULE
guest-3_vm2.mol2 : vm2 ligand conformer 404
          29          28           1
SMALL
USER_CHARGES
 
@<TRIPOS>ATOM
       1    C1      21.395093   19.226370   20.811599 C.3        1 MOL1        -0.2427
       2    H1      21.735454   18.182828   20.790677 H          1 MOL1         0.0958
       3    H2      21.012481   19.481326   19.814686 H          1 MOL1         0.0958
       4    H3      22.267898   19.861950   21.009749 H          1 MOL1         0.0958
       5    C2      20.312696   19.434763   21.891677 C.3        1 MOL1        -0.1412
       6    H4      20.010914   20.491303   21.906927 H          1 MOL1         0.0947
       7    H5      20.745854   19.205205   22.873016 H          1 MOL1         0.0947
       8    C3      19.077617   18.540292   21.641505 C.3        1 MOL1        -0.1437
       9    H6      18.735739   18.686265   20.607533 H          1 MOL1         0.0947
      10    H7      19.370129   17.484110   21.719727 H          1 MOL1         0.0947
      11    C4      17.882803   18.816099   22.590429 C.3        1 MOL1        -0.1437
      12    H8      17.058787   18.158031   22.281693 H          1 MOL1         0.0947
      13    H9      17.512867   19.840121   22.443637 H          1 MOL1         0.0947
      14    C5      18.170117   18.555441   24.092170 C.3        1 MOL1        -0.1437
      15    H10     17.258862   18.149398   24.552683 H          1 MOL1         0.0947
      16    H11     18.934801   17.774076   24.193238 H          1 MOL1         0.0947
      17    C6      18.574312   19.832834   24.872724 C.3        1 MOL1        -0.1437
      18    H12     17.785918   20.588454   24.751959 H          1 MOL1         0.0947
      19    H13     19.481824   20.277064   24.448828 H          1 MOL1         0.0947
      20    C7      18.777182   19.578631   26.387397 C.3        1 MOL1        -0.1477
      21    H14     19.003397   20.529367   26.888135 H          1 MOL1         0.0947
      22    H15     17.835238   19.220148   26.823386 H          1 MOL1         0.0947
      23    C8      19.890148   18.561253   26.710305 C.3        1 MOL1         0.0145
      24    H16     19.658282   17.598700   26.247442 H          1 MOL1         0.0921
      25    H17     19.942979   18.413212   27.792324 H          1 MOL1         0.0921
      26    N1      21.264033   18.992318   26.237194 N.4        1 MOL1        -0.5969
      27    H18     21.289510   19.119500   25.221191 H          1 MOL1         0.3603
      28    H19     21.982669   18.299641   26.474740 H          1 MOL1         0.3603
      29    H20     21.550522   19.879830   26.663402 H          1 MOL1         0.3603
@<TRIPOS>BOND
    1     1     2    1
    2     1     3    1
    3     1     4    1
    4     1     5    1
    5     5     6    1
    6     5     7    1
    7     5     8    1
    8     8     9    1
    9     8    10    1
   10     8    11    1
   11    11    12    1
   12    11    13    1
   13    11    14    1
   14    14    15    1
   15    14    16    1
   16    14    17    1
   17    17    18    1
   18    17    19    1
   19    17    20    1
   20    20    21    1
   21    20    22    1
   22    20    23    1
   23    23    24    1
   24    23    25    1
   25    23    26    1
   26    26    27    1
   27    26    28    1
   28    26    29    1
@<TRIPOS>SUBSTRUCTURE
       1 MOL1            1 RESIDUE      1      MOL     
@<SCITEGIC>MOL_PROPERTY
VM2 Rank
SciTegic.value.IntegerValue
404

@<SCITEGIC>MOL_PROPERTY
Conf_Id
SciTegic.value.IntegerValue
687

@<SCITEGIC>MOL_PROPERTY
Probability
SciTegic.value.DoubleValue
0.00

@<SCITEGIC>MOL_PROPERTY
Sum Probability
SciTegic.value.DoubleValue
99.97

@<SCITEGIC>MOL_PROPERTY
Delta G
SciTegic.value.DoubleValue
4.864

@<SCITEGIC>MOL_PROPERTY
G
SciTegic.value.DoubleValue
63.010

@<SCITEGIC>MOL_PROPERTY
E
SciTegic.value.DoubleValue
25.239

@<SCITEGIC>MOL_PROPERTY
-TS
SciTegic.value.DoubleValue
37.772

@<SCITEGIC>MOL_PROPERTY
U+W
SciTegic.value.DoubleValue
1.094

@<SCITEGIC>MOL_PROPERTY
U
SciTegic.value.DoubleValue
53.627

@<SCITEGIC>MOL_PROPERTY
W
SciTegic.value.DoubleValue
-52.533

@<SCITEGIC>MOL_PROPERTY
W(PB)
SciTegic.value.DoubleValue
-54.952

@<SCITEGIC>MOL_PROPERTY
W(SA)
SciTegic.value.DoubleValue
2.420

@<SCITEGIC>MOL_PROPERTY
Valence
SciTegic.value.DoubleValue
6.009

@<SCITEGIC>MOL_PROPERTY
Coulomb
SciTegic.value.DoubleValue
47.034

@<SCITEGIC>MOL_PROPERTY
VdW
SciTegic.value.DoubleValue
0.585

@<SCITEGIC>MOL_PROPERTY
VdW6
SciTegic.value.DoubleValue
-10.174

@<SCITEGIC>MOL_PROPERTY
VdW12
SciTegic.value.DoubleValue
10.759

@<SCITEGIC>MOL_PROPERTY
Bond
SciTegic.value.DoubleValue
0.284

@<SCITEGIC>MOL_PROPERTY
Angle
SciTegic.value.DoubleValue
1.441

@<SCITEGIC>MOL_PROPERTY
Pdih
SciTegic.value.DoubleValue
4.284

@<SCITEGIC>MOL_PROPERTY
Idih
SciTegic.value.DoubleValue
0.000

@<SCITEGIC>MOL_PROPERTY
Tether
SciTegic.value.DoubleValue
0.000

@<TRIPOS>MOLECULE
guest-3_vm2.mol2 : vm2 ligand conformer 405
          29          28           1
SMALL
USER_CHARGES
 
@<TRIPOS>ATOM
       1    C1      20.489040   17.582634   21.768186 C.3        1 MOL1        -0.2427
       2    H1      20.169260   17.384059   22.797845 H          1 MOL1         0.0958
       3    H2      20.676248   16.611872   21.291312 H          1 MOL1         0.0958
       4    H3      21.438492   18.132786   21.795030 H          1 MOL1         0.0958
       5    C2      19.411632   18.367172   20.988617 C.3        1 MOL1        -0.1412
       6    H4      18.454980   17.829622   21.047786 H          1 MOL1         0.0947
       7    H5      19.687535   18.380393   19.924942 H          1 MOL1         0.0947
       8    C3      19.216575   19.830241   21.462078 C.3        1 MOL1        -0.1437
       9    H6      20.141987   20.402475   21.310225 H          1 MOL1         0.0947
      10    H7      18.471193   20.293524   20.800948 H          1 MOL1         0.0947
      11    C4      18.722220   19.980957   22.924480 C.3        1 MOL1        -0.1437
      12    H8      18.108961   19.112302   23.196856 H          1 MOL1         0.0947
      13    H9      18.056662   20.853520   22.976920 H          1 MOL1         0.0947
      14    C5      19.870533   20.189728   23.945042 C.3        1 MOL1        -0.1437
      15    H10     20.552363   19.332282   23.939554 H          1 MOL1         0.0947
      16    H11     20.473328   21.052028   23.628764 H          1 MOL1         0.0947
      17    C6      19.371376   20.452305   25.389336 C.3        1 MOL1        -0.1437
      18    H12     18.778270   21.377068   25.401639 H          1 MOL1         0.0947
      19    H13     20.239179   20.648036   26.033405 H          1 MOL1         0.0947
      20    C7      18.525268   19.307837   26.006539 C.3        1 MOL1        -0.1477
      21    H14     18.272843   19.565314   27.043682 H          1 MOL1         0.0947
      22    H15     17.567514   19.229440   25.476547 H          1 MOL1         0.0947
      23    C8      19.220377   17.932036   25.983399 C.3        1 MOL1         0.0145
      24    H16     19.439560   17.647862   24.951199 H          1 MOL1         0.0921
      25    H17     18.551656   17.179078   26.409210 H          1 MOL1         0.0921
      26    N1      20.516979   17.895090   26.767322 N.4        1 MOL1        -0.5969
      27    H18     21.198047   18.566896   26.400007 H          1 MOL1         0.3603
      28    H19     20.956408   16.968734   26.735122 H          1 MOL1         0.3603
      29    H20     20.369015   18.123180   27.755841 H          1 MOL1         0.3603
@<TRIPOS>BOND
    1     1     2    1
    2     1     3    1
    3     1     4    1
    4     1     5    1
    5     5     6    1
    6     5     7    1
    7     5     8    1
    8     8     9    1
    9     8    10    1
   10     8    11    1
   11    11    12    1
   12    11    13    1
   13    11    14    1
   14    14    15    1
   15    14    16    1
   16    14    17    1
   17    17    18    1
   18    17    19    1
   19    17    20    1
   20    20    21    1
   21    20    22    1
   22    20    23    1
   23    23    24    1
   24    23    25    1
   25    23    26    1
   26    26    27    1
   27    26    28    1
   28    26    29    1
@<TRIPOS>SUBSTRUCTURE
       1 MOL1            1 RESIDUE      1      MOL     
@<SCITEGIC>MOL_PROPERTY
VM2 Rank
SciTegic.value.IntegerValue
405

@<SCITEGIC>MOL_PROPERTY
Conf_Id
SciTegic.value.IntegerValue
1690

@<SCITEGIC>MOL_PROPERTY
Probability
SciTegic.value.DoubleValue
0.00

@<SCITEGIC>MOL_PROPERTY
Sum Probability
SciTegic.value.DoubleValue
99.98

@<SCITEGIC>MOL_PROPERTY
Delta G
SciTegic.value.DoubleValue
4.895

@<SCITEGIC>MOL_PROPERTY
G
SciTegic.value.DoubleValue
63.042

@<SCITEGIC>MOL_PROPERTY
E
SciTegic.value.DoubleValue
24.811

@<SCITEGIC>MOL_PROPERTY
-TS
SciTegic.value.DoubleValue
38.231

@<SCITEGIC>MOL_PROPERTY
U+W
SciTegic.value.DoubleValue
0.666

@<SCITEGIC>MOL_PROPERTY
U
SciTegic.value.DoubleValue
53.349

@<SCITEGIC>MOL_PROPERTY
W
SciTegic.value.DoubleValue
-52.683

@<SCITEGIC>MOL_PROPERTY
W(PB)
SciTegic.value.DoubleValue
-55.037

@<SCITEGIC>MOL_PROPERTY
W(SA)
SciTegic.value.DoubleValue
2.354

@<SCITEGIC>MOL_PROPERTY
Valence
SciTegic.value.DoubleValue
6.413

@<SCITEGIC>MOL_PROPERTY
Coulomb
SciTegic.value.DoubleValue
46.398

@<SCITEGIC>MOL_PROPERTY
VdW
SciTegic.value.DoubleValue
0.538

@<SCITEGIC>MOL_PROPERTY
VdW6
SciTegic.value.DoubleValue
-11.259

@<SCITEGIC>MOL_PROPERTY
VdW12
SciTegic.value.DoubleValue
11.797

@<SCITEGIC>MOL_PROPERTY
Bond
SciTegic.value.DoubleValue
0.329

@<SCITEGIC>MOL_PROPERTY
Angle
SciTegic.value.DoubleValue
1.770

@<SCITEGIC>MOL_PROPERTY
Pdih
SciTegic.value.DoubleValue
4.314

@<SCITEGIC>MOL_PROPERTY
Idih
SciTegic.value.DoubleValue
0.000

@<SCITEGIC>MOL_PROPERTY
Tether
SciTegic.value.DoubleValue
0.000

@<TRIPOS>MOLECULE
guest-3_vm2.mol2 : vm2 ligand conformer 406
          29          28           1
SMALL
USER_CHARGES
 
@<TRIPOS>ATOM
       1    C1      20.193057   18.197709   20.478387 C.3        1 MOL1        -0.2427
       2    H1      19.704050   17.457667   21.123910 H          1 MOL1         0.0958
       3    H2      20.190155   17.795291   19.457165 H          1 MOL1         0.0958
       4    H3      21.238717   18.302361   20.795344 H          1 MOL1         0.0958
       5    C2      19.458482   19.555166   20.525513 C.3        1 MOL1        -0.1412
       6    H4      18.403606   19.407943   20.254881 H          1 MOL1         0.0947
       7    H5      19.882020   20.212027   19.752958 H          1 MOL1         0.0947
       8    C3      19.547086   20.281614   21.891883 C.3        1 MOL1        -0.1437
       9    H6      20.593383   20.522667   22.124821 H          1 MOL1         0.0947
      10    H7      19.037108   21.249031   21.785264 H          1 MOL1         0.0947
      11    C4      18.894076   19.518571   23.073618 C.3        1 MOL1        -0.1437
      12    H8      18.081877   18.877400   22.704721 H          1 MOL1         0.0947
      13    H9      18.423763   20.256359   23.736856 H          1 MOL1         0.0947
      14    C5      19.907027   18.686237   23.900691 C.3        1 MOL1        -0.1437
      15    H10     20.475948   18.024752   23.236796 H          1 MOL1         0.0947
      16    H11     20.647039   19.357543   24.356097 H          1 MOL1         0.0947
      17    C6      19.239337   17.814546   24.995307 C.3        1 MOL1        -0.1437
      18    H12     20.015063   17.221996   25.498586 H          1 MOL1         0.0947
      19    H13     18.573621   17.084633   24.514503 H          1 MOL1         0.0947
      20    C7      18.430337   18.605076   26.056907 C.3        1 MOL1        -0.1477
      21    H14     17.550921   19.062451   25.585816 H          1 MOL1         0.0947
      22    H15     18.038275   17.904945   26.806430 H          1 MOL1         0.0947
      23    C8      19.241681   19.704979   26.770240 C.3        1 MOL1         0.0145
      24    H16     18.595654   20.233887   27.476163 H          1 MOL1         0.0921
      25    H17     19.607740   20.427751   26.036420 H          1 MOL1         0.0921
      26    N1      20.432918   19.174103   27.542454 N.4        1 MOL1        -0.5969
      27    H18     20.148411   18.510722   28.270508 H          1 MOL1         0.3603
      28    H19     20.952315   19.926612   28.007519 H          1 MOL1         0.3603
      29    H20     21.092125   18.685983   26.928166 H          1 MOL1         0.3603
@<TRIPOS>BOND
    1     1     2    1
    2     1     3    1
    3     1     4    1
    4     1     5    1
    5     5     6    1
    6     5     7    1
    7     5     8    1
    8     8     9    1
    9     8    10    1
   10     8    11    1
   11    11    12    1
   12    11    13    1
   13    11    14    1
   14    14    15    1
   15    14    16    1
   16    14    17    1
   17    17    18    1
   18    17    19    1
   19    17    20    1
   20    20    21    1
   21    20    22    1
   22    20    23    1
   23    23    24    1
   24    23    25    1
   25    23    26    1
   26    26    27    1
   27    26    28    1
   28    26    29    1
@<TRIPOS>SUBSTRUCTURE
       1 MOL1            1 RESIDUE      1      MOL     
@<SCITEGIC>MOL_PROPERTY
VM2 Rank
SciTegic.value.IntegerValue
406

@<SCITEGIC>MOL_PROPERTY
Conf_Id
SciTegic.value.IntegerValue
600

@<SCITEGIC>MOL_PROPERTY
Probability
SciTegic.value.DoubleValue
0.00

@<SCITEGIC>MOL_PROPERTY
Sum Probability
SciTegic.value.DoubleValue
99.98

@<SCITEGIC>MOL_PROPERTY
Delta G
SciTegic.value.DoubleValue
4.914

@<SCITEGIC>MOL_PROPERTY
G
SciTegic.value.DoubleValue
63.060

@<SCITEGIC>MOL_PROPERTY
E
SciTegic.value.DoubleValue
24.931

@<SCITEGIC>MOL_PROPERTY
-TS
SciTegic.value.DoubleValue
38.129

@<SCITEGIC>MOL_PROPERTY
U+W
SciTegic.value.DoubleValue
0.787

@<SCITEGIC>MOL_PROPERTY
U
SciTegic.value.DoubleValue
52.914

@<SCITEGIC>MOL_PROPERTY
W
SciTegic.value.DoubleValue
-52.128

@<SCITEGIC>MOL_PROPERTY
W(PB)
SciTegic.value.DoubleValue
-54.567

@<SCITEGIC>MOL_PROPERTY
W(SA)
SciTegic.value.DoubleValue
2.440

@<SCITEGIC>MOL_PROPERTY
Valence
SciTegic.value.DoubleValue
6.450

@<SCITEGIC>MOL_PROPERTY
Coulomb
SciTegic.value.DoubleValue
45.609

@<SCITEGIC>MOL_PROPERTY
VdW
SciTegic.value.DoubleValue
0.855

@<SCITEGIC>MOL_PROPERTY
VdW6
SciTegic.value.DoubleValue
-10.785

@<SCITEGIC>MOL_PROPERTY
VdW12
SciTegic.value.DoubleValue
11.640

@<SCITEGIC>MOL_PROPERTY
Bond
SciTegic.value.DoubleValue
0.323

@<SCITEGIC>MOL_PROPERTY
Angle
SciTegic.value.DoubleValue
1.665

@<SCITEGIC>MOL_PROPERTY
Pdih
SciTegic.value.DoubleValue
4.462

@<SCITEGIC>MOL_PROPERTY
Idih
SciTegic.value.DoubleValue
0.000

@<SCITEGIC>MOL_PROPERTY
Tether
SciTegic.value.DoubleValue
0.000

@<TRIPOS>MOLECULE
guest-3_vm2.mol2 : vm2 ligand conformer 407
          29          28           1
SMALL
USER_CHARGES
 
@<TRIPOS>ATOM
       1    C1      21.628422   18.915824   21.522196 C.3        1 MOL1        -0.2427
       2    H1      21.881509   18.010674   22.089432 H          1 MOL1         0.0958
       3    H2      21.515811   18.637423   20.466262 H          1 MOL1         0.0958
       4    H3      22.475268   19.610015   21.599154 H          1 MOL1         0.0958
       5    C2      20.339039   19.567218   22.064590 C.3        1 MOL1        -0.1412
       6    H4      20.128323   20.485781   21.499475 H          1 MOL1         0.0947
       7    H5      20.503656   19.868991   23.106464 H          1 MOL1         0.0947
       8    C3      19.129996   18.607121   21.964586 C.3        1 MOL1        -0.1437
       9    H6      19.003931   18.309086   20.914631 H          1 MOL1         0.0947
      10    H7      19.331414   17.678320   22.511953 H          1 MOL1         0.0947
      11    C4      17.799943   19.232080   22.453469 C.3        1 MOL1        -0.1437
      12    H8      16.990050   18.508421   22.287823 H          1 MOL1         0.0947
      13    H9      17.563170   20.092756   21.812895 H          1 MOL1         0.0947
      14    C5      17.760796   19.696740   23.934759 C.3        1 MOL1        -0.1437
      15    H10     18.487159   20.499973   24.106668 H          1 MOL1         0.0947
      16    H11     16.779404   20.163751   24.096191 H          1 MOL1         0.0947
      17    C6      17.915130   18.561629   24.984854 C.3        1 MOL1        -0.1437
      18    H12     17.467377   17.636887   24.595925 H          1 MOL1         0.0947
      19    H13     17.321164   18.826541   25.870645 H          1 MOL1         0.0947
      20    C7      19.365179   18.280103   25.454701 C.3        1 MOL1        -0.1477
      21    H14     19.349496   17.424361   26.142597 H          1 MOL1         0.0947
      22    H15     19.996525   17.981441   24.611621 H          1 MOL1         0.0947
      23    C8      20.003002   19.482262   26.176048 C.3        1 MOL1         0.0145
      24    H16     19.386955   19.765877   27.033594 H          1 MOL1         0.0921
      25    H17     20.061792   20.336068   25.496769 H          1 MOL1         0.0921
      26    N1      21.402494   19.195023   26.679798 N.4        1 MOL1        -0.5969
      27    H18     21.414597   18.418124   27.348912 H          1 MOL1         0.3603
      28    H19     21.809104   20.006769   27.157636 H          1 MOL1         0.3603
      29    H20     22.039967   18.946498   25.916207 H          1 MOL1         0.3603
@<TRIPOS>BOND
    1     1     2    1
    2     1     3    1
    3     1     4    1
    4     1     5    1
    5     5     6    1
    6     5     7    1
    7     5     8    1
    8     8     9    1
    9     8    10    1
   10     8    11    1
   11    11    12    1
   12    11    13    1
   13    11    14    1
   14    14    15    1
   15    14    16    1
   16    14    17    1
   17    17    18    1
   18    17    19    1
   19    17    20    1
   20    20    21    1
   21    20    22    1
   22    20    23    1
   23    23    24    1
   24    23    25    1
   25    23    26    1
   26    26    27    1
   27    26    28    1
   28    26    29    1
@<TRIPOS>SUBSTRUCTURE
       1 MOL1            1 RESIDUE      1      MOL     
@<SCITEGIC>MOL_PROPERTY
VM2 Rank
SciTegic.value.IntegerValue
407

@<SCITEGIC>MOL_PROPERTY
Conf_Id
SciTegic.value.IntegerValue
2951

@<SCITEGIC>MOL_PROPERTY
Probability
SciTegic.value.DoubleValue
0.00

@<SCITEGIC>MOL_PROPERTY
Sum Probability
SciTegic.value.DoubleValue
99.98

@<SCITEGIC>MOL_PROPERTY
Delta G
SciTegic.value.DoubleValue
5.011

@<SCITEGIC>MOL_PROPERTY
G
SciTegic.value.DoubleValue
63.157

@<SCITEGIC>MOL_PROPERTY
E
SciTegic.value.DoubleValue
24.857

@<SCITEGIC>MOL_PROPERTY
-TS
SciTegic.value.DoubleValue
38.300

@<SCITEGIC>MOL_PROPERTY
U+W
SciTegic.value.DoubleValue
0.712

@<SCITEGIC>MOL_PROPERTY
U
SciTegic.value.DoubleValue
53.539

@<SCITEGIC>MOL_PROPERTY
W
SciTegic.value.DoubleValue
-52.827

@<SCITEGIC>MOL_PROPERTY
W(PB)
SciTegic.value.DoubleValue
-55.205

@<SCITEGIC>MOL_PROPERTY
W(SA)
SciTegic.value.DoubleValue
2.379

@<SCITEGIC>MOL_PROPERTY
Valence
SciTegic.value.DoubleValue
6.581

@<SCITEGIC>MOL_PROPERTY
Coulomb
SciTegic.value.DoubleValue
46.682

@<SCITEGIC>MOL_PROPERTY
VdW
SciTegic.value.DoubleValue
0.276

@<SCITEGIC>MOL_PROPERTY
VdW6
SciTegic.value.DoubleValue
-10.908

@<SCITEGIC>MOL_PROPERTY
VdW12
SciTegic.value.DoubleValue
11.183

@<SCITEGIC>MOL_PROPERTY
Bond
SciTegic.value.DoubleValue
0.323

@<SCITEGIC>MOL_PROPERTY
Angle
SciTegic.value.DoubleValue
2.235

@<SCITEGIC>MOL_PROPERTY
Pdih
SciTegic.value.DoubleValue
4.024

@<SCITEGIC>MOL_PROPERTY
Idih
SciTegic.value.DoubleValue
0.000

@<SCITEGIC>MOL_PROPERTY
Tether
SciTegic.value.DoubleValue
0.000

@<TRIPOS>MOLECULE
guest-3_vm2.mol2 : vm2 ligand conformer 408
          29          28           1
SMALL
USER_CHARGES
 
@<TRIPOS>ATOM
       1    C1      21.187833   19.247481   21.324052 C.3        1 MOL1        -0.2427
       2    H1      21.538513   20.172843   21.798961 H          1 MOL1         0.0958
       3    H2      21.302571   18.429783   22.042878 H          1 MOL1         0.0958
       4    H3      21.853661   19.034928   20.477689 H          1 MOL1         0.0958
       5    C2      19.728181   19.393254   20.835983 C.3        1 MOL1        -0.1412
       6    H4      19.392133   18.462330   20.358707 H          1 MOL1         0.0947
       7    H5      19.714440   20.158339   20.047135 H          1 MOL1         0.0947
       8    C3      18.730600   19.820728   21.943985 C.3        1 MOL1        -0.1437
       9    H6      19.212126   20.507112   22.652597 H          1 MOL1         0.0947
      10    H7      17.937271   20.410985   21.464994 H          1 MOL1         0.0947
      11    C4      18.036419   18.649891   22.691154 C.3        1 MOL1        -0.1437
      12    H8      17.530852   18.010809   21.954371 H          1 MOL1         0.0947
      13    H9      17.231900   19.060926   23.314938 H          1 MOL1         0.0947
      14    C5      18.951383   17.759653   23.571930 C.3        1 MOL1        -0.1437
      15    H10     18.329708   16.992926   24.054244 H          1 MOL1         0.0947
      16    H11     19.645170   17.204817   22.928334 H          1 MOL1         0.0947
      17    C6      19.752172   18.509688   24.668168 C.3        1 MOL1        -0.1437
      18    H12     20.439542   19.230648   24.207701 H          1 MOL1         0.0947
      19    H13     20.384101   17.777270   25.187253 H          1 MOL1         0.0947
      20    C7      18.853775   19.236796   25.699432 C.3        1 MOL1        -0.1477
      21    H14     18.247724   19.997169   25.191259 H          1 MOL1         0.0947
      22    H15     18.151439   18.526094   26.154719 H          1 MOL1         0.0947
      23    C8      19.666461   19.937667   26.804975 C.3        1 MOL1         0.0145
      24    H16     18.989422   20.511458   27.443642 H          1 MOL1         0.0921
      25    H17     20.380017   20.632126   26.353391 H          1 MOL1         0.0921
      26    N1      20.437176   18.982842   27.695321 N.4        1 MOL1        -0.5969
      27    H18     19.815799   18.317102   28.166416 H          1 MOL1         0.3603
      28    H19     20.955439   19.479866   28.428051 H          1 MOL1         0.3603
      29    H20     21.120297   18.435346   27.162716 H          1 MOL1         0.3603
@<TRIPOS>BOND
    1     1     2    1
    2     1     3    1
    3     1     4    1
    4     1     5    1
    5     5     6    1
    6     5     7    1
    7     5     8    1
    8     8     9    1
    9     8    10    1
   10     8    11    1
   11    11    12    1
   12    11    13    1
   13    11    14    1
   14    14    15    1
   15    14    16    1
   16    14    17    1
   17    17    18    1
   18    17    19    1
   19    17    20    1
   20    20    21    1
   21    20    22    1
   22    20    23    1
   23    23    24    1
   24    23    25    1
   25    23    26    1
   26    26    27    1
   27    26    28    1
   28    26    29    1
@<TRIPOS>SUBSTRUCTURE
       1 MOL1            1 RESIDUE      1      MOL     
@<SCITEGIC>MOL_PROPERTY
VM2 Rank
SciTegic.value.IntegerValue
408

@<SCITEGIC>MOL_PROPERTY
Conf_Id
SciTegic.value.IntegerValue
997

@<SCITEGIC>MOL_PROPERTY
Probability
SciTegic.value.DoubleValue
0.00

@<SCITEGIC>MOL_PROPERTY
Sum Probability
SciTegic.value.DoubleValue
99.98

@<SCITEGIC>MOL_PROPERTY
Delta G
SciTegic.value.DoubleValue
5.016

@<SCITEGIC>MOL_PROPERTY
G
SciTegic.value.DoubleValue
63.162

@<SCITEGIC>MOL_PROPERTY
E
SciTegic.value.DoubleValue
24.822

@<SCITEGIC>MOL_PROPERTY
-TS
SciTegic.value.DoubleValue
38.340

@<SCITEGIC>MOL_PROPERTY
U+W
SciTegic.value.DoubleValue
0.677

@<SCITEGIC>MOL_PROPERTY
U
SciTegic.value.DoubleValue
52.977

@<SCITEGIC>MOL_PROPERTY
W
SciTegic.value.DoubleValue
-52.299

@<SCITEGIC>MOL_PROPERTY
W(PB)
SciTegic.value.DoubleValue
-54.668

@<SCITEGIC>MOL_PROPERTY
W(SA)
SciTegic.value.DoubleValue
2.369

@<SCITEGIC>MOL_PROPERTY
Valence
SciTegic.value.DoubleValue
6.751

@<SCITEGIC>MOL_PROPERTY
Coulomb
SciTegic.value.DoubleValue
45.559

@<SCITEGIC>MOL_PROPERTY
VdW
SciTegic.value.DoubleValue
0.667

@<SCITEGIC>MOL_PROPERTY
VdW6
SciTegic.value.DoubleValue
-11.105

@<SCITEGIC>MOL_PROPERTY
VdW12
SciTegic.value.DoubleValue
11.772

@<SCITEGIC>MOL_PROPERTY
Bond
SciTegic.value.DoubleValue
0.347

@<SCITEGIC>MOL_PROPERTY
Angle
SciTegic.value.DoubleValue
2.334

@<SCITEGIC>MOL_PROPERTY
Pdih
SciTegic.value.DoubleValue
4.070

@<SCITEGIC>MOL_PROPERTY
Idih
SciTegic.value.DoubleValue
0.000

@<SCITEGIC>MOL_PROPERTY
Tether
SciTegic.value.DoubleValue
0.000

@<TRIPOS>MOLECULE
guest-3_vm2.mol2 : vm2 ligand conformer 409
          29          28           1
SMALL
USER_CHARGES
 
@<TRIPOS>ATOM
       1    C1      19.962811   19.966572   20.196775 C.3        1 MOL1        -0.2427
       2    H1      20.635856   20.376414   19.432606 H          1 MOL1         0.0958
       3    H2      19.083806   19.554731   19.684172 H          1 MOL1         0.0958
       4    H3      19.633623   20.801236   20.828017 H          1 MOL1         0.0958
       5    C2      20.683447   18.878639   21.024696 C.3        1 MOL1        -0.1412
       6    H4      21.540207   19.322060   21.551006 H          1 MOL1         0.0947
       7    H5      21.099372   18.128408   20.337740 H          1 MOL1         0.0947
       8    C3      19.758198   18.164170   22.038957 C.3        1 MOL1        -0.1437
       9    H6      18.917202   17.701047   21.504615 H          1 MOL1         0.0947
      10    H7      20.319610   17.341675   22.502982 H          1 MOL1         0.0947
      11    C4      19.219920   19.100355   23.147076 C.3        1 MOL1        -0.1437
      12    H8      18.586998   19.879167   22.701886 H          1 MOL1         0.0947
      13    H9      20.063164   19.613632   23.625099 H          1 MOL1         0.0947
      14    C5      18.393664   18.323273   24.200132 C.3        1 MOL1        -0.1437
      15    H10     17.570025   17.806501   23.688216 H          1 MOL1         0.0947
      16    H11     18.999682   17.530409   24.655348 H          1 MOL1         0.0947
      17    C6      17.785028   19.227335   25.302066 C.3        1 MOL1        -0.1437
      18    H12     17.176184   18.602758   25.970293 H          1 MOL1         0.0947
      19    H13     17.084270   19.930947   24.831860 H          1 MOL1         0.0947
      20    C7      18.794848   20.036044   26.160034 C.3        1 MOL1        -0.1477
      21    H14     19.348227   20.754451   25.542034 H          1 MOL1         0.0947
      22    H15     18.217154   20.642173   26.870390 H          1 MOL1         0.0947
      23    C8      19.774752   19.168264   26.976647 C.3        1 MOL1         0.0145
      24    H16     19.247511   18.302877   27.386932 H          1 MOL1         0.0921
      25    H17     20.163448   19.756481   27.812314 H          1 MOL1         0.0921
      26    N1      20.971330   18.673348   26.188617 N.4        1 MOL1        -0.5969
      27    H18     20.682122   18.135136   25.366239 H          1 MOL1         0.3603
      28    H19     21.576292   18.068530   26.755146 H          1 MOL1         0.3603
      29    H20     21.551693   19.450012   25.855380 H          1 MOL1         0.3603
@<TRIPOS>BOND
    1     1     2    1
    2     1     3    1
    3     1     4    1
    4     1     5    1
    5     5     6    1
    6     5     7    1
    7     5     8    1
    8     8     9    1
    9     8    10    1
   10     8    11    1
   11    11    12    1
   12    11    13    1
   13    11    14    1
   14    14    15    1
   15    14    16    1
   16    14    17    1
   17    17    18    1
   18    17    19    1
   19    17    20    1
   20    20    21    1
   21    20    22    1
   22    20    23    1
   23    23    24    1
   24    23    25    1
   25    23    26    1
   26    26    27    1
   27    26    28    1
   28    26    29    1
@<TRIPOS>SUBSTRUCTURE
       1 MOL1            1 RESIDUE      1      MOL     
@<SCITEGIC>MOL_PROPERTY
VM2 Rank
SciTegic.value.IntegerValue
409

@<SCITEGIC>MOL_PROPERTY
Conf_Id
SciTegic.value.IntegerValue
1643

@<SCITEGIC>MOL_PROPERTY
Probability
SciTegic.value.DoubleValue
0.00

@<SCITEGIC>MOL_PROPERTY
Sum Probability
SciTegic.value.DoubleValue
99.98

@<SCITEGIC>MOL_PROPERTY
Delta G
SciTegic.value.DoubleValue
5.017

@<SCITEGIC>MOL_PROPERTY
G
SciTegic.value.DoubleValue
63.163

@<SCITEGIC>MOL_PROPERTY
E
SciTegic.value.DoubleValue
25.087

@<SCITEGIC>MOL_PROPERTY
-TS
SciTegic.value.DoubleValue
38.077

@<SCITEGIC>MOL_PROPERTY
U+W
SciTegic.value.DoubleValue
0.942

@<SCITEGIC>MOL_PROPERTY
U
SciTegic.value.DoubleValue
52.883

@<SCITEGIC>MOL_PROPERTY
W
SciTegic.value.DoubleValue
-51.941

@<SCITEGIC>MOL_PROPERTY
W(PB)
SciTegic.value.DoubleValue
-54.354

@<SCITEGIC>MOL_PROPERTY
W(SA)
SciTegic.value.DoubleValue
2.413

@<SCITEGIC>MOL_PROPERTY
Valence
SciTegic.value.DoubleValue
5.142

@<SCITEGIC>MOL_PROPERTY
Coulomb
SciTegic.value.DoubleValue
47.176

@<SCITEGIC>MOL_PROPERTY
VdW
SciTegic.value.DoubleValue
0.566

@<SCITEGIC>MOL_PROPERTY
VdW6
SciTegic.value.DoubleValue
-10.484

@<SCITEGIC>MOL_PROPERTY
VdW12
SciTegic.value.DoubleValue
11.050

@<SCITEGIC>MOL_PROPERTY
Bond
SciTegic.value.DoubleValue
0.281

@<SCITEGIC>MOL_PROPERTY
Angle
SciTegic.value.DoubleValue
1.693

@<SCITEGIC>MOL_PROPERTY
Pdih
SciTegic.value.DoubleValue
3.167

@<SCITEGIC>MOL_PROPERTY
Idih
SciTegic.value.DoubleValue
0.000

@<SCITEGIC>MOL_PROPERTY
Tether
SciTegic.value.DoubleValue
0.000

@<TRIPOS>MOLECULE
guest-3_vm2.mol2 : vm2 ligand conformer 410
          29          28           1
SMALL
USER_CHARGES
 
@<TRIPOS>ATOM
       1    C1      21.388660   19.653820   21.720977 C.3        1 MOL1        -0.2427
       2    H1      21.657223   18.834027   22.397660 H          1 MOL1         0.0958
       3    H2      21.543915   19.311693   20.689573 H          1 MOL1         0.0958
       4    H3      22.088703   20.478159   21.908794 H          1 MOL1         0.0958
       5    C2      19.931699   20.123723   21.936468 C.3        1 MOL1        -0.1412
       6    H4      19.758909   21.011995   21.313029 H          1 MOL1         0.0947
       7    H5      19.801902   20.456438   22.972223 H          1 MOL1         0.0947
       8    C3      18.875805   19.051792   21.560349 C.3        1 MOL1        -0.1437
       9    H6      17.877036   19.509174   21.553045 H          1 MOL1         0.0947
      10    H7      19.063572   18.743449   20.522622 H          1 MOL1         0.0947
      11    C4      18.854737   17.781414   22.454980 C.3        1 MOL1        -0.1437
      12    H8      19.861189   17.521944   22.802539 H          1 MOL1         0.0947
      13    H9      18.547629   16.937429   21.822141 H          1 MOL1         0.0947
      14    C5      17.861438   17.836513   23.647364 C.3        1 MOL1        -0.1437
      15    H10     16.846750   17.992051   23.255810 H          1 MOL1         0.0947
      16    H11     17.843692   16.850620   24.131998 H          1 MOL1         0.0947
      17    C6      18.146688   18.910957   24.725612 C.3        1 MOL1        -0.1437
      18    H12     17.353078   18.857266   25.483743 H          1 MOL1         0.0947
      19    H13     18.068834   19.913144   24.286047 H          1 MOL1         0.0947
      20    C7      19.514095   18.734142   25.426679 C.3        1 MOL1        -0.1477
      21    H14     19.573944   17.730912   25.869029 H          1 MOL1         0.0947
      22    H15     20.329054   18.812275   24.697103 H          1 MOL1         0.0947
      23    C8      19.720552   19.791403   26.524970 C.3        1 MOL1         0.0145
      24    H16     18.926814   19.706208   27.272059 H          1 MOL1         0.0921
      25    H17     19.674621   20.791755   26.086116 H          1 MOL1         0.0921
      26    N1      21.050326   19.654236   27.237602 N.4        1 MOL1        -0.5969
      27    H18     21.841304   19.753025   26.592689 H          1 MOL1         0.3603
      28    H19     21.145359   18.741639   27.695413 H          1 MOL1         0.3603
      29    H20     21.167134   20.367433   27.965862 H          1 MOL1         0.3603
@<TRIPOS>BOND
    1     1     2    1
    2     1     3    1
    3     1     4    1
    4     1     5    1
    5     5     6    1
    6     5     7    1
    7     5     8    1
    8     8     9    1
    9     8    10    1
   10     8    11    1
   11    11    12    1
   12    11    13    1
   13    11    14    1
   14    14    15    1
   15    14    16    1
   16    14    17    1
   17    17    18    1
   18    17    19    1
   19    17    20    1
   20    20    21    1
   21    20    22    1
   22    20    23    1
   23    23    24    1
   24    23    25    1
   25    23    26    1
   26    26    27    1
   27    26    28    1
   28    26    29    1
@<TRIPOS>SUBSTRUCTURE
       1 MOL1            1 RESIDUE      1      MOL     
@<SCITEGIC>MOL_PROPERTY
VM2 Rank
SciTegic.value.IntegerValue
410

@<SCITEGIC>MOL_PROPERTY
Conf_Id
SciTegic.value.IntegerValue
2153

@<SCITEGIC>MOL_PROPERTY
Probability
SciTegic.value.DoubleValue
0.00

@<SCITEGIC>MOL_PROPERTY
Sum Probability
SciTegic.value.DoubleValue
99.98

@<SCITEGIC>MOL_PROPERTY
Delta G
SciTegic.value.DoubleValue
5.019

@<SCITEGIC>MOL_PROPERTY
G
SciTegic.value.DoubleValue
63.165

@<SCITEGIC>MOL_PROPERTY
E
SciTegic.value.DoubleValue
24.842

@<SCITEGIC>MOL_PROPERTY
-TS
SciTegic.value.DoubleValue
38.324

@<SCITEGIC>MOL_PROPERTY
U+W
SciTegic.value.DoubleValue
0.697

@<SCITEGIC>MOL_PROPERTY
U
SciTegic.value.DoubleValue
53.285

@<SCITEGIC>MOL_PROPERTY
W
SciTegic.value.DoubleValue
-52.588

@<SCITEGIC>MOL_PROPERTY
W(PB)
SciTegic.value.DoubleValue
-54.953

@<SCITEGIC>MOL_PROPERTY
W(SA)
SciTegic.value.DoubleValue
2.365

@<SCITEGIC>MOL_PROPERTY
Valence
SciTegic.value.DoubleValue
6.888

@<SCITEGIC>MOL_PROPERTY
Coulomb
SciTegic.value.DoubleValue
45.950

@<SCITEGIC>MOL_PROPERTY
VdW
SciTegic.value.DoubleValue
0.447

@<SCITEGIC>MOL_PROPERTY
VdW6
SciTegic.value.DoubleValue
-10.702

@<SCITEGIC>MOL_PROPERTY
VdW12
SciTegic.value.DoubleValue
11.150

@<SCITEGIC>MOL_PROPERTY
Bond
SciTegic.value.DoubleValue
0.336

@<SCITEGIC>MOL_PROPERTY
Angle
SciTegic.value.DoubleValue
2.315

@<SCITEGIC>MOL_PROPERTY
Pdih
SciTegic.value.DoubleValue
4.237

@<SCITEGIC>MOL_PROPERTY
Idih
SciTegic.value.DoubleValue
0.000

@<SCITEGIC>MOL_PROPERTY
Tether
SciTegic.value.DoubleValue
0.000

@<TRIPOS>MOLECULE
guest-3_vm2.mol2 : vm2 ligand conformer 411
          29          28           1
SMALL
USER_CHARGES
 
@<TRIPOS>ATOM
       1    C1      21.063658   18.918373   20.735103 C.3        1 MOL1        -0.2427
       2    H1      21.489404   19.247890   21.689319 H          1 MOL1         0.0958
       3    H2      21.343930   17.867540   20.585933 H          1 MOL1         0.0958
       4    H3      21.537670   19.505700   19.938084 H          1 MOL1         0.0958
       5    C2      19.527287   19.089978   20.693053 C.3        1 MOL1        -0.1412
       6    H4      19.175885   18.754082   19.707385 H          1 MOL1         0.0947
       7    H5      19.259143   20.153356   20.762873 H          1 MOL1         0.0947
       8    C3      18.789123   18.274575   21.785733 C.3        1 MOL1        -0.1437
       9    H6      17.851520   17.896727   21.355068 H          1 MOL1         0.0947
      10    H7      19.371858   17.382306   22.052964 H          1 MOL1         0.0947
      11    C4      18.425632   19.074559   23.063333 C.3        1 MOL1        -0.1437
      12    H8      17.850230   18.409531   23.719621 H          1 MOL1         0.0947
      13    H9      17.752914   19.901314   22.797164 H          1 MOL1         0.0947
      14    C5      19.647073   19.633429   23.833666 C.3        1 MOL1        -0.1437
      15    H10     20.356681   18.822457   24.043783 H          1 MOL1         0.0947
      16    H11     20.176628   20.349760   23.192935 H          1 MOL1         0.0947
      17    C6      19.270512   20.367503   25.146959 C.3        1 MOL1        -0.1437
      18    H12     18.622079   21.221457   24.907327 H          1 MOL1         0.0947
      19    H13     20.181464   20.800167   25.581938 H          1 MOL1         0.0947
      20    C7      18.566716   19.488632   26.214432 C.3        1 MOL1        -0.1477
      21    H14     18.405483   20.085048   27.122171 H          1 MOL1         0.0947
      22    H15     17.566503   19.206900   25.861989 H          1 MOL1         0.0947
      23    C8      19.343480   18.209191   26.583806 C.3        1 MOL1         0.0145
      24    H16     19.478133   17.589651   25.693307 H          1 MOL1         0.0921
      25    H17     18.770073   17.633634   27.315490 H          1 MOL1         0.0921
      26    N1      20.710520   18.481760   27.178914 N.4        1 MOL1        -0.5969
      27    H18     21.307254   19.001472   26.527798 H          1 MOL1         0.3603
      28    H19     21.203642   17.613905   27.415515 H          1 MOL1         0.3603
      29    H20     20.646377   19.035250   28.039506 H          1 MOL1         0.3603
@<TRIPOS>BOND
    1     1     2    1
    2     1     3    1
    3     1     4    1
    4     1     5    1
    5     5     6    1
    6     5     7    1
    7     5     8    1
    8     8     9    1
    9     8    10    1
   10     8    11    1
   11    11    12    1
   12    11    13    1
   13    11    14    1
   14    14    15    1
   15    14    16    1
   16    14    17    1
   17    17    18    1
   18    17    19    1
   19    17    20    1
   20    20    21    1
   21    20    22    1
   22    20    23    1
   23    23    24    1
   24    23    25    1
   25    23    26    1
   26    26    27    1
   27    26    28    1
   28    26    29    1
@<TRIPOS>SUBSTRUCTURE
       1 MOL1            1 RESIDUE      1      MOL     
@<SCITEGIC>MOL_PROPERTY
VM2 Rank
SciTegic.value.IntegerValue
411

@<SCITEGIC>MOL_PROPERTY
Conf_Id
SciTegic.value.IntegerValue
277

@<SCITEGIC>MOL_PROPERTY
Probability
SciTegic.value.DoubleValue
0.00

@<SCITEGIC>MOL_PROPERTY
Sum Probability
SciTegic.value.DoubleValue
99.98

@<SCITEGIC>MOL_PROPERTY
Delta G
SciTegic.value.DoubleValue
5.022

@<SCITEGIC>MOL_PROPERTY
G
SciTegic.value.DoubleValue
63.168

@<SCITEGIC>MOL_PROPERTY
E
SciTegic.value.DoubleValue
25.120

@<SCITEGIC>MOL_PROPERTY
-TS
SciTegic.value.DoubleValue
38.049

@<SCITEGIC>MOL_PROPERTY
U+W
SciTegic.value.DoubleValue
0.975

@<SCITEGIC>MOL_PROPERTY
U
SciTegic.value.DoubleValue
53.225

@<SCITEGIC>MOL_PROPERTY
W
SciTegic.value.DoubleValue
-52.250

@<SCITEGIC>MOL_PROPERTY
W(PB)
SciTegic.value.DoubleValue
-54.667

@<SCITEGIC>MOL_PROPERTY
W(SA)
SciTegic.value.DoubleValue
2.417

@<SCITEGIC>MOL_PROPERTY
Valence
SciTegic.value.DoubleValue
6.562

@<SCITEGIC>MOL_PROPERTY
Coulomb
SciTegic.value.DoubleValue
45.742

@<SCITEGIC>MOL_PROPERTY
VdW
SciTegic.value.DoubleValue
0.921

@<SCITEGIC>MOL_PROPERTY
VdW6
SciTegic.value.DoubleValue
-10.737

@<SCITEGIC>MOL_PROPERTY
VdW12
SciTegic.value.DoubleValue
11.658

@<SCITEGIC>MOL_PROPERTY
Bond
SciTegic.value.DoubleValue
0.330

@<SCITEGIC>MOL_PROPERTY
Angle
SciTegic.value.DoubleValue
1.826

@<SCITEGIC>MOL_PROPERTY
Pdih
SciTegic.value.DoubleValue
4.407

@<SCITEGIC>MOL_PROPERTY
Idih
SciTegic.value.DoubleValue
0.000

@<SCITEGIC>MOL_PROPERTY
Tether
SciTegic.value.DoubleValue
0.000

@<TRIPOS>MOLECULE
guest-3_vm2.mol2 : vm2 ligand conformer 412
          29          28           1
SMALL
USER_CHARGES
 
@<TRIPOS>ATOM
       1    C1      20.879369   20.307869   21.917470 C.3        1 MOL1        -0.2427
       2    H1      20.947486   20.010343   22.970563 H          1 MOL1         0.0958
       3    H2      21.716909   19.847178   21.377891 H          1 MOL1         0.0958
       4    H3      21.008684   21.396850   21.871387 H          1 MOL1         0.0958
       5    C2      19.526511   19.896246   21.293114 C.3        1 MOL1        -0.1412
       6    H4      19.480875   20.289569   20.268039 H          1 MOL1         0.0947
       7    H5      18.697279   20.374080   21.829516 H          1 MOL1         0.0947
       8    C3      19.316041   18.363466   21.238363 C.3        1 MOL1        -0.1437
       9    H6      18.369125   18.155233   20.721643 H          1 MOL1         0.0947
      10    H7      20.100988   17.927230   20.605381 H          1 MOL1         0.0947
      11    C4      19.317726   17.622725   22.603021 C.3        1 MOL1        -0.1437
      12    H8      20.286545   17.739716   23.101592 H          1 MOL1         0.0947
      13    H9      19.239131   16.549027   22.383717 H          1 MOL1         0.0947
      14    C5      18.142639   17.992358   23.550434 C.3        1 MOL1        -0.1437
      15    H10     17.258721   18.247262   22.949970 H          1 MOL1         0.0947
      16    H11     17.859345   17.097165   24.121063 H          1 MOL1         0.0947
      17    C6      18.425018   19.134848   24.561253 C.3        1 MOL1        -0.1437
      18    H12     17.480116   19.392135   25.059675 H          1 MOL1         0.0947
      19    H13     18.746079   20.043466   24.040188 H          1 MOL1         0.0947
      20    C7      19.465137   18.760718   25.643774 C.3        1 MOL1        -0.1477
      21    H14     19.148529   17.844309   26.159282 H          1 MOL1         0.0947
      22    H15     20.438387   18.551767   25.183770 H          1 MOL1         0.0947
      23    C8      19.631948   19.892954   26.672183 C.3        1 MOL1         0.0145
      24    H16     18.672147   20.096529   27.154646 H          1 MOL1         0.0921
      25    H17     19.963187   20.803882   26.166270 H          1 MOL1         0.0921
      26    N1      20.639611   19.566816   27.755388 N.4        1 MOL1        -0.5969
      27    H18     21.572941   19.391404   27.368733 H          1 MOL1         0.3603
      28    H19     20.371145   18.732392   28.287505 H          1 MOL1         0.3603
      29    H20     20.734759   20.333753   28.430241 H          1 MOL1         0.3603
@<TRIPOS>BOND
    1     1     2    1
    2     1     3    1
    3     1     4    1
    4     1     5    1
    5     5     6    1
    6     5     7    1
    7     5     8    1
    8     8     9    1
    9     8    10    1
   10     8    11    1
   11    11    12    1
   12    11    13    1
   13    11    14    1
   14    14    15    1
   15    14    16    1
   16    14    17    1
   17    17    18    1
   18    17    19    1
   19    17    20    1
   20    20    21    1
   21    20    22    1
   22    20    23    1
   23    23    24    1
   24    23    25    1
   25    23    26    1
   26    26    27    1
   27    26    28    1
   28    26    29    1
@<TRIPOS>SUBSTRUCTURE
       1 MOL1            1 RESIDUE      1      MOL     
@<SCITEGIC>MOL_PROPERTY
VM2 Rank
SciTegic.value.IntegerValue
412

@<SCITEGIC>MOL_PROPERTY
Conf_Id
SciTegic.value.IntegerValue
2230

@<SCITEGIC>MOL_PROPERTY
Probability
SciTegic.value.DoubleValue
0.00

@<SCITEGIC>MOL_PROPERTY
Sum Probability
SciTegic.value.DoubleValue
99.98

@<SCITEGIC>MOL_PROPERTY
Delta G
SciTegic.value.DoubleValue
5.052

@<SCITEGIC>MOL_PROPERTY
G
SciTegic.value.DoubleValue
63.199

@<SCITEGIC>MOL_PROPERTY
E
SciTegic.value.DoubleValue
24.959

@<SCITEGIC>MOL_PROPERTY
-TS
SciTegic.value.DoubleValue
38.240

@<SCITEGIC>MOL_PROPERTY
U+W
SciTegic.value.DoubleValue
0.815

@<SCITEGIC>MOL_PROPERTY
U
SciTegic.value.DoubleValue
53.092

@<SCITEGIC>MOL_PROPERTY
W
SciTegic.value.DoubleValue
-52.278

@<SCITEGIC>MOL_PROPERTY
W(PB)
SciTegic.value.DoubleValue
-54.666

@<SCITEGIC>MOL_PROPERTY
W(SA)
SciTegic.value.DoubleValue
2.388

@<SCITEGIC>MOL_PROPERTY
Valence
SciTegic.value.DoubleValue
6.910

@<SCITEGIC>MOL_PROPERTY
Coulomb
SciTegic.value.DoubleValue
45.632

@<SCITEGIC>MOL_PROPERTY
VdW
SciTegic.value.DoubleValue
0.549

@<SCITEGIC>MOL_PROPERTY
VdW6
SciTegic.value.DoubleValue
-10.516

@<SCITEGIC>MOL_PROPERTY
VdW12
SciTegic.value.DoubleValue
11.065

@<SCITEGIC>MOL_PROPERTY
Bond
SciTegic.value.DoubleValue
0.337

@<SCITEGIC>MOL_PROPERTY
Angle
SciTegic.value.DoubleValue
2.297

@<SCITEGIC>MOL_PROPERTY
Pdih
SciTegic.value.DoubleValue
4.276

@<SCITEGIC>MOL_PROPERTY
Idih
SciTegic.value.DoubleValue
0.000

@<SCITEGIC>MOL_PROPERTY
Tether
SciTegic.value.DoubleValue
0.000

@<TRIPOS>MOLECULE
guest-3_vm2.mol2 : vm2 ligand conformer 413
          29          28           1
SMALL
USER_CHARGES
 
@<TRIPOS>ATOM
       1    C1      20.258659   19.635430   20.415185 C.3        1 MOL1        -0.2427
       2    H1      20.125908   18.836978   19.673723 H          1 MOL1         0.0958
       3    H2      19.321724   20.202298   20.482149 H          1 MOL1         0.0958
       4    H3      21.032068   20.317867   20.039790 H          1 MOL1         0.0958
       5    C2      20.667689   19.056121   21.787993 C.3        1 MOL1        -0.1412
       6    H4      20.776782   19.873348   22.512309 H          1 MOL1         0.0947
       7    H5      21.662425   18.598320   21.696440 H          1 MOL1         0.0947
       8    C3      19.679402   17.987746   22.321973 C.3        1 MOL1        -0.1437
       9    H6      19.651656   17.150990   21.610624 H          1 MOL1         0.0947
      10    H7      20.068198   17.560539   23.254451 H          1 MOL1         0.0947
      11    C4      18.228407   18.486386   22.547552 C.3        1 MOL1        -0.1437
      12    H8      17.620773   17.645107   22.907907 H          1 MOL1         0.0947
      13    H9      17.793016   18.762302   21.578073 H          1 MOL1         0.0947
      14    C5      18.057997   19.681262   23.524200 C.3        1 MOL1        -0.1437
      15    H10     18.612015   20.559359   23.167451 H          1 MOL1         0.0947
      16    H11     16.999844   19.975193   23.490119 H          1 MOL1         0.0947
      17    C6      18.411203   19.373569   25.003364 C.3        1 MOL1        -0.1437
      18    H12     18.178699   18.324812   25.230473 H          1 MOL1         0.0947
      19    H13     17.752261   19.976175   25.643908 H          1 MOL1         0.0947
      20    C7      19.876559   19.704643   25.383430 C.3        1 MOL1        -0.1477
      21    H14     20.579372   19.085037   24.816828 H          1 MOL1         0.0947
      22    H15     20.093573   20.747335   25.116486 H          1 MOL1         0.0947
      23    C8      20.150252   19.523117   26.888532 C.3        1 MOL1         0.0145
      24    H16     19.455736   20.139118   27.466071 H          1 MOL1         0.0921
      25    H17     21.168040   19.852198   27.115083 H          1 MOL1         0.0921
      26    N1      20.013831   18.089725   27.362771 N.4        1 MOL1        -0.5969
      27    H18     20.210117   18.000454   28.365785 H          1 MOL1         0.3603
      28    H19     20.661548   17.463709   26.873276 H          1 MOL1         0.3603
      29    H20     19.067314   17.728535   27.208366 H          1 MOL1         0.3603
@<TRIPOS>BOND
    1     1     2    1
    2     1     3    1
    3     1     4    1
    4     1     5    1
    5     5     6    1
    6     5     7    1
    7     5     8    1
    8     8     9    1
    9     8    10    1
   10     8    11    1
   11    11    12    1
   12    11    13    1
   13    11    14    1
   14    14    15    1
   15    14    16    1
   16    14    17    1
   17    17    18    1
   18    17    19    1
   19    17    20    1
   20    20    21    1
   21    20    22    1
   22    20    23    1
   23    23    24    1
   24    23    25    1
   25    23    26    1
   26    26    27    1
   27    26    28    1
   28    26    29    1
@<TRIPOS>SUBSTRUCTURE
       1 MOL1            1 RESIDUE      1      MOL     
@<SCITEGIC>MOL_PROPERTY
VM2 Rank
SciTegic.value.IntegerValue
413

@<SCITEGIC>MOL_PROPERTY
Conf_Id
SciTegic.value.IntegerValue
1961

@<SCITEGIC>MOL_PROPERTY
Probability
SciTegic.value.DoubleValue
0.00

@<SCITEGIC>MOL_PROPERTY
Sum Probability
SciTegic.value.DoubleValue
99.98

@<SCITEGIC>MOL_PROPERTY
Delta G
SciTegic.value.DoubleValue
5.097

@<SCITEGIC>MOL_PROPERTY
G
SciTegic.value.DoubleValue
63.244

@<SCITEGIC>MOL_PROPERTY
E
SciTegic.value.DoubleValue
24.900

@<SCITEGIC>MOL_PROPERTY
-TS
SciTegic.value.DoubleValue
38.344

@<SCITEGIC>MOL_PROPERTY
U+W
SciTegic.value.DoubleValue
0.755

@<SCITEGIC>MOL_PROPERTY
U
SciTegic.value.DoubleValue
53.357

@<SCITEGIC>MOL_PROPERTY
W
SciTegic.value.DoubleValue
-52.602

@<SCITEGIC>MOL_PROPERTY
W(PB)
SciTegic.value.DoubleValue
-54.996

@<SCITEGIC>MOL_PROPERTY
W(SA)
SciTegic.value.DoubleValue
2.394

@<SCITEGIC>MOL_PROPERTY
Valence
SciTegic.value.DoubleValue
6.734

@<SCITEGIC>MOL_PROPERTY
Coulomb
SciTegic.value.DoubleValue
46.026

@<SCITEGIC>MOL_PROPERTY
VdW
SciTegic.value.DoubleValue
0.597

@<SCITEGIC>MOL_PROPERTY
VdW6
SciTegic.value.DoubleValue
-11.150

@<SCITEGIC>MOL_PROPERTY
VdW12
SciTegic.value.DoubleValue
11.747

@<SCITEGIC>MOL_PROPERTY
Bond
SciTegic.value.DoubleValue
0.344

@<SCITEGIC>MOL_PROPERTY
Angle
SciTegic.value.DoubleValue
2.228

@<SCITEGIC>MOL_PROPERTY
Pdih
SciTegic.value.DoubleValue
4.162

@<SCITEGIC>MOL_PROPERTY
Idih
SciTegic.value.DoubleValue
0.000

@<SCITEGIC>MOL_PROPERTY
Tether
SciTegic.value.DoubleValue
0.000

@<TRIPOS>MOLECULE
guest-3_vm2.mol2 : vm2 ligand conformer 414
          29          28           1
SMALL
USER_CHARGES
 
@<TRIPOS>ATOM
       1    C1      19.805269   17.290432   21.849795 C.3        1 MOL1        -0.2427
       2    H1      20.031127   17.435933   22.912803 H          1 MOL1         0.0958
       3    H2      19.218365   16.367411   21.758673 H          1 MOL1         0.0958
       4    H3      20.753086   17.139592   21.317122 H          1 MOL1         0.0958
       5    C2      19.025359   18.488408   21.261516 C.3        1 MOL1        -0.1412
       6    H4      18.073209   18.620862   21.790239 H          1 MOL1         0.0947
       7    H5      18.756009   18.253416   20.222386 H          1 MOL1         0.0947
       8    C3      19.831082   19.810314   21.270652 C.3        1 MOL1        -0.1437
       9    H6      20.724024   19.677456   20.644464 H          1 MOL1         0.0947
      10    H7      19.235885   20.590133   20.776045 H          1 MOL1         0.0947
      11    C4      20.280921   20.328590   22.663498 C.3        1 MOL1        -0.1437
      12    H8      20.901235   21.218291   22.488163 H          1 MOL1         0.0947
      13    H9      20.950976   19.606305   23.143291 H          1 MOL1         0.0947
      14    C5      19.123139   20.746912   23.611966 C.3        1 MOL1        -0.1437
      15    H10     19.460779   21.596401   24.221564 H          1 MOL1         0.0947
      16    H11     18.285401   21.131529   23.014378 H          1 MOL1         0.0947
      17    C6      18.606260   19.643845   24.572618 C.3        1 MOL1        -0.1437
      18    H12     18.288657   18.758170   24.011467 H          1 MOL1         0.0947
      19    H13     17.704255   20.021622   25.073749 H          1 MOL1         0.0947
      20    C7      19.633605   19.233744   25.654305 C.3        1 MOL1        -0.1477
      21    H14     20.526376   18.798827   25.189237 H          1 MOL1         0.0947
      22    H15     19.959915   20.122902   26.209925 H          1 MOL1         0.0947
      23    C8      19.033239   18.211263   26.634867 C.3        1 MOL1         0.0145
      24    H16     18.721567   17.316726   26.088864 H          1 MOL1         0.0921
      25    H17     18.153989   18.640982   27.122406 H          1 MOL1         0.0921
      26    N1      20.005128   17.784492   27.715782 N.4        1 MOL1        -0.5969
      27    H18     20.844704   17.345866   27.323232 H          1 MOL1         0.3603
      28    H19     19.584925   17.104083   28.358547 H          1 MOL1         0.3603
      29    H20     20.316794   18.579131   28.284025 H          1 MOL1         0.3603
@<TRIPOS>BOND
    1     1     2    1
    2     1     3    1
    3     1     4    1
    4     1     5    1
    5     5     6    1
    6     5     7    1
    7     5     8    1
    8     8     9    1
    9     8    10    1
   10     8    11    1
   11    11    12    1
   12    11    13    1
   13    11    14    1
   14    14    15    1
   15    14    16    1
   16    14    17    1
   17    17    18    1
   18    17    19    1
   19    17    20    1
   20    20    21    1
   21    20    22    1
   22    20    23    1
   23    23    24    1
   24    23    25    1
   25    23    26    1
   26    26    27    1
   27    26    28    1
   28    26    29    1
@<TRIPOS>SUBSTRUCTURE
       1 MOL1            1 RESIDUE      1      MOL     
@<SCITEGIC>MOL_PROPERTY
VM2 Rank
SciTegic.value.IntegerValue
414

@<SCITEGIC>MOL_PROPERTY
Conf_Id
SciTegic.value.IntegerValue
261

@<SCITEGIC>MOL_PROPERTY
Probability
SciTegic.value.DoubleValue
0.00

@<SCITEGIC>MOL_PROPERTY
Sum Probability
SciTegic.value.DoubleValue
99.99

@<SCITEGIC>MOL_PROPERTY
Delta G
SciTegic.value.DoubleValue
5.103

@<SCITEGIC>MOL_PROPERTY
G
SciTegic.value.DoubleValue
63.249

@<SCITEGIC>MOL_PROPERTY
E
SciTegic.value.DoubleValue
25.010

@<SCITEGIC>MOL_PROPERTY
-TS
SciTegic.value.DoubleValue
38.239

@<SCITEGIC>MOL_PROPERTY
U+W
SciTegic.value.DoubleValue
0.865

@<SCITEGIC>MOL_PROPERTY
U
SciTegic.value.DoubleValue
53.092

@<SCITEGIC>MOL_PROPERTY
W
SciTegic.value.DoubleValue
-52.227

@<SCITEGIC>MOL_PROPERTY
W(PB)
SciTegic.value.DoubleValue
-54.663

@<SCITEGIC>MOL_PROPERTY
W(SA)
SciTegic.value.DoubleValue
2.436

@<SCITEGIC>MOL_PROPERTY
Valence
SciTegic.value.DoubleValue
6.910

@<SCITEGIC>MOL_PROPERTY
Coulomb
SciTegic.value.DoubleValue
45.632

@<SCITEGIC>MOL_PROPERTY
VdW
SciTegic.value.DoubleValue
0.549

@<SCITEGIC>MOL_PROPERTY
VdW6
SciTegic.value.DoubleValue
-10.516

@<SCITEGIC>MOL_PROPERTY
VdW12
SciTegic.value.DoubleValue
11.065

@<SCITEGIC>MOL_PROPERTY
Bond
SciTegic.value.DoubleValue
0.337

@<SCITEGIC>MOL_PROPERTY
Angle
SciTegic.value.DoubleValue
2.297

@<SCITEGIC>MOL_PROPERTY
Pdih
SciTegic.value.DoubleValue
4.277

@<SCITEGIC>MOL_PROPERTY
Idih
SciTegic.value.DoubleValue
0.000

@<SCITEGIC>MOL_PROPERTY
Tether
SciTegic.value.DoubleValue
0.000

@<TRIPOS>MOLECULE
guest-3_vm2.mol2 : vm2 ligand conformer 415
          29          28           1
SMALL
USER_CHARGES
 
@<TRIPOS>ATOM
       1    C1      21.586894   19.175703   21.278282 C.3        1 MOL1        -0.2427
       2    H1      21.565248   18.360227   20.543619 H          1 MOL1         0.0958
       3    H2      22.087363   20.034830   20.813058 H          1 MOL1         0.0958
       4    H3      22.197022   18.851574   22.131428 H          1 MOL1         0.0958
       5    C2      20.160527   19.554886   21.729257 C.3        1 MOL1        -0.1412
       6    H4      19.584904   19.904477   20.860912 H          1 MOL1         0.0947
       7    H5      20.224024   20.398430   22.427984 H          1 MOL1         0.0947
       8    C3      19.435809   18.356764   22.387743 C.3        1 MOL1        -0.1437
       9    H6      19.441522   17.515531   21.681035 H          1 MOL1         0.0947
      10    H7      20.005125   18.015873   23.258337 H          1 MOL1         0.0947
      11    C4      17.960981   18.650884   22.771389 C.3        1 MOL1        -0.1437
      12    H8      17.468354   17.715037   23.068598 H          1 MOL1         0.0947
      13    H9      17.437408   18.980849   21.863507 H          1 MOL1         0.0947
      14    C5      17.741659   19.719519   23.878329 C.3        1 MOL1        -0.1437
      15    H10     18.467814   20.536097   23.794001 H          1 MOL1         0.0947
      16    H11     16.766068   20.189401   23.692021 H          1 MOL1         0.0947
      17    C6      17.706376   19.170383   25.330565 C.3        1 MOL1        -0.1437
      18    H12     16.896981   18.432442   25.416736 H          1 MOL1         0.0947
      19    H13     17.431125   19.994101   26.003737 H          1 MOL1         0.0947
      20    C7      19.019439   18.535834   25.847115 C.3        1 MOL1        -0.1477
      21    H14     18.881401   18.247181   26.897536 H          1 MOL1         0.0947
      22    H15     19.224112   17.605943   25.303307 H          1 MOL1         0.0947
      23    C8      20.223461   19.490806   25.744858 C.3        1 MOL1         0.0145
      24    H16     20.021477   20.399911   26.317579 H          1 MOL1         0.0921
      25    H17     20.384986   19.770489   24.700769 H          1 MOL1         0.0921
      26    N1      21.508855   18.883220   26.267462 N.4        1 MOL1        -0.5969
      27    H18     21.432623   18.624055   27.256606 H          1 MOL1         0.3603
      28    H19     22.297159   19.535106   26.189590 H          1 MOL1         0.3603
      29    H20     21.768380   18.035803   25.752255 H          1 MOL1         0.3603
@<TRIPOS>BOND
    1     1     2    1
    2     1     3    1
    3     1     4    1
    4     1     5    1
    5     5     6    1
    6     5     7    1
    7     5     8    1
    8     8     9    1
    9     8    10    1
   10     8    11    1
   11    11    12    1
   12    11    13    1
   13    11    14    1
   14    14    15    1
   15    14    16    1
   16    14    17    1
   17    17    18    1
   18    17    19    1
   19    17    20    1
   20    20    21    1
   21    20    22    1
   22    20    23    1
   23    23    24    1
   24    23    25    1
   25    23    26    1
   26    26    27    1
   27    26    28    1
   28    26    29    1
@<TRIPOS>SUBSTRUCTURE
       1 MOL1            1 RESIDUE      1      MOL     
@<SCITEGIC>MOL_PROPERTY
VM2 Rank
SciTegic.value.IntegerValue
415

@<SCITEGIC>MOL_PROPERTY
Conf_Id
SciTegic.value.IntegerValue
621

@<SCITEGIC>MOL_PROPERTY
Probability
SciTegic.value.DoubleValue
0.00

@<SCITEGIC>MOL_PROPERTY
Sum Probability
SciTegic.value.DoubleValue
99.99

@<SCITEGIC>MOL_PROPERTY
Delta G
SciTegic.value.DoubleValue
5.138

@<SCITEGIC>MOL_PROPERTY
G
SciTegic.value.DoubleValue
63.284

@<SCITEGIC>MOL_PROPERTY
E
SciTegic.value.DoubleValue
25.046

@<SCITEGIC>MOL_PROPERTY
-TS
SciTegic.value.DoubleValue
38.238

@<SCITEGIC>MOL_PROPERTY
U+W
SciTegic.value.DoubleValue
0.902

@<SCITEGIC>MOL_PROPERTY
U
SciTegic.value.DoubleValue
53.767

@<SCITEGIC>MOL_PROPERTY
W
SciTegic.value.DoubleValue
-52.865

@<SCITEGIC>MOL_PROPERTY
W(PB)
SciTegic.value.DoubleValue
-55.256

@<SCITEGIC>MOL_PROPERTY
W(SA)
SciTegic.value.DoubleValue
2.391

@<SCITEGIC>MOL_PROPERTY
Valence
SciTegic.value.DoubleValue
6.611

@<SCITEGIC>MOL_PROPERTY
Coulomb
SciTegic.value.DoubleValue
46.905

@<SCITEGIC>MOL_PROPERTY
VdW
SciTegic.value.DoubleValue
0.251

@<SCITEGIC>MOL_PROPERTY
VdW6
SciTegic.value.DoubleValue
-11.031

@<SCITEGIC>MOL_PROPERTY
VdW12
SciTegic.value.DoubleValue
11.282

@<SCITEGIC>MOL_PROPERTY
Bond
SciTegic.value.DoubleValue
0.334

@<SCITEGIC>MOL_PROPERTY
Angle
SciTegic.value.DoubleValue
2.337

@<SCITEGIC>MOL_PROPERTY
Pdih
SciTegic.value.DoubleValue
3.940

@<SCITEGIC>MOL_PROPERTY
Idih
SciTegic.value.DoubleValue
0.000

@<SCITEGIC>MOL_PROPERTY
Tether
SciTegic.value.DoubleValue
0.000

@<TRIPOS>MOLECULE
guest-3_vm2.mol2 : vm2 ligand conformer 416
          29          28           1
SMALL
USER_CHARGES
 
@<TRIPOS>ATOM
       1    C1      19.428047   19.916035   20.259362 C.3        1 MOL1        -0.2427
       2    H1      19.352204   20.792464   19.602847 H          1 MOL1         0.0958
       3    H2      20.114019   19.200980   19.786984 H          1 MOL1         0.0958
       4    H3      18.433348   19.456401   20.311180 H          1 MOL1         0.0958
       5    C2      19.935601   20.331353   21.658750 C.3        1 MOL1        -0.1412
       6    H4      19.216056   21.019655   22.123649 H          1 MOL1         0.0947
       7    H5      20.870547   20.896971   21.541859 H          1 MOL1         0.0947
       8    C3      20.196405   19.132053   22.601405 C.3        1 MOL1        -0.1437
       9    H6      20.928862   18.455107   22.140802 H          1 MOL1         0.0947
      10    H7      20.664991   19.515159   23.515355 H          1 MOL1         0.0947
      11    C4      18.912784   18.341904   22.961327 C.3        1 MOL1        -0.1437
      12    H8      18.488167   17.911952   22.044953 H          1 MOL1         0.0947
      13    H9      18.144358   19.018590   23.354796 H          1 MOL1         0.0947
      14    C5      19.158268   17.180661   23.957321 C.3        1 MOL1        -0.1437
      15    H10     18.217166   16.628742   24.087141 H          1 MOL1         0.0947
      16    H11     19.858519   16.468037   23.500166 H          1 MOL1         0.0947
      17    C6      19.698987   17.575329   25.358716 C.3        1 MOL1        -0.1437
      18    H12     20.704990   18.005111   25.278360 H          1 MOL1         0.0947
      19    H13     19.829685   16.645151   25.928734 H          1 MOL1         0.0947
      20    C7      18.764381   18.504242   26.179071 C.3        1 MOL1        -0.1477
      21    H14     17.717600   18.228681   25.994851 H          1 MOL1         0.0947
      22    H15     18.936630   18.329961   27.249505 H          1 MOL1         0.0947
      23    C8      18.953782   20.009755   25.900598 C.3        1 MOL1         0.0145
      24    H16     18.178678   20.573637   26.426603 H          1 MOL1         0.0921
      25    H17     18.854994   20.213414   24.832776 H          1 MOL1         0.0921
      26    N1      20.295744   20.546669   26.358449 N.4        1 MOL1        -0.5969
      27    H18     21.074448   20.073113   25.890953 H          1 MOL1         0.3603
      28    H19     20.428488   20.422783   27.367565 H          1 MOL1         0.3603
      29    H20     20.390408   21.549733   26.165306 H          1 MOL1         0.3603
@<TRIPOS>BOND
    1     1     2    1
    2     1     3    1
    3     1     4    1
    4     1     5    1
    5     5     6    1
    6     5     7    1
    7     5     8    1
    8     8     9    1
    9     8    10    1
   10     8    11    1
   11    11    12    1
   12    11    13    1
   13    11    14    1
   14    14    15    1
   15    14    16    1
   16    14    17    1
   17    17    18    1
   18    17    19    1
   19    17    20    1
   20    20    21    1
   21    20    22    1
   22    20    23    1
   23    23    24    1
   24    23    25    1
   25    23    26    1
   26    26    27    1
   27    26    28    1
   28    26    29    1
@<TRIPOS>SUBSTRUCTURE
       1 MOL1            1 RESIDUE      1      MOL     
@<SCITEGIC>MOL_PROPERTY
VM2 Rank
SciTegic.value.IntegerValue
416

@<SCITEGIC>MOL_PROPERTY
Conf_Id
SciTegic.value.IntegerValue
681

@<SCITEGIC>MOL_PROPERTY
Probability
SciTegic.value.DoubleValue
0.00

@<SCITEGIC>MOL_PROPERTY
Sum Probability
SciTegic.value.DoubleValue
99.99

@<SCITEGIC>MOL_PROPERTY
Delta G
SciTegic.value.DoubleValue
5.188

@<SCITEGIC>MOL_PROPERTY
G
SciTegic.value.DoubleValue
63.334

@<SCITEGIC>MOL_PROPERTY
E
SciTegic.value.DoubleValue
24.929

@<SCITEGIC>MOL_PROPERTY
-TS
SciTegic.value.DoubleValue
38.405

@<SCITEGIC>MOL_PROPERTY
U+W
SciTegic.value.DoubleValue
0.785

@<SCITEGIC>MOL_PROPERTY
U
SciTegic.value.DoubleValue
53.794

@<SCITEGIC>MOL_PROPERTY
W
SciTegic.value.DoubleValue
-53.009

@<SCITEGIC>MOL_PROPERTY
W(PB)
SciTegic.value.DoubleValue
-55.393

@<SCITEGIC>MOL_PROPERTY
W(SA)
SciTegic.value.DoubleValue
2.385

@<SCITEGIC>MOL_PROPERTY
Valence
SciTegic.value.DoubleValue
6.295

@<SCITEGIC>MOL_PROPERTY
Coulomb
SciTegic.value.DoubleValue
47.099

@<SCITEGIC>MOL_PROPERTY
VdW
SciTegic.value.DoubleValue
0.400

@<SCITEGIC>MOL_PROPERTY
VdW6
SciTegic.value.DoubleValue
-11.434

@<SCITEGIC>MOL_PROPERTY
VdW12
SciTegic.value.DoubleValue
11.834

@<SCITEGIC>MOL_PROPERTY
Bond
SciTegic.value.DoubleValue
0.333

@<SCITEGIC>MOL_PROPERTY
Angle
SciTegic.value.DoubleValue
2.105

@<SCITEGIC>MOL_PROPERTY
Pdih
SciTegic.value.DoubleValue
3.857

@<SCITEGIC>MOL_PROPERTY
Idih
SciTegic.value.DoubleValue
0.000

@<SCITEGIC>MOL_PROPERTY
Tether
SciTegic.value.DoubleValue
0.000

@<TRIPOS>MOLECULE
guest-3_vm2.mol2 : vm2 ligand conformer 417
          29          28           1
SMALL
USER_CHARGES
 
@<TRIPOS>ATOM
       1    C1      21.390781   19.399124   21.612735 C.3        1 MOL1        -0.2427
       2    H1      21.926818   18.951720   22.459625 H          1 MOL1         0.0958
       3    H2      22.085672   19.447679   20.764417 H          1 MOL1         0.0958
       4    H3      21.123938   20.429205   21.878978 H          1 MOL1         0.0958
       5    C2      20.143110   18.565770   21.241435 C.3        1 MOL1        -0.1412
       6    H4      20.471083   17.583275   20.874247 H          1 MOL1         0.0947
       7    H5      19.611607   19.044404   20.407130 H          1 MOL1         0.0947
       8    C3      19.174302   18.353864   22.428824 C.3        1 MOL1        -0.1437
       9    H6      18.394042   17.643389   22.123223 H          1 MOL1         0.0947
      10    H7      19.718713   17.876871   23.252219 H          1 MOL1         0.0947
      11    C4      18.499235   19.662732   22.910738 C.3        1 MOL1        -0.1437
      12    H8      17.985028   20.127177   22.058225 H          1 MOL1         0.0947
      13    H9      19.248294   20.392847   23.237420 H          1 MOL1         0.0947
      14    C5      17.463725   19.441014   24.041138 C.3        1 MOL1        -0.1437
      15    H10     16.981837   20.402090   24.267479 H          1 MOL1         0.0947
      16    H11     16.663454   18.790280   23.662638 H          1 MOL1         0.0947
      17    C6      18.011566   18.834682   25.361784 C.3        1 MOL1        -0.1437
      18    H12     18.387681   17.818078   25.193076 H          1 MOL1         0.0947
      19    H13     17.157306   18.715746   26.042451 H          1 MOL1         0.0947
      20    C7      19.074404   19.704546   26.085491 C.3        1 MOL1        -0.1477
      21    H14     18.817899   20.766413   25.974838 H          1 MOL1         0.0947
      22    H15     19.032805   19.496723   27.162962 H          1 MOL1         0.0947
      23    C8      20.523613   19.476215   25.607860 C.3        1 MOL1         0.0145
      24    H16     21.179314   20.210523   26.083545 H          1 MOL1         0.0921
      25    H17     20.592813   19.610708   24.526865 H          1 MOL1         0.0921
      26    N1      21.063264   18.100052   25.944996 N.4        1 MOL1        -0.5969
      27    H18     21.062867   17.931252   26.956323 H          1 MOL1         0.3603
      28    H19     22.029572   17.980282   25.622261 H          1 MOL1         0.3603
      29    H20     20.505006   17.356900   25.514582 H          1 MOL1         0.3603
@<TRIPOS>BOND
    1     1     2    1
    2     1     3    1
    3     1     4    1
    4     1     5    1
    5     5     6    1
    6     5     7    1
    7     5     8    1
    8     8     9    1
    9     8    10    1
   10     8    11    1
   11    11    12    1
   12    11    13    1
   13    11    14    1
   14    14    15    1
   15    14    16    1
   16    14    17    1
   17    17    18    1
   18    17    19    1
   19    17    20    1
   20    20    21    1
   21    20    22    1
   22    20    23    1
   23    23    24    1
   24    23    25    1
   25    23    26    1
   26    26    27    1
   27    26    28    1
   28    26    29    1
@<TRIPOS>SUBSTRUCTURE
       1 MOL1            1 RESIDUE      1      MOL     
@<SCITEGIC>MOL_PROPERTY
VM2 Rank
SciTegic.value.IntegerValue
417

@<SCITEGIC>MOL_PROPERTY
Conf_Id
SciTegic.value.IntegerValue
958

@<SCITEGIC>MOL_PROPERTY
Probability
SciTegic.value.DoubleValue
0.00

@<SCITEGIC>MOL_PROPERTY
Sum Probability
SciTegic.value.DoubleValue
99.99

@<SCITEGIC>MOL_PROPERTY
Delta G
SciTegic.value.DoubleValue
5.210

@<SCITEGIC>MOL_PROPERTY
G
SciTegic.value.DoubleValue
63.356

@<SCITEGIC>MOL_PROPERTY
E
SciTegic.value.DoubleValue
24.823

@<SCITEGIC>MOL_PROPERTY
-TS
SciTegic.value.DoubleValue
38.533

@<SCITEGIC>MOL_PROPERTY
U+W
SciTegic.value.DoubleValue
0.678

@<SCITEGIC>MOL_PROPERTY
U
SciTegic.value.DoubleValue
53.662

@<SCITEGIC>MOL_PROPERTY
W
SciTegic.value.DoubleValue
-52.983

@<SCITEGIC>MOL_PROPERTY
W(PB)
SciTegic.value.DoubleValue
-55.322

@<SCITEGIC>MOL_PROPERTY
W(SA)
SciTegic.value.DoubleValue
2.338

@<SCITEGIC>MOL_PROPERTY
Valence
SciTegic.value.DoubleValue
6.196

@<SCITEGIC>MOL_PROPERTY
Coulomb
SciTegic.value.DoubleValue
47.384

@<SCITEGIC>MOL_PROPERTY
VdW
SciTegic.value.DoubleValue
0.081

@<SCITEGIC>MOL_PROPERTY
VdW6
SciTegic.value.DoubleValue
-11.956

@<SCITEGIC>MOL_PROPERTY
VdW12
SciTegic.value.DoubleValue
12.037

@<SCITEGIC>MOL_PROPERTY
Bond
SciTegic.value.DoubleValue
0.329

@<SCITEGIC>MOL_PROPERTY
Angle
SciTegic.value.DoubleValue
2.009

@<SCITEGIC>MOL_PROPERTY
Pdih
SciTegic.value.DoubleValue
3.857

@<SCITEGIC>MOL_PROPERTY
Idih
SciTegic.value.DoubleValue
0.000

@<SCITEGIC>MOL_PROPERTY
Tether
SciTegic.value.DoubleValue
0.000

@<TRIPOS>MOLECULE
guest-3_vm2.mol2 : vm2 ligand conformer 418
          29          28           1
SMALL
USER_CHARGES
 
@<TRIPOS>ATOM
       1    C1      20.323233   18.481068   19.732713 C.3        1 MOL1        -0.2427
       2    H1      20.947075   17.611567   19.977710 H          1 MOL1         0.0958
       3    H2      19.683606   18.208534   18.883220 H          1 MOL1         0.0958
       4    H3      20.983956   19.295847   19.408977 H          1 MOL1         0.0958
       5    C2      19.467469   18.908095   20.944042 C.3        1 MOL1        -0.1412
       6    H4      18.793000   18.083808   21.210784 H          1 MOL1         0.0947
       7    H5      18.833995   19.760017   20.660123 H          1 MOL1         0.0947
       8    C3      20.348193   19.292909   22.156151 C.3        1 MOL1        -0.1437
       9    H6      20.940531   18.423789   22.473303 H          1 MOL1         0.0947
      10    H7      21.070276   20.059071   21.841520 H          1 MOL1         0.0947
      11    C4      19.544016   19.843897   23.359344 C.3        1 MOL1        -0.1437
      12    H8      18.960600   20.718637   23.040631 H          1 MOL1         0.0947
      13    H9      20.259088   20.210915   24.105500 H          1 MOL1         0.0947
      14    C5      18.598978   18.797262   24.003143 C.3        1 MOL1        -0.1437
      15    H10     17.847758   18.489673   23.264235 H          1 MOL1         0.0947
      16    H11     19.152466   17.885262   24.257790 H          1 MOL1         0.0947
      17    C6      17.841588   19.326403   25.247908 C.3        1 MOL1        -0.1437
      18    H12     17.152912   18.543681   25.594916 H          1 MOL1         0.0947
      19    H13     17.205076   20.167766   24.941013 H          1 MOL1         0.0947
      20    C7      18.717627   19.781145   26.446320 C.3        1 MOL1        -0.1477
      21    H14     19.330840   20.650516   26.177610 H          1 MOL1         0.0947
      22    H15     18.041974   20.131734   27.237725 H          1 MOL1         0.0947
      23    C8      19.602600   18.669389   27.046890 C.3        1 MOL1         0.0145
      24    H16     19.045626   17.729074   27.075247 H          1 MOL1         0.0921
      25    H17     19.868562   18.937708   28.072898 H          1 MOL1         0.0921
      26    N1      20.900296   18.437833   26.298490 N.4        1 MOL1        -0.5969
      27    H18     20.729555   18.211704   25.313901 H          1 MOL1         0.3603
      28    H19     21.440380   17.664935   26.703065 H          1 MOL1         0.3603
      29    H20     21.502129   19.267564   26.320177 H          1 MOL1         0.3603
@<TRIPOS>BOND
    1     1     2    1
    2     1     3    1
    3     1     4    1
    4     1     5    1
    5     5     6    1
    6     5     7    1
    7     5     8    1
    8     8     9    1
    9     8    10    1
   10     8    11    1
   11    11    12    1
   12    11    13    1
   13    11    14    1
   14    14    15    1
   15    14    16    1
   16    14    17    1
   17    17    18    1
   18    17    19    1
   19    17    20    1
   20    20    21    1
   21    20    22    1
   22    20    23    1
   23    23    24    1
   24    23    25    1
   25    23    26    1
   26    26    27    1
   27    26    28    1
   28    26    29    1
@<TRIPOS>SUBSTRUCTURE
       1 MOL1            1 RESIDUE      1      MOL     
@<SCITEGIC>MOL_PROPERTY
VM2 Rank
SciTegic.value.IntegerValue
418

@<SCITEGIC>MOL_PROPERTY
Conf_Id
SciTegic.value.IntegerValue
969

@<SCITEGIC>MOL_PROPERTY
Probability
SciTegic.value.DoubleValue
0.00

@<SCITEGIC>MOL_PROPERTY
Sum Probability
SciTegic.value.DoubleValue
99.99

@<SCITEGIC>MOL_PROPERTY
Delta G
SciTegic.value.DoubleValue
5.226

@<SCITEGIC>MOL_PROPERTY
G
SciTegic.value.DoubleValue
63.372

@<SCITEGIC>MOL_PROPERTY
E
SciTegic.value.DoubleValue
25.310

@<SCITEGIC>MOL_PROPERTY
-TS
SciTegic.value.DoubleValue
38.062

@<SCITEGIC>MOL_PROPERTY
U+W
SciTegic.value.DoubleValue
1.165

@<SCITEGIC>MOL_PROPERTY
U
SciTegic.value.DoubleValue
53.030

@<SCITEGIC>MOL_PROPERTY
W
SciTegic.value.DoubleValue
-51.865

@<SCITEGIC>MOL_PROPERTY
W(PB)
SciTegic.value.DoubleValue
-54.282

@<SCITEGIC>MOL_PROPERTY
W(SA)
SciTegic.value.DoubleValue
2.417

@<SCITEGIC>MOL_PROPERTY
Valence
SciTegic.value.DoubleValue
5.259

@<SCITEGIC>MOL_PROPERTY
Coulomb
SciTegic.value.DoubleValue
47.142

@<SCITEGIC>MOL_PROPERTY
VdW
SciTegic.value.DoubleValue
0.629

@<SCITEGIC>MOL_PROPERTY
VdW6
SciTegic.value.DoubleValue
-10.479

@<SCITEGIC>MOL_PROPERTY
VdW12
SciTegic.value.DoubleValue
11.108

@<SCITEGIC>MOL_PROPERTY
Bond
SciTegic.value.DoubleValue
0.295

@<SCITEGIC>MOL_PROPERTY
Angle
SciTegic.value.DoubleValue
1.787

@<SCITEGIC>MOL_PROPERTY
Pdih
SciTegic.value.DoubleValue
3.177

@<SCITEGIC>MOL_PROPERTY
Idih
SciTegic.value.DoubleValue
0.000

@<SCITEGIC>MOL_PROPERTY
Tether
SciTegic.value.DoubleValue
0.000

@<TRIPOS>MOLECULE
guest-3_vm2.mol2 : vm2 ligand conformer 419
          29          28           1
SMALL
USER_CHARGES
 
@<TRIPOS>ATOM
       1    C1      20.246946   20.695726   21.753310 C.3        1 MOL1        -0.2427
       2    H1      20.595912   20.458099   22.765260 H          1 MOL1         0.0958
       3    H2      21.084979   20.547823   21.059998 H          1 MOL1         0.0958
       4    H3      19.980545   21.760359   21.735664 H          1 MOL1         0.0958
       5    C2      19.034265   19.827200   21.347520 C.3        1 MOL1        -0.1412
       6    H4      18.678668   20.162007   20.363135 H          1 MOL1         0.0947
       7    H5      18.196952   19.994868   22.036394 H          1 MOL1         0.0947
       8    C3      19.362114   18.316639   21.261181 C.3        1 MOL1        -0.1437
       9    H6      18.472850   17.782175   20.899845 H          1 MOL1         0.0947
      10    H7      20.129521   18.171009   20.488532 H          1 MOL1         0.0947
      11    C4      19.852899   17.646941   22.573276 C.3        1 MOL1        -0.1437
      12    H8      20.789933   18.104841   22.909512 H          1 MOL1         0.0947
      13    H9      20.116782   16.610050   22.323658 H          1 MOL1         0.0947
      14    C5      18.801090   17.598486   23.716332 C.3        1 MOL1        -0.1437
      15    H10     17.795756   17.521057   23.280264 H          1 MOL1         0.0947
      16    H11     18.944676   16.669319   24.284903 H          1 MOL1         0.0947
      17    C6      18.837532   18.783177   24.717255 C.3        1 MOL1        -0.1437
      18    H12     17.947588   18.710562   25.356094 H          1 MOL1         0.0947
      19    H13     18.751871   19.739066   24.189098 H          1 MOL1         0.0947
      20    C7      20.101455   18.795158   25.614018 C.3        1 MOL1        -0.1477
      21    H14     20.181141   17.848168   26.164064 H          1 MOL1         0.0947
      22    H15     21.002514   18.872946   24.994275 H          1 MOL1         0.0947
      23    C8      20.109100   19.969889   26.611045 C.3        1 MOL1         0.0145
      24    H16     20.013879   20.914123   26.068134 H          1 MOL1         0.0921
      25    H17     21.060086   19.980947   27.150518 H          1 MOL1         0.0921
      26    N1      18.998599   19.904784   27.641064 N.4        1 MOL1        -0.5969
      27    H18     18.072699   19.927745   27.202568 H          1 MOL1         0.3603
      28    H19     19.040645   20.692827   28.296612 H          1 MOL1         0.3603
      29    H20     19.048430   19.046699   28.200041 H          1 MOL1         0.3603
@<TRIPOS>BOND
    1     1     2    1
    2     1     3    1
    3     1     4    1
    4     1     5    1
    5     5     6    1
    6     5     7    1
    7     5     8    1
    8     8     9    1
    9     8    10    1
   10     8    11    1
   11    11    12    1
   12    11    13    1
   13    11    14    1
   14    14    15    1
   15    14    16    1
   16    14    17    1
   17    17    18    1
   18    17    19    1
   19    17    20    1
   20    20    21    1
   21    20    22    1
   22    20    23    1
   23    23    24    1
   24    23    25    1
   25    23    26    1
   26    26    27    1
   27    26    28    1
   28    26    29    1
@<TRIPOS>SUBSTRUCTURE
       1 MOL1            1 RESIDUE      1      MOL     
@<SCITEGIC>MOL_PROPERTY
VM2 Rank
SciTegic.value.IntegerValue
419

@<SCITEGIC>MOL_PROPERTY
Conf_Id
SciTegic.value.IntegerValue
854

@<SCITEGIC>MOL_PROPERTY
Probability
SciTegic.value.DoubleValue
0.00

@<SCITEGIC>MOL_PROPERTY
Sum Probability
SciTegic.value.DoubleValue
99.99

@<SCITEGIC>MOL_PROPERTY
Delta G
SciTegic.value.DoubleValue
5.271

@<SCITEGIC>MOL_PROPERTY
G
SciTegic.value.DoubleValue
63.418

@<SCITEGIC>MOL_PROPERTY
E
SciTegic.value.DoubleValue
25.138

@<SCITEGIC>MOL_PROPERTY
-TS
SciTegic.value.DoubleValue
38.280

@<SCITEGIC>MOL_PROPERTY
U+W
SciTegic.value.DoubleValue
0.993

@<SCITEGIC>MOL_PROPERTY
U
SciTegic.value.DoubleValue
53.387

@<SCITEGIC>MOL_PROPERTY
W
SciTegic.value.DoubleValue
-52.393

@<SCITEGIC>MOL_PROPERTY
W(PB)
SciTegic.value.DoubleValue
-54.766

@<SCITEGIC>MOL_PROPERTY
W(SA)
SciTegic.value.DoubleValue
2.373

@<SCITEGIC>MOL_PROPERTY
Valence
SciTegic.value.DoubleValue
7.038

@<SCITEGIC>MOL_PROPERTY
Coulomb
SciTegic.value.DoubleValue
45.647

@<SCITEGIC>MOL_PROPERTY
VdW
SciTegic.value.DoubleValue
0.702

@<SCITEGIC>MOL_PROPERTY
VdW6
SciTegic.value.DoubleValue
-10.995

@<SCITEGIC>MOL_PROPERTY
VdW12
SciTegic.value.DoubleValue
11.696

@<SCITEGIC>MOL_PROPERTY
Bond
SciTegic.value.DoubleValue
0.363

@<SCITEGIC>MOL_PROPERTY
Angle
SciTegic.value.DoubleValue
2.317

@<SCITEGIC>MOL_PROPERTY
Pdih
SciTegic.value.DoubleValue
4.358

@<SCITEGIC>MOL_PROPERTY
Idih
SciTegic.value.DoubleValue
0.000

@<SCITEGIC>MOL_PROPERTY
Tether
SciTegic.value.DoubleValue
0.000

@<TRIPOS>MOLECULE
guest-3_vm2.mol2 : vm2 ligand conformer 420
          29          28           1
SMALL
USER_CHARGES
 
@<TRIPOS>ATOM
       1    C1      20.559104   19.142849   19.747824 C.3        1 MOL1        -0.2427
       2    H1      21.588501   19.411822   20.018435 H          1 MOL1         0.0958
       3    H2      20.560792   18.107593   19.382492 H          1 MOL1         0.0958
       4    H3      20.247779   19.791878   18.919046 H          1 MOL1         0.0958
       5    C2      19.608894   19.304813   20.953175 C.3        1 MOL1        -0.1412
       6    H4      18.583715   19.056981   20.644538 H          1 MOL1         0.0947
       7    H5      19.603289   20.358407   21.262078 H          1 MOL1         0.0947
       8    C3      20.031019   18.402175   22.136398 C.3        1 MOL1        -0.1437
       9    H6      20.111128   17.365416   21.781276 H          1 MOL1         0.0947
      10    H7      21.034640   18.688137   22.479606 H          1 MOL1         0.0947
      11    C4      19.042466   18.435722   23.327869 C.3        1 MOL1        -0.1437
      12    H8      19.354362   17.670350   24.048776 H          1 MOL1         0.0947
      13    H9      18.042310   18.139468   22.982839 H          1 MOL1         0.0947
      14    C5      18.961638   19.817489   24.025871 C.3        1 MOL1        -0.1437
      15    H10     19.963065   20.164252   24.308428 H          1 MOL1         0.0947
      16    H11     18.583688   20.559262   23.310429 H          1 MOL1         0.0947
      17    C6      18.023000   19.836636   25.259427 C.3        1 MOL1        -0.1437
      18    H12     17.002532   19.599002   24.928676 H          1 MOL1         0.0947
      19    H13     17.978379   20.863925   25.646766 H          1 MOL1         0.0947
      20    C7      18.398522   18.883990   26.426424 C.3        1 MOL1        -0.1477
      21    H14     17.642397   19.007851   27.212981 H          1 MOL1         0.0947
      22    H15     18.328703   17.834136   26.115019 H          1 MOL1         0.0947
      23    C8      19.778369   19.162451   27.057570 C.3        1 MOL1         0.0145
      24    H16     19.800996   18.746228   28.068346 H          1 MOL1         0.0921
      25    H17     19.939928   20.241226   27.130782 H          1 MOL1         0.0921
      26    N1      20.940988   18.551875   26.300442 N.4        1 MOL1        -0.5969
      27    H18     20.964962   18.873651   25.328028 H          1 MOL1         0.3603
      28    H19     20.883341   17.528438   26.280944 H          1 MOL1         0.3603
      29    H20     21.842187   18.793415   26.727338 H          1 MOL1         0.3603
@<TRIPOS>BOND
    1     1     2    1
    2     1     3    1
    3     1     4    1
    4     1     5    1
    5     5     6    1
    6     5     7    1
    7     5     8    1
    8     8     9    1
    9     8    10    1
   10     8    11    1
   11    11    12    1
   12    11    13    1
   13    11    14    1
   14    14    15    1
   15    14    16    1
   16    14    17    1
   17    17    18    1
   18    17    19    1
   19    17    20    1
   20    20    21    1
   21    20    22    1
   22    20    23    1
   23    23    24    1
   24    23    25    1
   25    23    26    1
   26    26    27    1
   27    26    28    1
   28    26    29    1
@<TRIPOS>SUBSTRUCTURE
       1 MOL1            1 RESIDUE      1      MOL     
@<SCITEGIC>MOL_PROPERTY
VM2 Rank
SciTegic.value.IntegerValue
420

@<SCITEGIC>MOL_PROPERTY
Conf_Id
SciTegic.value.IntegerValue
2923

@<SCITEGIC>MOL_PROPERTY
Probability
SciTegic.value.DoubleValue
0.00

@<SCITEGIC>MOL_PROPERTY
Sum Probability
SciTegic.value.DoubleValue
99.99

@<SCITEGIC>MOL_PROPERTY
Delta G
SciTegic.value.DoubleValue
5.274

@<SCITEGIC>MOL_PROPERTY
G
SciTegic.value.DoubleValue
63.420

@<SCITEGIC>MOL_PROPERTY
E
SciTegic.value.DoubleValue
25.358

@<SCITEGIC>MOL_PROPERTY
-TS
SciTegic.value.DoubleValue
38.062

@<SCITEGIC>MOL_PROPERTY
U+W
SciTegic.value.DoubleValue
1.213

@<SCITEGIC>MOL_PROPERTY
U
SciTegic.value.DoubleValue
53.031

@<SCITEGIC>MOL_PROPERTY
W
SciTegic.value.DoubleValue
-51.817

@<SCITEGIC>MOL_PROPERTY
W(PB)
SciTegic.value.DoubleValue
-54.239

@<SCITEGIC>MOL_PROPERTY
W(SA)
SciTegic.value.DoubleValue
2.421

@<SCITEGIC>MOL_PROPERTY
Valence
SciTegic.value.DoubleValue
5.259

@<SCITEGIC>MOL_PROPERTY
Coulomb
SciTegic.value.DoubleValue
47.142

@<SCITEGIC>MOL_PROPERTY
VdW
SciTegic.value.DoubleValue
0.629

@<SCITEGIC>MOL_PROPERTY
VdW6
SciTegic.value.DoubleValue
-10.480

@<SCITEGIC>MOL_PROPERTY
VdW12
SciTegic.value.DoubleValue
11.109

@<SCITEGIC>MOL_PROPERTY
Bond
SciTegic.value.DoubleValue
0.295

@<SCITEGIC>MOL_PROPERTY
Angle
SciTegic.value.DoubleValue
1.787

@<SCITEGIC>MOL_PROPERTY
Pdih
SciTegic.value.DoubleValue
3.177

@<SCITEGIC>MOL_PROPERTY
Idih
SciTegic.value.DoubleValue
0.000

@<SCITEGIC>MOL_PROPERTY
Tether
SciTegic.value.DoubleValue
0.000

@<TRIPOS>MOLECULE
guest-3_vm2.mol2 : vm2 ligand conformer 421
          29          28           1
SMALL
USER_CHARGES
 
@<TRIPOS>ATOM
       1    C1      19.074882   17.395303   21.680158 C.3        1 MOL1        -0.2427
       2    H1      19.481272   17.319645   22.695741 H          1 MOL1         0.0958
       3    H2      18.197227   16.738558   21.624213 H          1 MOL1         0.0958
       4    H3      19.828327   17.009005   20.981623 H          1 MOL1         0.0958
       5    C2      18.686889   18.849113   21.325898 C.3        1 MOL1        -0.1412
       6    H4      17.921601   19.219810   22.019200 H          1 MOL1         0.0947
       7    H5      18.213702   18.852513   20.334112 H          1 MOL1         0.0947
       8    C3      19.894800   19.816952   21.294687 C.3        1 MOL1        -0.1437
       9    H6      20.592997   19.476653   20.517625 H          1 MOL1         0.0947
      10    H7      19.546564   20.806185   20.967343 H          1 MOL1         0.0947
      11    C4      20.679630   19.974848   22.625127 C.3        1 MOL1        -0.1437
      12    H8      21.541592   20.622206   22.412912 H          1 MOL1         0.0947
      13    H9      21.113553   19.015849   22.929738 H          1 MOL1         0.0947
      14    C5      19.877970   20.630313   23.783981 C.3        1 MOL1        -0.1437
      15    H10     20.567363   21.237389   24.386837 H          1 MOL1         0.0947
      16    H11     19.152803   21.341603   23.365595 H          1 MOL1         0.0947
      17    C6      19.145134   19.649402   24.736573 C.3        1 MOL1        -0.1437
      18    H12     18.483114   18.983608   24.172256 H          1 MOL1         0.0947
      19    H13     18.491553   20.241579   25.390442 H          1 MOL1         0.0947
      20    C7      20.105762   18.807302   25.614008 C.3        1 MOL1        -0.1477
      21    H14     20.764437   18.203331   24.978866 H          1 MOL1         0.0947
      22    H15     20.757224   19.469094   26.199942 H          1 MOL1         0.0947
      23    C8      19.356883   17.852430   26.563483 C.3        1 MOL1         0.0145
      24    H16     20.080248   17.222569   27.088407 H          1 MOL1         0.0921
      25    H17     18.694968   17.202339   25.984996 H          1 MOL1         0.0921
      26    N1      18.522049   18.562337   27.611086 N.4        1 MOL1        -0.5969
      27    H18     19.094184   19.173659   28.202859 H          1 MOL1         0.3603
      28    H19     18.048517   17.899017   28.234219 H          1 MOL1         0.3603
      29    H20     17.795280   19.145991   27.185344 H          1 MOL1         0.3603
@<TRIPOS>BOND
    1     1     2    1
    2     1     3    1
    3     1     4    1
    4     1     5    1
    5     5     6    1
    6     5     7    1
    7     5     8    1
    8     8     9    1
    9     8    10    1
   10     8    11    1
   11    11    12    1
   12    11    13    1
   13    11    14    1
   14    14    15    1
   15    14    16    1
   16    14    17    1
   17    17    18    1
   18    17    19    1
   19    17    20    1
   20    20    21    1
   21    20    22    1
   22    20    23    1
   23    23    24    1
   24    23    25    1
   25    23    26    1
   26    26    27    1
   27    26    28    1
   28    26    29    1
@<TRIPOS>SUBSTRUCTURE
       1 MOL1            1 RESIDUE      1      MOL     
@<SCITEGIC>MOL_PROPERTY
VM2 Rank
SciTegic.value.IntegerValue
421

@<SCITEGIC>MOL_PROPERTY
Conf_Id
SciTegic.value.IntegerValue
135

@<SCITEGIC>MOL_PROPERTY
Probability
SciTegic.value.DoubleValue
0.00

@<SCITEGIC>MOL_PROPERTY
Sum Probability
SciTegic.value.DoubleValue
99.99

@<SCITEGIC>MOL_PROPERTY
Delta G
SciTegic.value.DoubleValue
5.309

@<SCITEGIC>MOL_PROPERTY
G
SciTegic.value.DoubleValue
63.455

@<SCITEGIC>MOL_PROPERTY
E
SciTegic.value.DoubleValue
25.174

@<SCITEGIC>MOL_PROPERTY
-TS
SciTegic.value.DoubleValue
38.281

@<SCITEGIC>MOL_PROPERTY
U+W
SciTegic.value.DoubleValue
1.030

@<SCITEGIC>MOL_PROPERTY
U
SciTegic.value.DoubleValue
53.387

@<SCITEGIC>MOL_PROPERTY
W
SciTegic.value.DoubleValue
-52.357

@<SCITEGIC>MOL_PROPERTY
W(PB)
SciTegic.value.DoubleValue
-54.753

@<SCITEGIC>MOL_PROPERTY
W(SA)
SciTegic.value.DoubleValue
2.396

@<SCITEGIC>MOL_PROPERTY
Valence
SciTegic.value.DoubleValue
7.037

@<SCITEGIC>MOL_PROPERTY
Coulomb
SciTegic.value.DoubleValue
45.648

@<SCITEGIC>MOL_PROPERTY
VdW
SciTegic.value.DoubleValue
0.702

@<SCITEGIC>MOL_PROPERTY
VdW6
SciTegic.value.DoubleValue
-10.996

@<SCITEGIC>MOL_PROPERTY
VdW12
SciTegic.value.DoubleValue
11.697

@<SCITEGIC>MOL_PROPERTY
Bond
SciTegic.value.DoubleValue
0.363

@<SCITEGIC>MOL_PROPERTY
Angle
SciTegic.value.DoubleValue
2.318

@<SCITEGIC>MOL_PROPERTY
Pdih
SciTegic.value.DoubleValue
4.356

@<SCITEGIC>MOL_PROPERTY
Idih
SciTegic.value.DoubleValue
0.000

@<SCITEGIC>MOL_PROPERTY
Tether
SciTegic.value.DoubleValue
0.000

@<TRIPOS>MOLECULE
guest-3_vm2.mol2 : vm2 ligand conformer 422
          29          28           1
SMALL
USER_CHARGES
 
@<TRIPOS>ATOM
       1    C1      21.233827   19.261085   21.508817 C.3        1 MOL1        -0.2427
       2    H1      21.070020   20.159672   22.112322 H          1 MOL1         0.0958
       3    H2      21.807145   18.543853   22.110171 H          1 MOL1         0.0958
       4    H3      21.857303   19.550971   20.653198 H          1 MOL1         0.0958
       5    C2      19.906147   18.638334   21.019402 C.3        1 MOL1        -0.1412
       6    H4      20.155463   17.810563   20.340831 H          1 MOL1         0.0947
       7    H5      19.345423   19.364811   20.415115 H          1 MOL1         0.0947
       8    C3      19.012020   18.080475   22.157299 C.3        1 MOL1        -0.1437
       9    H6      18.449975   17.229128   21.749243 H          1 MOL1         0.0947
      10    H7      19.629265   17.659038   22.961252 H          1 MOL1         0.0947
      11    C4      17.969757   19.081468   22.725423 C.3        1 MOL1        -0.1437
      12    H8      17.285177   18.535029   23.387425 H          1 MOL1         0.0947
      13    H9      17.342992   19.445906   21.900066 H          1 MOL1         0.0947
      14    C5      18.539450   20.304144   23.490707 C.3        1 MOL1        -0.1437
      15    H10     19.082844   20.950514   22.790486 H          1 MOL1         0.0947
      16    H11     17.697798   20.911691   23.850532 H          1 MOL1         0.0947
      17    C6      19.454404   19.961499   24.694876 C.3        1 MOL1        -0.1437
      18    H12     19.812651   20.901725   25.136309 H          1 MOL1         0.0947
      19    H13     20.347591   19.430719   24.343981 H          1 MOL1         0.0947
      20    C7      18.742193   19.130867   25.790889 C.3        1 MOL1        -0.1477
      21    H14     17.812245   19.636084   26.083466 H          1 MOL1         0.0947
      22    H15     18.456645   18.146079   25.399850 H          1 MOL1         0.0947
      23    C8      19.612144   18.941350   27.048065 C.3        1 MOL1         0.0145
      24    H16     19.033083   18.420171   27.815241 H          1 MOL1         0.0921
      25    H17     19.903582   19.917603   27.444725 H          1 MOL1         0.0921
      26    N1      20.874058   18.138778   26.799521 N.4        1 MOL1        -0.5969
      27    H18     21.481938   18.592881   26.110804 H          1 MOL1         0.3603
      28    H19     20.663724   17.199131   26.447503 H          1 MOL1         0.3603
      29    H20     21.425222   18.021788   27.656904 H          1 MOL1         0.3603
@<TRIPOS>BOND
    1     1     2    1
    2     1     3    1
    3     1     4    1
    4     1     5    1
    5     5     6    1
    6     5     7    1
    7     5     8    1
    8     8     9    1
    9     8    10    1
   10     8    11    1
   11    11    12    1
   12    11    13    1
   13    11    14    1
   14    14    15    1
   15    14    16    1
   16    14    17    1
   17    17    18    1
   18    17    19    1
   19    17    20    1
   20    20    21    1
   21    20    22    1
   22    20    23    1
   23    23    24    1
   24    23    25    1
   25    23    26    1
   26    26    27    1
   27    26    28    1
   28    26    29    1
@<TRIPOS>SUBSTRUCTURE
       1 MOL1            1 RESIDUE      1      MOL     
@<SCITEGIC>MOL_PROPERTY
VM2 Rank
SciTegic.value.IntegerValue
422

@<SCITEGIC>MOL_PROPERTY
Conf_Id
SciTegic.value.IntegerValue
1376

@<SCITEGIC>MOL_PROPERTY
Probability
SciTegic.value.DoubleValue
0.00

@<SCITEGIC>MOL_PROPERTY
Sum Probability
SciTegic.value.DoubleValue
99.99

@<SCITEGIC>MOL_PROPERTY
Delta G
SciTegic.value.DoubleValue
5.330

@<SCITEGIC>MOL_PROPERTY
G
SciTegic.value.DoubleValue
63.477

@<SCITEGIC>MOL_PROPERTY
E
SciTegic.value.DoubleValue
25.107

@<SCITEGIC>MOL_PROPERTY
-TS
SciTegic.value.DoubleValue
38.369

@<SCITEGIC>MOL_PROPERTY
U+W
SciTegic.value.DoubleValue
0.963

@<SCITEGIC>MOL_PROPERTY
U
SciTegic.value.DoubleValue
53.573

@<SCITEGIC>MOL_PROPERTY
W
SciTegic.value.DoubleValue
-52.610

@<SCITEGIC>MOL_PROPERTY
W(PB)
SciTegic.value.DoubleValue
-54.983

@<SCITEGIC>MOL_PROPERTY
W(SA)
SciTegic.value.DoubleValue
2.373

@<SCITEGIC>MOL_PROPERTY
Valence
SciTegic.value.DoubleValue
6.709

@<SCITEGIC>MOL_PROPERTY
Coulomb
SciTegic.value.DoubleValue
46.319

@<SCITEGIC>MOL_PROPERTY
VdW
SciTegic.value.DoubleValue
0.545

@<SCITEGIC>MOL_PROPERTY
VdW6
SciTegic.value.DoubleValue
-11.239

@<SCITEGIC>MOL_PROPERTY
VdW12
SciTegic.value.DoubleValue
11.784

@<SCITEGIC>MOL_PROPERTY
Bond
SciTegic.value.DoubleValue
0.343

@<SCITEGIC>MOL_PROPERTY
Angle
SciTegic.value.DoubleValue
2.260

@<SCITEGIC>MOL_PROPERTY
Pdih
SciTegic.value.DoubleValue
4.107

@<SCITEGIC>MOL_PROPERTY
Idih
SciTegic.value.DoubleValue
0.000

@<SCITEGIC>MOL_PROPERTY
Tether
SciTegic.value.DoubleValue
0.000

@<TRIPOS>MOLECULE
guest-3_vm2.mol2 : vm2 ligand conformer 423
          29          28           1
SMALL
USER_CHARGES
 
@<TRIPOS>ATOM
       1    C1      21.274808   19.526455   21.016678 C.3        1 MOL1        -0.2427
       2    H1      21.261781   20.324930   21.768711 H          1 MOL1         0.0958
       3    H2      21.915951   18.715290   21.385341 H          1 MOL1         0.0958
       4    H3      21.739573   19.935693   20.110341 H          1 MOL1         0.0958
       5    C2      19.850144   19.012668   20.707966 C.3        1 MOL1        -0.1412
       6    H4      19.902736   18.310321   19.864347 H          1 MOL1         0.0947
       7    H5      19.219844   19.848432   20.373384 H          1 MOL1         0.0947
       8    C3      19.180296   18.298645   21.906512 C.3        1 MOL1        -0.1437
       9    H6      18.229336   17.865278   21.567096 H          1 MOL1         0.0947
      10    H7      19.807149   17.455065   22.226402 H          1 MOL1         0.0947
      11    C4      18.907858   19.235360   23.107503 C.3        1 MOL1        -0.1437
      12    H8      18.306887   20.092536   22.774154 H          1 MOL1         0.0947
      13    H9      19.855707   19.640694   23.478689 H          1 MOL1         0.0947
      14    C5      18.163544   18.500074   24.248032 C.3        1 MOL1        -0.1437
      15    H10     17.217961   18.103773   23.852732 H          1 MOL1         0.0947
      16    H11     18.734976   17.623017   24.575865 H          1 MOL1         0.0947
      17    C6      17.836585   19.406384   25.462028 C.3        1 MOL1        -0.1437
      18    H12     17.264982   18.818094   26.193126 H          1 MOL1         0.0947
      19    H13     17.161239   20.207421   25.131174 H          1 MOL1         0.0947
      20    C7      19.050929   20.050790   26.183379 C.3        1 MOL1        -0.1477
      21    H14     19.581133   20.743198   25.517272 H          1 MOL1         0.0947
      22    H15     18.661113   20.670312   27.001896 H          1 MOL1         0.0947
      23    C8      20.039675   19.036930   26.795540 C.3        1 MOL1         0.0145
      24    H16     19.486920   18.207015   27.243775 H          1 MOL1         0.0921
      25    H17     20.613829   19.528409   27.585611 H          1 MOL1         0.0921
      26    N1      21.040161   18.470692   25.807361 N.4        1 MOL1        -0.5969
      27    H18     21.648084   19.202031   25.424408 H          1 MOL1         0.3603
      28    H19     20.571043   18.019560   25.016014 H          1 MOL1         0.3603
      29    H20     21.650866   17.770823   26.243258 H          1 MOL1         0.3603
@<TRIPOS>BOND
    1     1     2    1
    2     1     3    1
    3     1     4    1
    4     1     5    1
    5     5     6    1
    6     5     7    1
    7     5     8    1
    8     8     9    1
    9     8    10    1
   10     8    11    1
   11    11    12    1
   12    11    13    1
   13    11    14    1
   14    14    15    1
   15    14    16    1
   16    14    17    1
   17    17    18    1
   18    17    19    1
   19    17    20    1
   20    20    21    1
   21    20    22    1
   22    20    23    1
   23    23    24    1
   24    23    25    1
   25    23    26    1
   26    26    27    1
   27    26    28    1
   28    26    29    1
@<TRIPOS>SUBSTRUCTURE
       1 MOL1            1 RESIDUE      1      MOL     
@<SCITEGIC>MOL_PROPERTY
VM2 Rank
SciTegic.value.IntegerValue
423

@<SCITEGIC>MOL_PROPERTY
Conf_Id
SciTegic.value.IntegerValue
2014

@<SCITEGIC>MOL_PROPERTY
Probability
SciTegic.value.DoubleValue
0.00

@<SCITEGIC>MOL_PROPERTY
Sum Probability
SciTegic.value.DoubleValue
99.99

@<SCITEGIC>MOL_PROPERTY
Delta G
SciTegic.value.DoubleValue
5.417

@<SCITEGIC>MOL_PROPERTY
G
SciTegic.value.DoubleValue
63.564

@<SCITEGIC>MOL_PROPERTY
E
SciTegic.value.DoubleValue
25.471

@<SCITEGIC>MOL_PROPERTY
-TS
SciTegic.value.DoubleValue
38.092

@<SCITEGIC>MOL_PROPERTY
U+W
SciTegic.value.DoubleValue
1.327

@<SCITEGIC>MOL_PROPERTY
U
SciTegic.value.DoubleValue
53.053

@<SCITEGIC>MOL_PROPERTY
W
SciTegic.value.DoubleValue
-51.726

@<SCITEGIC>MOL_PROPERTY
W(PB)
SciTegic.value.DoubleValue
-54.121

@<SCITEGIC>MOL_PROPERTY
W(SA)
SciTegic.value.DoubleValue
2.395

@<SCITEGIC>MOL_PROPERTY
Valence
SciTegic.value.DoubleValue
5.137

@<SCITEGIC>MOL_PROPERTY
Coulomb
SciTegic.value.DoubleValue
47.396

@<SCITEGIC>MOL_PROPERTY
VdW
SciTegic.value.DoubleValue
0.520

@<SCITEGIC>MOL_PROPERTY
VdW6
SciTegic.value.DoubleValue
-10.608

@<SCITEGIC>MOL_PROPERTY
VdW12
SciTegic.value.DoubleValue
11.128

@<SCITEGIC>MOL_PROPERTY
Bond
SciTegic.value.DoubleValue
0.284

@<SCITEGIC>MOL_PROPERTY
Angle
SciTegic.value.DoubleValue
1.688

@<SCITEGIC>MOL_PROPERTY
Pdih
SciTegic.value.DoubleValue
3.165

@<SCITEGIC>MOL_PROPERTY
Idih
SciTegic.value.DoubleValue
0.000

@<SCITEGIC>MOL_PROPERTY
Tether
SciTegic.value.DoubleValue
0.000

@<TRIPOS>MOLECULE
guest-3_vm2.mol2 : vm2 ligand conformer 424
          29          28           1
SMALL
USER_CHARGES
 
@<TRIPOS>ATOM
       1    C1      20.617624   17.681153   20.975408 C.3        1 MOL1        -0.2427
       2    H1      20.092231   17.041387   21.695094 H          1 MOL1         0.0958
       3    H2      20.732241   17.106771   20.047034 H          1 MOL1         0.0958
       4    H3      21.621722   17.889291   21.367109 H          1 MOL1         0.0958
       5    C2      19.842602   18.991301   20.707455 C.3        1 MOL1        -0.1412
       6    H4      18.830836   18.755907   20.348785 H          1 MOL1         0.0947
       7    H5      20.339156   19.535245   19.891789 H          1 MOL1         0.0947
       8    C3      19.757573   19.919656   21.942756 C.3        1 MOL1        -0.1437
       9    H6      20.771821   20.163977   22.287008 H          1 MOL1         0.0947
      10    H7      19.299146   20.869403   21.634279 H          1 MOL1         0.0947
      11    C4      18.937649   19.318951   23.109341 C.3        1 MOL1        -0.1437
      12    H8      19.410973   18.391648   23.450758 H          1 MOL1         0.0947
      13    H9      17.935081   19.048221   22.750734 H          1 MOL1         0.0947
      14    C5      18.809103   20.313164   24.288524 C.3        1 MOL1        -0.1437
      15    H10     19.801412   20.618211   24.642795 H          1 MOL1         0.0947
      16    H11     18.332127   21.232981   23.922637 H          1 MOL1         0.0947
      17    C6      17.966008   19.769897   25.470107 C.3        1 MOL1        -0.1437
      18    H12     16.941233   19.589424   25.117287 H          1 MOL1         0.0947
      19    H13     17.884214   20.557455   26.231934 H          1 MOL1         0.0947
      20    C7      18.489999   18.475331   26.148172 C.3        1 MOL1        -0.1477
      21    H14     17.784932   18.209488   26.946885 H          1 MOL1         0.0947
      22    H15     18.473016   17.630731   25.447738 H          1 MOL1         0.0947
      23    C8      19.888144   18.611465   26.786083 C.3        1 MOL1         0.0145
      24    H16     20.011551   17.836948   27.547866 H          1 MOL1         0.0921
      25    H17     19.977574   19.585390   27.274635 H          1 MOL1         0.0921
      26    N1      21.035297   18.457082   25.807155 N.4        1 MOL1        -0.5969
      27    H18     21.049980   17.522040   25.386961 H          1 MOL1         0.3603
      28    H19     21.944572   18.595906   26.261835 H          1 MOL1         0.3603
      29    H20     20.967838   19.134065   25.041018 H          1 MOL1         0.3603
@<TRIPOS>BOND
    1     1     2    1
    2     1     3    1
    3     1     4    1
    4     1     5    1
    5     5     6    1
    6     5     7    1
    7     5     8    1
    8     8     9    1
    9     8    10    1
   10     8    11    1
   11    11    12    1
   12    11    13    1
   13    11    14    1
   14    14    15    1
   15    14    16    1
   16    14    17    1
   17    17    18    1
   18    17    19    1
   19    17    20    1
   20    20    21    1
   21    20    22    1
   22    20    23    1
   23    23    24    1
   24    23    25    1
   25    23    26    1
   26    26    27    1
   27    26    28    1
   28    26    29    1
@<TRIPOS>SUBSTRUCTURE
       1 MOL1            1 RESIDUE      1      MOL     
@<SCITEGIC>MOL_PROPERTY
VM2 Rank
SciTegic.value.IntegerValue
424

@<SCITEGIC>MOL_PROPERTY
Conf_Id
SciTegic.value.IntegerValue
1981

@<SCITEGIC>MOL_PROPERTY
Probability
SciTegic.value.DoubleValue
0.00

@<SCITEGIC>MOL_PROPERTY
Sum Probability
SciTegic.value.DoubleValue
99.99

@<SCITEGIC>MOL_PROPERTY
Delta G
SciTegic.value.DoubleValue
5.495

@<SCITEGIC>MOL_PROPERTY
G
SciTegic.value.DoubleValue
63.641

@<SCITEGIC>MOL_PROPERTY
E
SciTegic.value.DoubleValue
25.549

@<SCITEGIC>MOL_PROPERTY
-TS
SciTegic.value.DoubleValue
38.092

@<SCITEGIC>MOL_PROPERTY
U+W
SciTegic.value.DoubleValue
1.404

@<SCITEGIC>MOL_PROPERTY
U
SciTegic.value.DoubleValue
53.053

@<SCITEGIC>MOL_PROPERTY
W
SciTegic.value.DoubleValue
-51.648

@<SCITEGIC>MOL_PROPERTY
W(PB)
SciTegic.value.DoubleValue
-54.061

@<SCITEGIC>MOL_PROPERTY
W(SA)
SciTegic.value.DoubleValue
2.412

@<SCITEGIC>MOL_PROPERTY
Valence
SciTegic.value.DoubleValue
5.137

@<SCITEGIC>MOL_PROPERTY
Coulomb
SciTegic.value.DoubleValue
47.396

@<SCITEGIC>MOL_PROPERTY
VdW
SciTegic.value.DoubleValue
0.520

@<SCITEGIC>MOL_PROPERTY
VdW6
SciTegic.value.DoubleValue
-10.608

@<SCITEGIC>MOL_PROPERTY
VdW12
SciTegic.value.DoubleValue
11.128

@<SCITEGIC>MOL_PROPERTY
Bond
SciTegic.value.DoubleValue
0.284

@<SCITEGIC>MOL_PROPERTY
Angle
SciTegic.value.DoubleValue
1.688

@<SCITEGIC>MOL_PROPERTY
Pdih
SciTegic.value.DoubleValue
3.165

@<SCITEGIC>MOL_PROPERTY
Idih
SciTegic.value.DoubleValue
0.000

@<SCITEGIC>MOL_PROPERTY
Tether
SciTegic.value.DoubleValue
0.000

@<TRIPOS>MOLECULE
guest-3_vm2.mol2 : vm2 ligand conformer 425
          29          28           1
SMALL
USER_CHARGES
 
@<TRIPOS>ATOM
       1    C1      20.637969   17.853650   21.417827 C.3        1 MOL1        -0.2427
       2    H1      21.555986   18.316625   21.033436 H          1 MOL1         0.0958
       3    H2      20.739613   17.744881   22.503834 H          1 MOL1         0.0958
       4    H3      20.564887   16.846000   20.988832 H          1 MOL1         0.0958
       5    C2      19.396114   18.693465   21.042358 C.3        1 MOL1        -0.1412
       6    H4      18.484006   18.215225   21.420526 H          1 MOL1         0.0947
       7    H5      19.295793   18.698631   19.948069 H          1 MOL1         0.0947
       8    C3      19.474896   20.159583   21.533116 C.3        1 MOL1        -0.1437
       9    H6      20.341882   20.639884   21.059056 H          1 MOL1         0.0947
      10    H7      18.595325   20.703324   21.162002 H          1 MOL1         0.0947
      11    C4      19.578902   20.362007   23.068963 C.3        1 MOL1        -0.1437
      12    H8      19.694231   21.440802   23.242038 H          1 MOL1         0.0947
      13    H9      20.501862   19.913961   23.453800 H          1 MOL1         0.0947
      14    C5      18.337536   19.889543   23.875418 C.3        1 MOL1        -0.1437
      15    H10     18.182576   20.580253   24.714736 H          1 MOL1         0.0947
      16    H11     17.439275   19.994745   23.251842 H          1 MOL1         0.0947
      17    C6      18.404380   18.440585   24.432930 C.3        1 MOL1        -0.1437
      18    H12     18.503438   17.722758   23.610947 H          1 MOL1         0.0947
      19    H13     17.441148   18.210827   24.908981 H          1 MOL1         0.0947
      20    C7      19.532280   18.182317   25.464194 C.3        1 MOL1        -0.1477
      21    H14     19.458841   17.143212   25.811551 H          1 MOL1         0.0947
      22    H15     20.515140   18.274892   24.986840 H          1 MOL1         0.0947
      23    C8      19.458543   19.122931   26.681075 C.3        1 MOL1         0.0145
      24    H16     18.481887   19.025720   27.162728 H          1 MOL1         0.0921
      25    H17     19.581112   20.158903   26.354640 H          1 MOL1         0.0921
      26    N1      20.523381   18.833918   27.719119 N.4        1 MOL1        -0.5969
      27    H18     20.447341   17.880382   28.088425 H          1 MOL1         0.3603
      28    H19     20.456620   19.470976   28.520546 H          1 MOL1         0.3603
      29    H20     21.468586   18.934854   27.334807 H          1 MOL1         0.3603
@<TRIPOS>BOND
    1     1     2    1
    2     1     3    1
    3     1     4    1
    4     1     5    1
    5     5     6    1
    6     5     7    1
    7     5     8    1
    8     8     9    1
    9     8    10    1
   10     8    11    1
   11    11    12    1
   12    11    13    1
   13    11    14    1
   14    14    15    1
   15    14    16    1
   16    14    17    1
   17    17    18    1
   18    17    19    1
   19    17    20    1
   20    20    21    1
   21    20    22    1
   22    20    23    1
   23    23    24    1
   24    23    25    1
   25    23    26    1
   26    26    27    1
   27    26    28    1
   28    26    29    1
@<TRIPOS>SUBSTRUCTURE
       1 MOL1            1 RESIDUE      1      MOL     
@<SCITEGIC>MOL_PROPERTY
VM2 Rank
SciTegic.value.IntegerValue
425

@<SCITEGIC>MOL_PROPERTY
Conf_Id
SciTegic.value.IntegerValue
345

@<SCITEGIC>MOL_PROPERTY
Probability
SciTegic.value.DoubleValue
0.00

@<SCITEGIC>MOL_PROPERTY
Sum Probability
SciTegic.value.DoubleValue
99.99

@<SCITEGIC>MOL_PROPERTY
Delta G
SciTegic.value.DoubleValue
5.620

@<SCITEGIC>MOL_PROPERTY
G
SciTegic.value.DoubleValue
63.766

@<SCITEGIC>MOL_PROPERTY
E
SciTegic.value.DoubleValue
25.273

@<SCITEGIC>MOL_PROPERTY
-TS
SciTegic.value.DoubleValue
38.493

@<SCITEGIC>MOL_PROPERTY
U+W
SciTegic.value.DoubleValue
1.129

@<SCITEGIC>MOL_PROPERTY
U
SciTegic.value.DoubleValue
53.578

@<SCITEGIC>MOL_PROPERTY
W
SciTegic.value.DoubleValue
-52.450

@<SCITEGIC>MOL_PROPERTY
W(PB)
SciTegic.value.DoubleValue
-54.823

@<SCITEGIC>MOL_PROPERTY
W(SA)
SciTegic.value.DoubleValue
2.374

@<SCITEGIC>MOL_PROPERTY
Valence
SciTegic.value.DoubleValue
7.222

@<SCITEGIC>MOL_PROPERTY
Coulomb
SciTegic.value.DoubleValue
45.791

@<SCITEGIC>MOL_PROPERTY
VdW
SciTegic.value.DoubleValue
0.565

@<SCITEGIC>MOL_PROPERTY
VdW6
SciTegic.value.DoubleValue
-11.257

@<SCITEGIC>MOL_PROPERTY
VdW12
SciTegic.value.DoubleValue
11.821

@<SCITEGIC>MOL_PROPERTY
Bond
SciTegic.value.DoubleValue
0.375

@<SCITEGIC>MOL_PROPERTY
Angle
SciTegic.value.DoubleValue
2.547

@<SCITEGIC>MOL_PROPERTY
Pdih
SciTegic.value.DoubleValue
4.300

@<SCITEGIC>MOL_PROPERTY
Idih
SciTegic.value.DoubleValue
0.000

@<SCITEGIC>MOL_PROPERTY
Tether
SciTegic.value.DoubleValue
0.000

@<TRIPOS>MOLECULE
guest-3_vm2.mol2 : vm2 ligand conformer 426
          29          28           1
SMALL
USER_CHARGES
 
@<TRIPOS>ATOM
       1    C1      19.849737   18.400349   20.237063 C.3        1 MOL1        -0.2427
       2    H1      19.938617   17.467219   20.807095 H          1 MOL1         0.0958
       3    H2      19.241360   18.188524   19.348356 H          1 MOL1         0.0958
       4    H3      20.851631   18.692727   19.897027 H          1 MOL1         0.0958
       5    C2      19.201958   19.520053   21.082334 C.3        1 MOL1        -0.1412
       6    H4      18.209041   19.198734   21.423881 H          1 MOL1         0.0947
       7    H5      19.030885   20.394489   20.439222 H          1 MOL1         0.0947
       8    C3      20.068637   19.957825   22.290234 C.3        1 MOL1        -0.1437
       9    H6      21.016764   20.366716   21.915062 H          1 MOL1         0.0947
      10    H7      19.570335   20.791517   22.802300 H          1 MOL1         0.0947
      11    C4      20.384994   18.837549   23.317125 C.3        1 MOL1        -0.1437
      12    H8      21.005848   19.262874   24.115252 H          1 MOL1         0.0947
      13    H9      21.013172   18.075153   22.837766 H          1 MOL1         0.0947
      14    C5      19.141700   18.143968   23.936715 C.3        1 MOL1        -0.1437
      15    H10     18.598847   17.610589   23.145196 H          1 MOL1         0.0947
      16    H11     19.469514   17.358757   24.628462 H          1 MOL1         0.0947
      17    C6      18.149635   19.092858   24.660291 C.3        1 MOL1        -0.1437
      18    H12     17.317303   18.494270   25.055264 H          1 MOL1         0.0947
      19    H13     17.698075   19.767363   23.920872 H          1 MOL1         0.0947
      20    C7      18.739905   19.947621   25.813450 C.3        1 MOL1        -0.1477
      21    H14     19.547244   20.595586   25.449594 H          1 MOL1         0.0947
      22    H15     17.950235   20.626402   26.161729 H          1 MOL1         0.0947
      23    C8      19.217610   19.129653   27.031106 C.3        1 MOL1         0.0145
      24    H16     18.500217   18.332836   27.244663 H          1 MOL1         0.0921
      25    H17     19.266383   19.785024   27.904894 H          1 MOL1         0.0921
      26    N1      20.589823   18.508124   26.866682 N.4        1 MOL1        -0.5969
      27    H18     20.625753   17.888103   26.052356 H          1 MOL1         0.3603
      28    H19     20.856297   17.952227   27.686782 H          1 MOL1         0.3603
      29    H20     21.315104   19.221275   26.739228 H          1 MOL1         0.3603
@<TRIPOS>BOND
    1     1     2    1
    2     1     3    1
    3     1     4    1
    4     1     5    1
    5     5     6    1
    6     5     7    1
    7     5     8    1
    8     8     9    1
    9     8    10    1
   10     8    11    1
   11    11    12    1
   12    11    13    1
   13    11    14    1
   14    14    15    1
   15    14    16    1
   16    14    17    1
   17    17    18    1
   18    17    19    1
   19    17    20    1
   20    20    21    1
   21    20    22    1
   22    20    23    1
   23    23    24    1
   24    23    25    1
   25    23    26    1
   26    26    27    1
   27    26    28    1
   28    26    29    1
@<TRIPOS>SUBSTRUCTURE
       1 MOL1            1 RESIDUE      1      MOL     
@<SCITEGIC>MOL_PROPERTY
VM2 Rank
SciTegic.value.IntegerValue
426

@<SCITEGIC>MOL_PROPERTY
Conf_Id
SciTegic.value.IntegerValue
610

@<SCITEGIC>MOL_PROPERTY
Probability
SciTegic.value.DoubleValue
0.00

@<SCITEGIC>MOL_PROPERTY
Sum Probability
SciTegic.value.DoubleValue
99.99

@<SCITEGIC>MOL_PROPERTY
Delta G
SciTegic.value.DoubleValue
5.789

@<SCITEGIC>MOL_PROPERTY
G
SciTegic.value.DoubleValue
63.936

@<SCITEGIC>MOL_PROPERTY
E
SciTegic.value.DoubleValue
25.141

@<SCITEGIC>MOL_PROPERTY
-TS
SciTegic.value.DoubleValue
38.795

@<SCITEGIC>MOL_PROPERTY
U+W
SciTegic.value.DoubleValue
0.996

@<SCITEGIC>MOL_PROPERTY
U
SciTegic.value.DoubleValue
53.436

@<SCITEGIC>MOL_PROPERTY
W
SciTegic.value.DoubleValue
-52.439

@<SCITEGIC>MOL_PROPERTY
W(PB)
SciTegic.value.DoubleValue
-54.789

@<SCITEGIC>MOL_PROPERTY
W(SA)
SciTegic.value.DoubleValue
2.350

@<SCITEGIC>MOL_PROPERTY
Valence
SciTegic.value.DoubleValue
5.973

@<SCITEGIC>MOL_PROPERTY
Coulomb
SciTegic.value.DoubleValue
47.084

@<SCITEGIC>MOL_PROPERTY
VdW
SciTegic.value.DoubleValue
0.378

@<SCITEGIC>MOL_PROPERTY
VdW6
SciTegic.value.DoubleValue
-12.409

@<SCITEGIC>MOL_PROPERTY
VdW12
SciTegic.value.DoubleValue
12.787

@<SCITEGIC>MOL_PROPERTY
Bond
SciTegic.value.DoubleValue
0.379

@<SCITEGIC>MOL_PROPERTY
Angle
SciTegic.value.DoubleValue
2.441

@<SCITEGIC>MOL_PROPERTY
Pdih
SciTegic.value.DoubleValue
3.152

@<SCITEGIC>MOL_PROPERTY
Idih
SciTegic.value.DoubleValue
0.000

@<SCITEGIC>MOL_PROPERTY
Tether
SciTegic.value.DoubleValue
0.000

@<TRIPOS>MOLECULE
guest-3_vm2.mol2 : vm2 ligand conformer 427
          29          28           1
SMALL
USER_CHARGES
 
@<TRIPOS>ATOM
       1    C1      19.420549   19.532182   20.196154 C.3        1 MOL1        -0.2427
       2    H1      20.390158   19.951141   19.897388 H          1 MOL1         0.0958
       3    H2      18.833895   19.358529   19.284836 H          1 MOL1         0.0958
       4    H3      18.889461   20.284430   20.792629 H          1 MOL1         0.0958
       5    C2      19.603747   18.213974   20.981473 C.3        1 MOL1        -0.1412
       6    H4      20.029726   17.457612   20.307622 H          1 MOL1         0.0947
       7    H5      18.623313   17.824796   21.286760 H          1 MOL1         0.0947
       8    C3      20.533042   18.354682   22.213973 C.3        1 MOL1        -0.1437
       9    H6      20.632901   17.371977   22.694602 H          1 MOL1         0.0947
      10    H7      21.540654   18.622893   21.867619 H          1 MOL1         0.0947
      11    C4      20.080644   19.393021   23.273128 C.3        1 MOL1        -0.1437
      12    H8      20.080020   20.399117   22.833462 H          1 MOL1         0.0947
      13    H9      20.837128   19.415866   24.066724 H          1 MOL1         0.0947
      14    C5      18.686861   19.090542   23.879957 C.3        1 MOL1        -0.1437
      15    H10     17.933088   19.135426   23.083035 H          1 MOL1         0.0947
      16    H11     18.649567   18.063785   24.263598 H          1 MOL1         0.0947
      17    C6      18.259853   20.089881   24.985301 C.3        1 MOL1        -0.1437
      18    H12     17.240510   19.836951   25.308214 H          1 MOL1         0.0947
      19    H13     18.191581   21.093868   24.544222 H          1 MOL1         0.0947
      20    C7      19.172513   20.162146   26.239155 C.3        1 MOL1        -0.1477
      21    H14     20.170272   20.536770   25.978049 H          1 MOL1         0.0947
      22    H15     18.745637   20.912033   26.918250 H          1 MOL1         0.0947
      23    C8      19.288002   18.836947   27.020387 C.3        1 MOL1         0.0145
      24    H16     18.313127   18.343449   27.056267 H          1 MOL1         0.0921
      25    H17     19.598191   19.051388   28.046649 H          1 MOL1         0.0921
      26    N1      20.298789   17.864623   26.445472 N.4        1 MOL1        -0.5969
      27    H18     20.089103   17.641439   25.467742 H          1 MOL1         0.3603
      28    H19     20.316173   16.980956   26.966574 H          1 MOL1         0.3603
      29    H20     21.249383   18.247659   26.472977 H          1 MOL1         0.3603
@<TRIPOS>BOND
    1     1     2    1
    2     1     3    1
    3     1     4    1
    4     1     5    1
    5     5     6    1
    6     5     7    1
    7     5     8    1
    8     8     9    1
    9     8    10    1
   10     8    11    1
   11    11    12    1
   12    11    13    1
   13    11    14    1
   14    14    15    1
   15    14    16    1
   16    14    17    1
   17    17    18    1
   18    17    19    1
   19    17    20    1
   20    20    21    1
   21    20    22    1
   22    20    23    1
   23    23    24    1
   24    23    25    1
   25    23    26    1
   26    26    27    1
   27    26    28    1
   28    26    29    1
@<TRIPOS>SUBSTRUCTURE
       1 MOL1            1 RESIDUE      1      MOL     
@<SCITEGIC>MOL_PROPERTY
VM2 Rank
SciTegic.value.IntegerValue
427

@<SCITEGIC>MOL_PROPERTY
Conf_Id
SciTegic.value.IntegerValue
180

@<SCITEGIC>MOL_PROPERTY
Probability
SciTegic.value.DoubleValue
0.00

@<SCITEGIC>MOL_PROPERTY
Sum Probability
SciTegic.value.DoubleValue
99.99

@<SCITEGIC>MOL_PROPERTY
Delta G
SciTegic.value.DoubleValue
5.899

@<SCITEGIC>MOL_PROPERTY
G
SciTegic.value.DoubleValue
64.045

@<SCITEGIC>MOL_PROPERTY
E
SciTegic.value.DoubleValue
25.626

@<SCITEGIC>MOL_PROPERTY
-TS
SciTegic.value.DoubleValue
38.420

@<SCITEGIC>MOL_PROPERTY
U+W
SciTegic.value.DoubleValue
1.481

@<SCITEGIC>MOL_PROPERTY
U
SciTegic.value.DoubleValue
53.409

@<SCITEGIC>MOL_PROPERTY
W
SciTegic.value.DoubleValue
-51.928

@<SCITEGIC>MOL_PROPERTY
W(PB)
SciTegic.value.DoubleValue
-54.310

@<SCITEGIC>MOL_PROPERTY
W(SA)
SciTegic.value.DoubleValue
2.382

@<SCITEGIC>MOL_PROPERTY
Valence
SciTegic.value.DoubleValue
5.669

@<SCITEGIC>MOL_PROPERTY
Coulomb
SciTegic.value.DoubleValue
47.137

@<SCITEGIC>MOL_PROPERTY
VdW
SciTegic.value.DoubleValue
0.603

@<SCITEGIC>MOL_PROPERTY
VdW6
SciTegic.value.DoubleValue
-11.423

@<SCITEGIC>MOL_PROPERTY
VdW12
SciTegic.value.DoubleValue
12.027

@<SCITEGIC>MOL_PROPERTY
Bond
SciTegic.value.DoubleValue
0.335

@<SCITEGIC>MOL_PROPERTY
Angle
SciTegic.value.DoubleValue
2.177

@<SCITEGIC>MOL_PROPERTY
Pdih
SciTegic.value.DoubleValue
3.156

@<SCITEGIC>MOL_PROPERTY
Idih
SciTegic.value.DoubleValue
0.000

@<SCITEGIC>MOL_PROPERTY
Tether
SciTegic.value.DoubleValue
0.000

@<TRIPOS>MOLECULE
guest-3_vm2.mol2 : vm2 ligand conformer 428
          29          28           1
SMALL
USER_CHARGES
 
@<TRIPOS>ATOM
       1    C1      20.991362   19.041680   20.201876 C.3        1 MOL1        -0.2427
       2    H1      20.825817   18.067371   19.723794 H          1 MOL1         0.0958
       3    H2      20.449558   19.802287   19.624647 H          1 MOL1         0.0958
       4    H3      22.063159   19.270247   20.138220 H          1 MOL1         0.0958
       5    C2      20.524034   19.025118   21.672538 C.3        1 MOL1        -0.1412
       6    H4      20.742759   20.001342   22.124790 H          1 MOL1         0.0947
       7    H5      21.104155   18.275294   22.227895 H          1 MOL1         0.0947
       8    C3      19.014084   18.707893   21.785474 C.3        1 MOL1        -0.1437
       9    H6      18.432405   19.480456   21.263872 H          1 MOL1         0.0947
      10    H7      18.808829   17.763310   21.262985 H          1 MOL1         0.0947
      11    C4      18.515240   18.578900   23.245177 C.3        1 MOL1        -0.1437
      12    H8      19.094500   17.799793   23.755811 H          1 MOL1         0.0947
      13    H9      17.475677   18.223667   23.227207 H          1 MOL1         0.0947
      14    C5      18.572361   19.911089   24.035306 C.3        1 MOL1        -0.1437
      15    H10     19.600644   20.282830   24.106142 H          1 MOL1         0.0947
      16    H11     18.020016   20.676636   23.473040 H          1 MOL1         0.0947
      17    C6      17.954592   19.813729   25.453240 C.3        1 MOL1        -0.1437
      18    H12     16.888252   19.567198   25.356464 H          1 MOL1         0.0947
      19    H13     17.989016   20.808199   25.919263 H          1 MOL1         0.0947
      20    C7      18.612878   18.789525   26.416335 C.3        1 MOL1        -0.1477
      21    H14     18.055180   18.815629   27.361864 H          1 MOL1         0.0947
      22    H15     18.501235   17.766021   26.036474 H          1 MOL1         0.0947
      23    C8      20.093197   19.080176   26.739416 C.3        1 MOL1         0.0145
      24    H16     20.359897   18.584216   27.676604 H          1 MOL1         0.0921
      25    H17     20.237635   20.155774   26.871488 H          1 MOL1         0.0921
      26    N1      21.066250   18.589889   25.685638 N.4        1 MOL1        -0.5969
      27    H18     21.036429   17.569387   25.590877 H          1 MOL1         0.3603
      28    H19     22.034115   18.841645   25.915447 H          1 MOL1         0.3603
      29    H20     20.852994   18.988353   24.766219 H          1 MOL1         0.3603
@<TRIPOS>BOND
    1     1     2    1
    2     1     3    1
    3     1     4    1
    4     1     5    1
    5     5     6    1
    6     5     7    1
    7     5     8    1
    8     8     9    1
    9     8    10    1
   10     8    11    1
   11    11    12    1
   12    11    13    1
   13    11    14    1
   14    14    15    1
   15    14    16    1
   16    14    17    1
   17    17    18    1
   18    17    19    1
   19    17    20    1
   20    20    21    1
   21    20    22    1
   22    20    23    1
   23    23    24    1
   24    23    25    1
   25    23    26    1
   26    26    27    1
   27    26    28    1
   28    26    29    1
@<TRIPOS>SUBSTRUCTURE
       1 MOL1            1 RESIDUE      1      MOL     
@<SCITEGIC>MOL_PROPERTY
VM2 Rank
SciTegic.value.IntegerValue
428

@<SCITEGIC>MOL_PROPERTY
Conf_Id
SciTegic.value.IntegerValue
1998

@<SCITEGIC>MOL_PROPERTY
Probability
SciTegic.value.DoubleValue
0.00

@<SCITEGIC>MOL_PROPERTY
Sum Probability
SciTegic.value.DoubleValue
99.99

@<SCITEGIC>MOL_PROPERTY
Delta G
SciTegic.value.DoubleValue
5.908

@<SCITEGIC>MOL_PROPERTY
G
SciTegic.value.DoubleValue
64.055

@<SCITEGIC>MOL_PROPERTY
E
SciTegic.value.DoubleValue
25.918

@<SCITEGIC>MOL_PROPERTY
-TS
SciTegic.value.DoubleValue
38.137

@<SCITEGIC>MOL_PROPERTY
U+W
SciTegic.value.DoubleValue
1.773

@<SCITEGIC>MOL_PROPERTY
U
SciTegic.value.DoubleValue
53.452

@<SCITEGIC>MOL_PROPERTY
W
SciTegic.value.DoubleValue
-51.679

@<SCITEGIC>MOL_PROPERTY
W(PB)
SciTegic.value.DoubleValue
-54.077

@<SCITEGIC>MOL_PROPERTY
W(SA)
SciTegic.value.DoubleValue
2.398

@<SCITEGIC>MOL_PROPERTY
Valence
SciTegic.value.DoubleValue
5.149

@<SCITEGIC>MOL_PROPERTY
Coulomb
SciTegic.value.DoubleValue
47.943

@<SCITEGIC>MOL_PROPERTY
VdW
SciTegic.value.DoubleValue
0.360

@<SCITEGIC>MOL_PROPERTY
VdW6
SciTegic.value.DoubleValue
-10.799

@<SCITEGIC>MOL_PROPERTY
VdW12
SciTegic.value.DoubleValue
11.159

@<SCITEGIC>MOL_PROPERTY
Bond
SciTegic.value.DoubleValue
0.286

@<SCITEGIC>MOL_PROPERTY
Angle
SciTegic.value.DoubleValue
1.682

@<SCITEGIC>MOL_PROPERTY
Pdih
SciTegic.value.DoubleValue
3.181

@<SCITEGIC>MOL_PROPERTY
Idih
SciTegic.value.DoubleValue
0.000

@<SCITEGIC>MOL_PROPERTY
Tether
SciTegic.value.DoubleValue
0.000

@<TRIPOS>MOLECULE
guest-3_vm2.mol2 : vm2 ligand conformer 429
          29          28           1
SMALL
USER_CHARGES
 
@<TRIPOS>ATOM
       1    C1      20.596484   17.443845   20.894560 C.3        1 MOL1        -0.2427
       2    H1      21.205585   16.998090   21.691729 H          1 MOL1         0.0958
       3    H2      20.285350   16.637810   20.217424 H          1 MOL1         0.0958
       4    H3      21.230941   18.135981   20.325669 H          1 MOL1         0.0958
       5    C2      19.366354   18.170998   21.477233 C.3        1 MOL1        -0.1412
       6    H4      18.735607   17.447235   22.012109 H          1 MOL1         0.0947
       7    H5      18.758282   18.575911   20.656164 H          1 MOL1         0.0947
       8    C3      19.777148   19.311775   22.433578 C.3        1 MOL1        -0.1437
       9    H6      20.401634   18.904543   23.236997 H          1 MOL1         0.0947
      10    H7      20.403730   20.033916   21.892137 H          1 MOL1         0.0947
      11    C4      18.544585   20.043730   23.018844 C.3        1 MOL1        -0.1437
      12    H8      17.831742   19.328956   23.451048 H          1 MOL1         0.0947
      13    H9      18.013366   20.529410   22.188562 H          1 MOL1         0.0947
      14    C5      18.916398   21.125273   24.064906 C.3        1 MOL1        -0.1437
      15    H10     19.916145   21.529475   23.854284 H          1 MOL1         0.0947
      16    H11     18.226530   21.970688   23.935279 H          1 MOL1         0.0947
      17    C6      18.825266   20.679624   25.549749 C.3        1 MOL1        -0.1437
      18    H12     17.795157   20.381527   25.789612 H          1 MOL1         0.0947
      19    H13     19.028085   21.563506   26.170256 H          1 MOL1         0.0947
      20    C7      19.809583   19.562861   25.977435 C.3        1 MOL1        -0.1477
      21    H14     20.782722   19.711353   25.491592 H          1 MOL1         0.0947
      22    H15     19.988052   19.650604   27.057434 H          1 MOL1         0.0947
      23    C8      19.273347   18.145505   25.697434 C.3        1 MOL1         0.0145
      24    H16     19.076271   18.020669   24.630984 H          1 MOL1         0.0921
      25    H17     18.334788   17.995736   26.237773 H          1 MOL1         0.0921
      26    N1      20.234835   17.054388   26.121261 N.4        1 MOL1        -0.5969
      27    H18     20.437268   17.094359   27.125665 H          1 MOL1         0.3603
      28    H19     21.131741   17.122921   25.629477 H          1 MOL1         0.3603
      29    H20     19.858270   16.119532   25.929644 H          1 MOL1         0.3603
@<TRIPOS>BOND
    1     1     2    1
    2     1     3    1
    3     1     4    1
    4     1     5    1
    5     5     6    1
    6     5     7    1
    7     5     8    1
    8     8     9    1
    9     8    10    1
   10     8    11    1
   11    11    12    1
   12    11    13    1
   13    11    14    1
   14    14    15    1
   15    14    16    1
   16    14    17    1
   17    17    18    1
   18    17    19    1
   19    17    20    1
   20    20    21    1
   21    20    22    1
   22    20    23    1
   23    23    24    1
   24    23    25    1
   25    23    26    1
   26    26    27    1
   27    26    28    1
   28    26    29    1
@<TRIPOS>SUBSTRUCTURE
       1 MOL1            1 RESIDUE      1      MOL     
@<SCITEGIC>MOL_PROPERTY
VM2 Rank
SciTegic.value.IntegerValue
429

@<SCITEGIC>MOL_PROPERTY
Conf_Id
SciTegic.value.IntegerValue
2261

@<SCITEGIC>MOL_PROPERTY
Probability
SciTegic.value.DoubleValue
0.00

@<SCITEGIC>MOL_PROPERTY
Sum Probability
SciTegic.value.DoubleValue
99.99

@<SCITEGIC>MOL_PROPERTY
Delta G
SciTegic.value.DoubleValue
5.942

@<SCITEGIC>MOL_PROPERTY
G
SciTegic.value.DoubleValue
64.088

@<SCITEGIC>MOL_PROPERTY
E
SciTegic.value.DoubleValue
25.958

@<SCITEGIC>MOL_PROPERTY
-TS
SciTegic.value.DoubleValue
38.131

@<SCITEGIC>MOL_PROPERTY
U+W
SciTegic.value.DoubleValue
1.813

@<SCITEGIC>MOL_PROPERTY
U
SciTegic.value.DoubleValue
54.581

@<SCITEGIC>MOL_PROPERTY
W
SciTegic.value.DoubleValue
-52.768

@<SCITEGIC>MOL_PROPERTY
W(PB)
SciTegic.value.DoubleValue
-55.197

@<SCITEGIC>MOL_PROPERTY
W(SA)
SciTegic.value.DoubleValue
2.429

@<SCITEGIC>MOL_PROPERTY
Valence
SciTegic.value.DoubleValue
7.466

@<SCITEGIC>MOL_PROPERTY
Coulomb
SciTegic.value.DoubleValue
46.879

@<SCITEGIC>MOL_PROPERTY
VdW
SciTegic.value.DoubleValue
0.236

@<SCITEGIC>MOL_PROPERTY
VdW6
SciTegic.value.DoubleValue
-10.465

@<SCITEGIC>MOL_PROPERTY
VdW12
SciTegic.value.DoubleValue
10.701

@<SCITEGIC>MOL_PROPERTY
Bond
SciTegic.value.DoubleValue
0.266

@<SCITEGIC>MOL_PROPERTY
Angle
SciTegic.value.DoubleValue
1.749

@<SCITEGIC>MOL_PROPERTY
Pdih
SciTegic.value.DoubleValue
5.451

@<SCITEGIC>MOL_PROPERTY
Idih
SciTegic.value.DoubleValue
0.000

@<SCITEGIC>MOL_PROPERTY
Tether
SciTegic.value.DoubleValue
0.000

@<TRIPOS>MOLECULE
guest-3_vm2.mol2 : vm2 ligand conformer 430
          29          28           1
SMALL
USER_CHARGES
 
@<TRIPOS>ATOM
       1    C1      21.409339   19.726963   20.945573 C.3        1 MOL1        -0.2427
       2    H1      22.151797   19.655712   21.751092 H          1 MOL1         0.0958
       3    H2      21.471898   18.812873   20.340801 H          1 MOL1         0.0958
       4    H3      21.686888   20.574379   20.305366 H          1 MOL1         0.0958
       5    C2      19.988331   19.917963   21.516301 C.3        1 MOL1        -0.1412
       6    H4      19.272810   20.021146   20.688506 H          1 MOL1         0.0947
       7    H5      19.949100   20.855534   22.088305 H          1 MOL1         0.0947
       8    C3      19.572639   18.737352   22.420778 C.3        1 MOL1        -0.1437
       9    H6      19.609798   17.803923   21.842349 H          1 MOL1         0.0947
      10    H7      20.302578   18.626321   23.230817 H          1 MOL1         0.0947
      11    C4      18.146654   18.926029   22.993899 C.3        1 MOL1        -0.1437
      12    H8      17.439830   18.918442   22.152598 H          1 MOL1         0.0947
      13    H9      18.039513   19.912585   23.464087 H          1 MOL1         0.0947
      14    C5      17.736922   17.812367   23.990948 C.3        1 MOL1        -0.1437
      15    H10     16.670008   17.598719   23.837666 H          1 MOL1         0.0947
      16    H11     18.259498   16.876263   23.750408 H          1 MOL1         0.0947
      17    C6      17.926823   18.156154   25.493419 C.3        1 MOL1        -0.1437
      18    H12     17.516956   17.319133   26.075499 H          1 MOL1         0.0947
      19    H13     17.313281   19.028131   25.759393 H          1 MOL1         0.0947
      20    C7      19.389159   18.382088   25.951111 C.3        1 MOL1        -0.1477
      21    H14     19.456806   18.158704   27.024178 H          1 MOL1         0.0947
      22    H15     20.056509   17.671629   25.446149 H          1 MOL1         0.0947
      23    C8      19.872789   19.829239   25.734995 C.3        1 MOL1         0.0145
      24    H16     19.232352   20.516682   26.294061 H          1 MOL1         0.0921
      25    H17     19.813851   20.092599   24.677213 H          1 MOL1         0.0921
      26    N1      21.301342   20.049845   26.187976 N.4        1 MOL1        -0.5969
      27    H18     21.960116   19.449656   25.681245 H          1 MOL1         0.3603
      28    H19     21.418917   19.851302   27.187057 H          1 MOL1         0.3603
      29    H20     21.602717   21.019065   26.038776 H          1 MOL1         0.3603
@<TRIPOS>BOND
    1     1     2    1
    2     1     3    1
    3     1     4    1
    4     1     5    1
    5     5     6    1
    6     5     7    1
    7     5     8    1
    8     8     9    1
    9     8    10    1
   10     8    11    1
   11    11    12    1
   12    11    13    1
   13    11    14    1
   14    14    15    1
   15    14    16    1
   16    14    17    1
   17    17    18    1
   18    17    19    1
   19    17    20    1
   20    20    21    1
   21    20    22    1
   22    20    23    1
   23    23    24    1
   24    23    25    1
   25    23    26    1
   26    26    27    1
   27    26    28    1
   28    26    29    1
@<TRIPOS>SUBSTRUCTURE
       1 MOL1            1 RESIDUE      1      MOL     
@<SCITEGIC>MOL_PROPERTY
VM2 Rank
SciTegic.value.IntegerValue
430

@<SCITEGIC>MOL_PROPERTY
Conf_Id
SciTegic.value.IntegerValue
1530

@<SCITEGIC>MOL_PROPERTY
Probability
SciTegic.value.DoubleValue
0.00

@<SCITEGIC>MOL_PROPERTY
Sum Probability
SciTegic.value.DoubleValue
100.00

@<SCITEGIC>MOL_PROPERTY
Delta G
SciTegic.value.DoubleValue
5.955

@<SCITEGIC>MOL_PROPERTY
G
SciTegic.value.DoubleValue
64.101

@<SCITEGIC>MOL_PROPERTY
E
SciTegic.value.DoubleValue
25.970

@<SCITEGIC>MOL_PROPERTY
-TS
SciTegic.value.DoubleValue
38.131

@<SCITEGIC>MOL_PROPERTY
U+W
SciTegic.value.DoubleValue
1.826

@<SCITEGIC>MOL_PROPERTY
U
SciTegic.value.DoubleValue
54.581

@<SCITEGIC>MOL_PROPERTY
W
SciTegic.value.DoubleValue
-52.756

@<SCITEGIC>MOL_PROPERTY
W(PB)
SciTegic.value.DoubleValue
-55.207

@<SCITEGIC>MOL_PROPERTY
W(SA)
SciTegic.value.DoubleValue
2.452

@<SCITEGIC>MOL_PROPERTY
Valence
SciTegic.value.DoubleValue
7.466

@<SCITEGIC>MOL_PROPERTY
Coulomb
SciTegic.value.DoubleValue
46.879

@<SCITEGIC>MOL_PROPERTY
VdW
SciTegic.value.DoubleValue
0.236

@<SCITEGIC>MOL_PROPERTY
VdW6
SciTegic.value.DoubleValue
-10.465

@<SCITEGIC>MOL_PROPERTY
VdW12
SciTegic.value.DoubleValue
10.701

@<SCITEGIC>MOL_PROPERTY
Bond
SciTegic.value.DoubleValue
0.266

@<SCITEGIC>MOL_PROPERTY
Angle
SciTegic.value.DoubleValue
1.749

@<SCITEGIC>MOL_PROPERTY
Pdih
SciTegic.value.DoubleValue
5.451

@<SCITEGIC>MOL_PROPERTY
Idih
SciTegic.value.DoubleValue
0.000

@<SCITEGIC>MOL_PROPERTY
Tether
SciTegic.value.DoubleValue
0.000

@<TRIPOS>MOLECULE
guest-3_vm2.mol2 : vm2 ligand conformer 431
          29          28           1
SMALL
USER_CHARGES
 
@<TRIPOS>ATOM
       1    C1      20.967699   17.894501   22.196905 C.3        1 MOL1        -0.2427
       2    H1      21.031990   18.331811   23.199921 H          1 MOL1         0.0958
       3    H2      21.187042   16.822768   22.286223 H          1 MOL1         0.0958
       4    H3      21.752465   18.347190   21.577162 H          1 MOL1         0.0958
       5    C2      19.573035   18.111590   21.566556 C.3        1 MOL1        -0.1412
       6    H4      18.797755   17.636073   22.179935 H          1 MOL1         0.0947
       7    H5      19.542705   17.592052   20.598714 H          1 MOL1         0.0947
       8    C3      19.229594   19.602849   21.331636 C.3        1 MOL1        -0.1437
       9    H6      19.958248   20.019272   20.622585 H          1 MOL1         0.0947
      10    H7      18.255948   19.665512   20.826582 H          1 MOL1         0.0947
      11    C4      19.200874   20.508088   22.593088 C.3        1 MOL1        -0.1437
      12    H8      19.023267   21.534835   22.244761 H          1 MOL1         0.0947
      13    H9      20.188485   20.537337   23.067032 H          1 MOL1         0.0947
      14    C5      18.087216   20.166373   23.621747 C.3        1 MOL1        -0.1437
      15    H10     17.749599   21.099599   24.093244 H          1 MOL1         0.0947
      16    H11     17.209706   19.774176   23.089787 H          1 MOL1         0.0947
      17    C6      18.489873   19.179159   24.748605 C.3        1 MOL1        -0.1437
      18    H12     18.854723   18.240253   24.320605 H          1 MOL1         0.0947
      19    H13     17.585288   18.920399   25.316146 H          1 MOL1         0.0947
      20    C7      19.538262   19.757772   25.732094 C.3        1 MOL1        -0.1477
      21    H14     20.483769   19.964775   25.216687 H          1 MOL1         0.0947
      22    H15     19.177759   20.718177   26.123631 H          1 MOL1         0.0947
      23    C8      19.811538   18.817841   26.921707 C.3        1 MOL1         0.0145
      24    H16     18.874722   18.600004   27.441582 H          1 MOL1         0.0921
      25    H17     20.486476   19.310795   27.626656 H          1 MOL1         0.0921
      26    N1      20.445909   17.499827   26.522661 N.4        1 MOL1        -0.5969
      27    H18     21.347235   17.638074   26.054250 H          1 MOL1         0.3603
      28    H19     19.846919   16.970063   25.881833 H          1 MOL1         0.3603
      29    H20     20.619797   16.900437   27.336989 H          1 MOL1         0.3603
@<TRIPOS>BOND
    1     1     2    1
    2     1     3    1
    3     1     4    1
    4     1     5    1
    5     5     6    1
    6     5     7    1
    7     5     8    1
    8     8     9    1
    9     8    10    1
   10     8    11    1
   11    11    12    1
   12    11    13    1
   13    11    14    1
   14    14    15    1
   15    14    16    1
   16    14    17    1
   17    17    18    1
   18    17    19    1
   19    17    20    1
   20    20    21    1
   21    20    22    1
   22    20    23    1
   23    23    24    1
   24    23    25    1
   25    23    26    1
   26    26    27    1
   27    26    28    1
   28    26    29    1
@<TRIPOS>SUBSTRUCTURE
       1 MOL1            1 RESIDUE      1      MOL     
@<SCITEGIC>MOL_PROPERTY
VM2 Rank
SciTegic.value.IntegerValue
431

@<SCITEGIC>MOL_PROPERTY
Conf_Id
SciTegic.value.IntegerValue
1692

@<SCITEGIC>MOL_PROPERTY
Probability
SciTegic.value.DoubleValue
0.00

@<SCITEGIC>MOL_PROPERTY
Sum Probability
SciTegic.value.DoubleValue
100.00

@<SCITEGIC>MOL_PROPERTY
Delta G
SciTegic.value.DoubleValue
5.970

@<SCITEGIC>MOL_PROPERTY
G
SciTegic.value.DoubleValue
64.116

@<SCITEGIC>MOL_PROPERTY
E
SciTegic.value.DoubleValue
25.681

@<SCITEGIC>MOL_PROPERTY
-TS
SciTegic.value.DoubleValue
38.435

@<SCITEGIC>MOL_PROPERTY
U+W
SciTegic.value.DoubleValue
1.537

@<SCITEGIC>MOL_PROPERTY
U
SciTegic.value.DoubleValue
54.197

@<SCITEGIC>MOL_PROPERTY
W
SciTegic.value.DoubleValue
-52.660

@<SCITEGIC>MOL_PROPERTY
W(PB)
SciTegic.value.DoubleValue
-54.997

@<SCITEGIC>MOL_PROPERTY
W(SA)
SciTegic.value.DoubleValue
2.337

@<SCITEGIC>MOL_PROPERTY
Valence
SciTegic.value.DoubleValue
6.971

@<SCITEGIC>MOL_PROPERTY
Coulomb
SciTegic.value.DoubleValue
46.740

@<SCITEGIC>MOL_PROPERTY
VdW
SciTegic.value.DoubleValue
0.487

@<SCITEGIC>MOL_PROPERTY
VdW6
SciTegic.value.DoubleValue
-11.331

@<SCITEGIC>MOL_PROPERTY
VdW12
SciTegic.value.DoubleValue
11.818

@<SCITEGIC>MOL_PROPERTY
Bond
SciTegic.value.DoubleValue
0.365

@<SCITEGIC>MOL_PROPERTY
Angle
SciTegic.value.DoubleValue
2.348

@<SCITEGIC>MOL_PROPERTY
Pdih
SciTegic.value.DoubleValue
4.257

@<SCITEGIC>MOL_PROPERTY
Idih
SciTegic.value.DoubleValue
0.000

@<SCITEGIC>MOL_PROPERTY
Tether
SciTegic.value.DoubleValue
0.000

@<TRIPOS>MOLECULE
guest-3_vm2.mol2 : vm2 ligand conformer 432
          29          28           1
SMALL
USER_CHARGES
 
@<TRIPOS>ATOM
       1    C1      20.598080   20.236494   20.423223 C.3        1 MOL1        -0.2427
       2    H1      21.632092   19.874822   20.495708 H          1 MOL1         0.0958
       3    H2      20.177265   19.881579   19.473399 H          1 MOL1         0.0958
       4    H3      20.625981   21.333368   20.390061 H          1 MOL1         0.0958
       5    C2      19.755316   19.749008   21.620729 C.3        1 MOL1        -0.1412
       6    H4      18.734613   20.146849   21.534734 H          1 MOL1         0.0947
       7    H5      20.186870   20.156268   22.544288 H          1 MOL1         0.0947
       8    C3      19.712133   18.205945   21.696849 C.3        1 MOL1        -0.1437
       9    H6      19.412658   17.808977   20.717046 H          1 MOL1         0.0947
      10    H7      20.724320   17.822105   21.884725 H          1 MOL1         0.0947
      11    C4      18.739823   17.642120   22.765166 C.3        1 MOL1        -0.1437
      12    H8      18.771625   16.546159   22.692774 H          1 MOL1         0.0947
      13    H9      17.706553   17.922923   22.519418 H          1 MOL1         0.0947
      14    C5      19.075898   18.038000   24.226994 C.3        1 MOL1        -0.1437
      15    H10     18.826503   17.190435   24.880286 H          1 MOL1         0.0947
      16    H11     20.156890   18.196811   24.318500 H          1 MOL1         0.0947
      17    C6      18.292187   19.280070   24.723894 C.3        1 MOL1        -0.1437
      18    H12     17.222661   19.124484   24.526494 H          1 MOL1         0.0947
      19    H13     18.578295   20.169785   24.150804 H          1 MOL1         0.0947
      20    C7      18.458920   19.577157   26.235942 C.3        1 MOL1        -0.1477
      21    H14     17.785416   20.405956   26.491560 H          1 MOL1         0.0947
      22    H15     18.122591   18.720290   26.834708 H          1 MOL1         0.0947
      23    C8      19.886197   19.987858   26.653163 C.3        1 MOL1         0.0145
      24    H16     19.835157   20.549203   27.590051 H          1 MOL1         0.0921
      25    H17     20.323285   20.638652   25.891136 H          1 MOL1         0.0921
      26    N1      20.825448   18.821348   26.889040 N.4        1 MOL1        -0.5969
      27    H18     20.933766   18.245227   26.049668 H          1 MOL1         0.3603
      28    H19     20.485990   18.207072   27.636536 H          1 MOL1         0.3603
      29    H20     21.762192   19.137090   27.163672 H          1 MOL1         0.3603
@<TRIPOS>BOND
    1     1     2    1
    2     1     3    1
    3     1     4    1
    4     1     5    1
    5     5     6    1
    6     5     7    1
    7     5     8    1
    8     8     9    1
    9     8    10    1
   10     8    11    1
   11    11    12    1
   12    11    13    1
   13    11    14    1
   14    14    15    1
   15    14    16    1
   16    14    17    1
   17    17    18    1
   18    17    19    1
   19    17    20    1
   20    20    21    1
   21    20    22    1
   22    20    23    1
   23    23    24    1
   24    23    25    1
   25    23    26    1
   26    26    27    1
   27    26    28    1
   28    26    29    1
@<TRIPOS>SUBSTRUCTURE
       1 MOL1            1 RESIDUE      1      MOL     
@<SCITEGIC>MOL_PROPERTY
VM2 Rank
SciTegic.value.IntegerValue
432

@<SCITEGIC>MOL_PROPERTY
Conf_Id
SciTegic.value.IntegerValue
2927

@<SCITEGIC>MOL_PROPERTY
Probability
SciTegic.value.DoubleValue
0.00

@<SCITEGIC>MOL_PROPERTY
Sum Probability
SciTegic.value.DoubleValue
100.00

@<SCITEGIC>MOL_PROPERTY
Delta G
SciTegic.value.DoubleValue
6.042

@<SCITEGIC>MOL_PROPERTY
G
SciTegic.value.DoubleValue
64.188

@<SCITEGIC>MOL_PROPERTY
E
SciTegic.value.DoubleValue
26.608

@<SCITEGIC>MOL_PROPERTY
-TS
SciTegic.value.DoubleValue
37.580

@<SCITEGIC>MOL_PROPERTY
U+W
SciTegic.value.DoubleValue
2.464

@<SCITEGIC>MOL_PROPERTY
U
SciTegic.value.DoubleValue
54.876

@<SCITEGIC>MOL_PROPERTY
W
SciTegic.value.DoubleValue
-52.413

@<SCITEGIC>MOL_PROPERTY
W(PB)
SciTegic.value.DoubleValue
-54.852

@<SCITEGIC>MOL_PROPERTY
W(SA)
SciTegic.value.DoubleValue
2.439

@<SCITEGIC>MOL_PROPERTY
Valence
SciTegic.value.DoubleValue
7.200

@<SCITEGIC>MOL_PROPERTY
Coulomb
SciTegic.value.DoubleValue
46.941

@<SCITEGIC>MOL_PROPERTY
VdW
SciTegic.value.DoubleValue
0.735

@<SCITEGIC>MOL_PROPERTY
VdW6
SciTegic.value.DoubleValue
-10.145

@<SCITEGIC>MOL_PROPERTY
VdW12
SciTegic.value.DoubleValue
10.880

@<SCITEGIC>MOL_PROPERTY
Bond
SciTegic.value.DoubleValue
0.299

@<SCITEGIC>MOL_PROPERTY
Angle
SciTegic.value.DoubleValue
1.749

@<SCITEGIC>MOL_PROPERTY
Pdih
SciTegic.value.DoubleValue
5.152

@<SCITEGIC>MOL_PROPERTY
Idih
SciTegic.value.DoubleValue
0.000

@<SCITEGIC>MOL_PROPERTY
Tether
SciTegic.value.DoubleValue
0.000

@<TRIPOS>MOLECULE
guest-3_vm2.mol2 : vm2 ligand conformer 433
          29          28           1
SMALL
USER_CHARGES
 
@<TRIPOS>ATOM
       1    C1      20.778966   18.287837   21.057036 C.3        1 MOL1        -0.2427
       2    H1      21.107144   19.284318   20.734238 H          1 MOL1         0.0958
       3    H2      21.124944   18.119905   22.084158 H          1 MOL1         0.0958
       4    H3      21.277294   17.546444   20.419190 H          1 MOL1         0.0958
       5    C2      19.245138   18.144691   20.952690 C.3        1 MOL1        -0.1412
       6    H4      18.941670   17.170595   21.360993 H          1 MOL1         0.0947
       7    H5      18.964755   18.129638   19.890207 H          1 MOL1         0.0947
       8    C3      18.447697   19.273995   21.653781 C.3        1 MOL1        -0.1437
       9    H6      18.662046   20.239411   21.175433 H          1 MOL1         0.0947
      10    H7      17.380741   19.085299   21.471235 H          1 MOL1         0.0947
      11    C4      18.663877   19.369512   23.187016 C.3        1 MOL1        -0.1437
      12    H8      18.894057   18.372626   23.582955 H          1 MOL1         0.0947
      13    H9      17.718071   19.680691   23.651410 H          1 MOL1         0.0947
      14    C5      19.761498   20.385263   23.593923 C.3        1 MOL1        -0.1437
      15    H10     20.741069   20.053577   23.230521 H          1 MOL1         0.0947
      16    H11     19.562447   21.342512   23.092942 H          1 MOL1         0.0947
      17    C6      19.852628   20.654206   25.118292 C.3        1 MOL1        -0.1437
      18    H12     18.914044   21.095276   25.481702 H          1 MOL1         0.0947
      19    H13     20.621837   21.423479   25.273104 H          1 MOL1         0.0947
      20    C7      20.226886   19.419234   25.975889 C.3        1 MOL1        -0.1477
      21    H14     20.934601   18.780943   25.430321 H          1 MOL1         0.0947
      22    H15     20.751484   19.764982   26.876578 H          1 MOL1         0.0947
      23    C8      19.000016   18.600530   26.422397 C.3        1 MOL1         0.0145
      24    H16     18.450267   18.235595   25.553003 H          1 MOL1         0.0921
      25    H17     18.329737   19.235882   27.007539 H          1 MOL1         0.0921
      26    N1      19.367294   17.402733   27.273977 N.4        1 MOL1        -0.5969
      27    H18     19.860571   17.679684   28.129208 H          1 MOL1         0.3603
      28    H19     19.977486   16.749658   26.771487 H          1 MOL1         0.3603
      29    H20     18.537960   16.873748   27.565491 H          1 MOL1         0.3603
@<TRIPOS>BOND
    1     1     2    1
    2     1     3    1
    3     1     4    1
    4     1     5    1
    5     5     6    1
    6     5     7    1
    7     5     8    1
    8     8     9    1
    9     8    10    1
   10     8    11    1
   11    11    12    1
   12    11    13    1
   13    11    14    1
   14    14    15    1
   15    14    16    1
   16    14    17    1
   17    17    18    1
   18    17    19    1
   19    17    20    1
   20    20    21    1
   21    20    22    1
   22    20    23    1
   23    23    24    1
   24    23    25    1
   25    23    26    1
   26    26    27    1
   27    26    28    1
   28    26    29    1
@<TRIPOS>SUBSTRUCTURE
       1 MOL1            1 RESIDUE      1      MOL     
@<SCITEGIC>MOL_PROPERTY
VM2 Rank
SciTegic.value.IntegerValue
433

@<SCITEGIC>MOL_PROPERTY
Conf_Id
SciTegic.value.IntegerValue
1210

@<SCITEGIC>MOL_PROPERTY
Probability
SciTegic.value.DoubleValue
0.00

@<SCITEGIC>MOL_PROPERTY
Sum Probability
SciTegic.value.DoubleValue
100.00

@<SCITEGIC>MOL_PROPERTY
Delta G
SciTegic.value.DoubleValue
6.048

@<SCITEGIC>MOL_PROPERTY
G
SciTegic.value.DoubleValue
64.194

@<SCITEGIC>MOL_PROPERTY
E
SciTegic.value.DoubleValue
26.414

@<SCITEGIC>MOL_PROPERTY
-TS
SciTegic.value.DoubleValue
37.780

@<SCITEGIC>MOL_PROPERTY
U+W
SciTegic.value.DoubleValue
2.270

@<SCITEGIC>MOL_PROPERTY
U
SciTegic.value.DoubleValue
54.783

@<SCITEGIC>MOL_PROPERTY
W
SciTegic.value.DoubleValue
-52.513

@<SCITEGIC>MOL_PROPERTY
W(PB)
SciTegic.value.DoubleValue
-54.938

@<SCITEGIC>MOL_PROPERTY
W(SA)
SciTegic.value.DoubleValue
2.424

@<SCITEGIC>MOL_PROPERTY
Valence
SciTegic.value.DoubleValue
7.954

@<SCITEGIC>MOL_PROPERTY
Coulomb
SciTegic.value.DoubleValue
46.046

@<SCITEGIC>MOL_PROPERTY
VdW
SciTegic.value.DoubleValue
0.783

@<SCITEGIC>MOL_PROPERTY
VdW6
SciTegic.value.DoubleValue
-10.256

@<SCITEGIC>MOL_PROPERTY
VdW12
SciTegic.value.DoubleValue
11.040

@<SCITEGIC>MOL_PROPERTY
Bond
SciTegic.value.DoubleValue
0.306

@<SCITEGIC>MOL_PROPERTY
Angle
SciTegic.value.DoubleValue
1.906

@<SCITEGIC>MOL_PROPERTY
Pdih
SciTegic.value.DoubleValue
5.742

@<SCITEGIC>MOL_PROPERTY
Idih
SciTegic.value.DoubleValue
0.000

@<SCITEGIC>MOL_PROPERTY
Tether
SciTegic.value.DoubleValue
0.000

@<TRIPOS>MOLECULE
guest-3_vm2.mol2 : vm2 ligand conformer 434
          29          28           1
SMALL
USER_CHARGES
 
@<TRIPOS>ATOM
       1    C1      19.499631   17.805615   20.104989 C.3        1 MOL1        -0.2427
       2    H1      20.200427   18.199905   19.357560 H          1 MOL1         0.0958
       3    H2      19.972524   16.945791   20.597218 H          1 MOL1         0.0958
       4    H3      18.609845   17.442838   19.574236 H          1 MOL1         0.0958
       5    C2      19.116187   18.890685   21.133233 C.3        1 MOL1        -0.1412
       6    H4      18.383606   18.475150   21.835068 H          1 MOL1         0.0947
       7    H5      18.616468   19.720455   20.614171 H          1 MOL1         0.0947
       8    C3      20.357706   19.424019   21.887962 C.3        1 MOL1        -0.1437
       9    H6      20.894117   18.597763   22.374382 H          1 MOL1         0.0947
      10    H7      21.052964   19.841411   21.146479 H          1 MOL1         0.0947
      11    C4      20.028063   20.529892   22.924578 C.3        1 MOL1        -0.1437
      12    H8      19.152900   21.109466   22.600076 H          1 MOL1         0.0947
      13    H9      20.864559   21.242248   22.939290 H          1 MOL1         0.0947
      14    C5      19.826019   20.020942   24.375127 C.3        1 MOL1        -0.1437
      15    H10     20.744839   19.517506   24.700727 H          1 MOL1         0.0947
      16    H11     19.693267   20.893405   25.029625 H          1 MOL1         0.0947
      17    C6      18.618499   19.069141   24.550792 C.3        1 MOL1        -0.1437
      18    H12     18.833110   18.107801   24.065577 H          1 MOL1         0.0947
      19    H13     17.749972   19.496988   24.031599 H          1 MOL1         0.0947
      20    C7      18.218976   18.809830   26.025803 C.3        1 MOL1        -0.1477
      21    H14     17.955281   19.752887   26.522750 H          1 MOL1         0.0947
      22    H15     17.303447   18.203508   26.024842 H          1 MOL1         0.0947
      23    C8      19.280655   18.055004   26.852313 C.3        1 MOL1         0.0145
      24    H16     19.721151   17.256299   26.249569 H          1 MOL1         0.0921
      25    H17     18.797476   17.598036   27.720175 H          1 MOL1         0.0921
      26    N1      20.398265   18.932871   27.380204 N.4        1 MOL1        -0.5969
      27    H18     20.041748   19.669583   27.997814 H          1 MOL1         0.3603
      28    H19     20.908290   19.393966   26.621493 H          1 MOL1         0.3603
      29    H20     21.082182   18.393069   27.921952 H          1 MOL1         0.3603
@<TRIPOS>BOND
    1     1     2    1
    2     1     3    1
    3     1     4    1
    4     1     5    1
    5     5     6    1
    6     5     7    1
    7     5     8    1
    8     8     9    1
    9     8    10    1
   10     8    11    1
   11    11    12    1
   12    11    13    1
   13    11    14    1
   14    14    15    1
   15    14    16    1
   16    14    17    1
   17    17    18    1
   18    17    19    1
   19    17    20    1
   20    20    21    1
   21    20    22    1
   22    20    23    1
   23    23    24    1
   24    23    25    1
   25    23    26    1
   26    26    27    1
   27    26    28    1
   28    26    29    1
@<TRIPOS>SUBSTRUCTURE
       1 MOL1            1 RESIDUE      1      MOL     
@<SCITEGIC>MOL_PROPERTY
VM2 Rank
SciTegic.value.IntegerValue
434

@<SCITEGIC>MOL_PROPERTY
Conf_Id
SciTegic.value.IntegerValue
2944

@<SCITEGIC>MOL_PROPERTY
Probability
SciTegic.value.DoubleValue
0.00

@<SCITEGIC>MOL_PROPERTY
Sum Probability
SciTegic.value.DoubleValue
100.00

@<SCITEGIC>MOL_PROPERTY
Delta G
SciTegic.value.DoubleValue
6.055

@<SCITEGIC>MOL_PROPERTY
G
SciTegic.value.DoubleValue
64.201

@<SCITEGIC>MOL_PROPERTY
E
SciTegic.value.DoubleValue
26.463

@<SCITEGIC>MOL_PROPERTY
-TS
SciTegic.value.DoubleValue
37.739

@<SCITEGIC>MOL_PROPERTY
U+W
SciTegic.value.DoubleValue
2.318

@<SCITEGIC>MOL_PROPERTY
U
SciTegic.value.DoubleValue
54.428

@<SCITEGIC>MOL_PROPERTY
W
SciTegic.value.DoubleValue
-52.111

@<SCITEGIC>MOL_PROPERTY
W(PB)
SciTegic.value.DoubleValue
-54.561

@<SCITEGIC>MOL_PROPERTY
W(SA)
SciTegic.value.DoubleValue
2.450

@<SCITEGIC>MOL_PROPERTY
Valence
SciTegic.value.DoubleValue
7.095

@<SCITEGIC>MOL_PROPERTY
Coulomb
SciTegic.value.DoubleValue
46.605

@<SCITEGIC>MOL_PROPERTY
VdW
SciTegic.value.DoubleValue
0.729

@<SCITEGIC>MOL_PROPERTY
VdW6
SciTegic.value.DoubleValue
-10.130

@<SCITEGIC>MOL_PROPERTY
VdW12
SciTegic.value.DoubleValue
10.859

@<SCITEGIC>MOL_PROPERTY
Bond
SciTegic.value.DoubleValue
0.288

@<SCITEGIC>MOL_PROPERTY
Angle
SciTegic.value.DoubleValue
1.696

@<SCITEGIC>MOL_PROPERTY
Pdih
SciTegic.value.DoubleValue
5.111

@<SCITEGIC>MOL_PROPERTY
Idih
SciTegic.value.DoubleValue
0.000

@<SCITEGIC>MOL_PROPERTY
Tether
SciTegic.value.DoubleValue
0.000

@<TRIPOS>MOLECULE
guest-3_vm2.mol2 : vm2 ligand conformer 435
          29          28           1
SMALL
USER_CHARGES
 
@<TRIPOS>ATOM
       1    C1      20.473721   18.928223   20.293326 C.3        1 MOL1        -0.2427
       2    H1      21.125403   18.258848   19.717019 H          1 MOL1         0.0958
       3    H2      20.043131   19.656621   19.594023 H          1 MOL1         0.0958
       4    H3      21.105323   19.473258   21.002973 H          1 MOL1         0.0958
       5    C2      19.362449   18.120101   21.002871 C.3        1 MOL1        -0.1412
       6    H4      19.804878   17.361201   21.663061 H          1 MOL1         0.0947
       7    H5      18.806510   17.565064   20.234292 H          1 MOL1         0.0947
       8    C3      18.360982   19.002620   21.791874 C.3        1 MOL1        -0.1437
       9    H6      18.245342   19.978972   21.301532 H          1 MOL1         0.0947
      10    H7      17.372422   18.526009   21.737704 H          1 MOL1         0.0947
      11    C4      18.702042   19.193805   23.292261 C.3        1 MOL1        -0.1437
      12    H8      18.733860   18.208517   23.774789 H          1 MOL1         0.0947
      13    H9      17.879876   19.749518   23.763591 H          1 MOL1         0.0947
      14    C5      20.030910   19.941907   23.551750 C.3        1 MOL1        -0.1437
      15    H10     20.874877   19.294683   23.279751 H          1 MOL1         0.0947
      16    H11     20.081772   20.817698   22.890407 H          1 MOL1         0.0947
      17    C6      20.219867   20.427620   25.012197 C.3        1 MOL1        -0.1437
      18    H12     19.429239   21.142740   25.278701 H          1 MOL1         0.0947
      19    H13     21.159958   20.995040   25.052965 H          1 MOL1         0.0947
      20    C7      20.294000   19.298564   26.070852 C.3        1 MOL1        -0.1477
      21    H14     20.847550   18.439833   25.668348 H          1 MOL1         0.0947
      22    H15     20.871088   19.664386   26.930578 H          1 MOL1         0.0947
      23    C8      18.909755   18.851945   26.579680 C.3        1 MOL1         0.0145
      24    H16     18.309893   18.463443   25.754824 H          1 MOL1         0.0921
      25    H17     18.384381   19.708394   27.010730 H          1 MOL1         0.0921
      26    N1      18.990273   17.773215   27.640189 N.4        1 MOL1        -0.5969
      27    H18     19.516265   18.085749   28.463052 H          1 MOL1         0.3603
      28    H19     19.452086   16.927319   27.290094 H          1 MOL1         0.3603
      29    H20     18.060079   17.492096   27.969310 H          1 MOL1         0.3603
@<TRIPOS>BOND
    1     1     2    1
    2     1     3    1
    3     1     4    1
    4     1     5    1
    5     5     6    1
    6     5     7    1
    7     5     8    1
    8     8     9    1
    9     8    10    1
   10     8    11    1
   11    11    12    1
   12    11    13    1
   13    11    14    1
   14    14    15    1
   15    14    16    1
   16    14    17    1
   17    17    18    1
   18    17    19    1
   19    17    20    1
   20    20    21    1
   21    20    22    1
   22    20    23    1
   23    23    24    1
   24    23    25    1
   25    23    26    1
   26    26    27    1
   27    26    28    1
   28    26    29    1
@<TRIPOS>SUBSTRUCTURE
       1 MOL1            1 RESIDUE      1      MOL     
@<SCITEGIC>MOL_PROPERTY
VM2 Rank
SciTegic.value.IntegerValue
435

@<SCITEGIC>MOL_PROPERTY
Conf_Id
SciTegic.value.IntegerValue
309

@<SCITEGIC>MOL_PROPERTY
Probability
SciTegic.value.DoubleValue
0.00

@<SCITEGIC>MOL_PROPERTY
Sum Probability
SciTegic.value.DoubleValue
100.00

@<SCITEGIC>MOL_PROPERTY
Delta G
SciTegic.value.DoubleValue
6.066

@<SCITEGIC>MOL_PROPERTY
G
SciTegic.value.DoubleValue
64.212

@<SCITEGIC>MOL_PROPERTY
E
SciTegic.value.DoubleValue
26.364

@<SCITEGIC>MOL_PROPERTY
-TS
SciTegic.value.DoubleValue
37.849

@<SCITEGIC>MOL_PROPERTY
U+W
SciTegic.value.DoubleValue
2.219

@<SCITEGIC>MOL_PROPERTY
U
SciTegic.value.DoubleValue
54.483

@<SCITEGIC>MOL_PROPERTY
W
SciTegic.value.DoubleValue
-52.264

@<SCITEGIC>MOL_PROPERTY
W(PB)
SciTegic.value.DoubleValue
-54.710

@<SCITEGIC>MOL_PROPERTY
W(SA)
SciTegic.value.DoubleValue
2.446

@<SCITEGIC>MOL_PROPERTY
Valence
SciTegic.value.DoubleValue
7.846

@<SCITEGIC>MOL_PROPERTY
Coulomb
SciTegic.value.DoubleValue
45.850

@<SCITEGIC>MOL_PROPERTY
VdW
SciTegic.value.DoubleValue
0.787

@<SCITEGIC>MOL_PROPERTY
VdW6
SciTegic.value.DoubleValue
-10.198

@<SCITEGIC>MOL_PROPERTY
VdW12
SciTegic.value.DoubleValue
10.985

@<SCITEGIC>MOL_PROPERTY
Bond
SciTegic.value.DoubleValue
0.296

@<SCITEGIC>MOL_PROPERTY
Angle
SciTegic.value.DoubleValue
1.942

@<SCITEGIC>MOL_PROPERTY
Pdih
SciTegic.value.DoubleValue
5.608

@<SCITEGIC>MOL_PROPERTY
Idih
SciTegic.value.DoubleValue
0.000

@<SCITEGIC>MOL_PROPERTY
Tether
SciTegic.value.DoubleValue
0.000

@<TRIPOS>MOLECULE
guest-3_vm2.mol2 : vm2 ligand conformer 436
          29          28           1
SMALL
USER_CHARGES
 
@<TRIPOS>ATOM
       1    C1      20.777298   18.560510   20.312564 C.3        1 MOL1        -0.2427
       2    H1      21.498965   17.917619   20.833210 H          1 MOL1         0.0958
       3    H2      20.420356   18.018472   19.427239 H          1 MOL1         0.0958
       4    H3      21.305900   19.458538   19.967118 H          1 MOL1         0.0958
       5    C2      19.597835   18.931296   21.236266 C.3        1 MOL1        -0.1412
       6    H4      19.072181   18.012317   21.528091 H          1 MOL1         0.0947
       7    H5      18.878690   19.548495   20.679927 H          1 MOL1         0.0947
       8    C3      20.076736   19.692672   22.494310 C.3        1 MOL1        -0.1437
       9    H6      20.760001   19.056237   23.068872 H          1 MOL1         0.0947
      10    H7      20.670882   20.561246   22.178160 H          1 MOL1         0.0947
      11    C4      18.918946   20.199739   23.394282 C.3        1 MOL1        -0.1437
      12    H8      18.330615   20.928503   22.819901 H          1 MOL1         0.0947
      13    H9      19.340306   20.768869   24.230022 H          1 MOL1         0.0947
      14    C5      17.947981   19.107954   23.924267 C.3        1 MOL1        -0.1437
      15    H10     17.145113   19.589405   24.499119 H          1 MOL1         0.0947
      16    H11     17.443648   18.647004   23.064913 H          1 MOL1         0.0947
      17    C6      18.584050   17.980191   24.782783 C.3        1 MOL1        -0.1437
      18    H12     19.547992   17.661961   24.369012 H          1 MOL1         0.0947
      19    H13     17.935354   17.097322   24.699536 H          1 MOL1         0.0947
      20    C7      18.716302   18.302914   26.295293 C.3        1 MOL1        -0.1477
      21    H14     17.720889   18.516190   26.706815 H          1 MOL1         0.0947
      22    H15     19.072459   17.405815   26.818873 H          1 MOL1         0.0947
      23    C8      19.651675   19.476721   26.641751 C.3        1 MOL1         0.0145
      24    H16     19.687870   19.600719   27.727446 H          1 MOL1         0.0921
      25    H17     19.260775   20.401443   26.212231 H          1 MOL1         0.0921
      26    N1      21.073177   19.286004   26.153484 N.4        1 MOL1        -0.5969
      27    H18     21.501051   18.444333   26.553373 H          1 MOL1         0.3603
      28    H19     21.672895   20.078650   26.407737 H          1 MOL1         0.3603
      29    H20     21.105537   19.191886   25.134139 H          1 MOL1         0.3603
@<TRIPOS>BOND
    1     1     2    1
    2     1     3    1
    3     1     4    1
    4     1     5    1
    5     5     6    1
    6     5     7    1
    7     5     8    1
    8     8     9    1
    9     8    10    1
   10     8    11    1
   11    11    12    1
   12    11    13    1
   13    11    14    1
   14    14    15    1
   15    14    16    1
   16    14    17    1
   17    17    18    1
   18    17    19    1
   19    17    20    1
   20    20    21    1
   21    20    22    1
   22    20    23    1
   23    23    24    1
   24    23    25    1
   25    23    26    1
   26    26    27    1
   27    26    28    1
   28    26    29    1
@<TRIPOS>SUBSTRUCTURE
       1 MOL1            1 RESIDUE      1      MOL     
@<SCITEGIC>MOL_PROPERTY
VM2 Rank
SciTegic.value.IntegerValue
436

@<SCITEGIC>MOL_PROPERTY
Conf_Id
SciTegic.value.IntegerValue
253

@<SCITEGIC>MOL_PROPERTY
Probability
SciTegic.value.DoubleValue
0.00

@<SCITEGIC>MOL_PROPERTY
Sum Probability
SciTegic.value.DoubleValue
100.00

@<SCITEGIC>MOL_PROPERTY
Delta G
SciTegic.value.DoubleValue
6.120

@<SCITEGIC>MOL_PROPERTY
G
SciTegic.value.DoubleValue
64.266

@<SCITEGIC>MOL_PROPERTY
E
SciTegic.value.DoubleValue
25.939

@<SCITEGIC>MOL_PROPERTY
-TS
SciTegic.value.DoubleValue
38.327

@<SCITEGIC>MOL_PROPERTY
U+W
SciTegic.value.DoubleValue
1.795

@<SCITEGIC>MOL_PROPERTY
U
SciTegic.value.DoubleValue
54.140

@<SCITEGIC>MOL_PROPERTY
W
SciTegic.value.DoubleValue
-52.345

@<SCITEGIC>MOL_PROPERTY
W(PB)
SciTegic.value.DoubleValue
-54.755

@<SCITEGIC>MOL_PROPERTY
W(SA)
SciTegic.value.DoubleValue
2.410

@<SCITEGIC>MOL_PROPERTY
Valence
SciTegic.value.DoubleValue
6.493

@<SCITEGIC>MOL_PROPERTY
Coulomb
SciTegic.value.DoubleValue
47.259

@<SCITEGIC>MOL_PROPERTY
VdW
SciTegic.value.DoubleValue
0.387

@<SCITEGIC>MOL_PROPERTY
VdW6
SciTegic.value.DoubleValue
-11.455

@<SCITEGIC>MOL_PROPERTY
VdW12
SciTegic.value.DoubleValue
11.842

@<SCITEGIC>MOL_PROPERTY
Bond
SciTegic.value.DoubleValue
0.371

@<SCITEGIC>MOL_PROPERTY
Angle
SciTegic.value.DoubleValue
2.520

@<SCITEGIC>MOL_PROPERTY
Pdih
SciTegic.value.DoubleValue
3.602

@<SCITEGIC>MOL_PROPERTY
Idih
SciTegic.value.DoubleValue
0.000

@<SCITEGIC>MOL_PROPERTY
Tether
SciTegic.value.DoubleValue
0.000

@<TRIPOS>MOLECULE
guest-3_vm2.mol2 : vm2 ligand conformer 437
          29          28           1
SMALL
USER_CHARGES
 
@<TRIPOS>ATOM
       1    C1      21.016161   18.952036   21.073462 C.3        1 MOL1        -0.2427
       2    H1      21.374983   18.822990   22.101802 H          1 MOL1         0.0958
       3    H2      20.646250   17.985892   20.706576 H          1 MOL1         0.0958
       4    H3      21.880234   19.236714   20.459312 H          1 MOL1         0.0958
       5    C2      19.918941   20.035560   20.995387 C.3        1 MOL1        -0.1412
       6    H4      19.726827   20.266087   19.938192 H          1 MOL1         0.0947
       7    H5      20.292688   20.965460   21.446238 H          1 MOL1         0.0947
       8    C3      18.577232   19.636986   21.661515 C.3        1 MOL1        -0.1437
       9    H6      17.871906   20.464083   21.501057 H          1 MOL1         0.0947
      10    H7      18.140852   18.772897   21.142175 H          1 MOL1         0.0947
      11    C4      18.661958   19.365994   23.186649 C.3        1 MOL1        -0.1437
      12    H8      17.725595   19.704403   23.651137 H          1 MOL1         0.0947
      13    H9      19.464417   19.976611   23.618768 H          1 MOL1         0.0947
      14    C5      18.864861   17.870124   23.537778 C.3        1 MOL1        -0.1437
      15    H10     18.112667   17.274766   23.002350 H          1 MOL1         0.0947
      16    H11     19.838589   17.522100   23.173940 H          1 MOL1         0.0947
      17    C6      18.744204   17.544338   25.048948 C.3        1 MOL1        -0.1437
      18    H12     18.851648   16.456683   25.162498 H          1 MOL1         0.0947
      19    H13     17.733194   17.782051   25.407975 H          1 MOL1         0.0947
      20    C7      19.802960   18.229604   25.949031 C.3        1 MOL1        -0.1477
      21    H14     19.978486   17.594821   26.827794 H          1 MOL1         0.0947
      22    H15     20.762242   18.297839   25.418898 H          1 MOL1         0.0947
      23    C8      19.363753   19.621004   26.444977 C.3        1 MOL1         0.0145
      24    H16     18.434988   19.529768   27.014547 H          1 MOL1         0.0921
      25    H17     19.180088   20.285199   25.598598 H          1 MOL1         0.0921
      26    N1      20.393929   20.282354   27.337253 N.4        1 MOL1        -0.5969
      27    H18     21.286252   20.421938   26.851852 H          1 MOL1         0.3603
      28    H19     20.589569   19.722553   28.173789 H          1 MOL1         0.3603
      29    H20     20.081774   21.204437   27.661170 H          1 MOL1         0.3603
@<TRIPOS>BOND
    1     1     2    1
    2     1     3    1
    3     1     4    1
    4     1     5    1
    5     5     6    1
    6     5     7    1
    7     5     8    1
    8     8     9    1
    9     8    10    1
   10     8    11    1
   11    11    12    1
   12    11    13    1
   13    11    14    1
   14    14    15    1
   15    14    16    1
   16    14    17    1
   17    17    18    1
   18    17    19    1
   19    17    20    1
   20    20    21    1
   21    20    22    1
   22    20    23    1
   23    23    24    1
   24    23    25    1
   25    23    26    1
   26    26    27    1
   27    26    28    1
   28    26    29    1
@<TRIPOS>SUBSTRUCTURE
       1 MOL1            1 RESIDUE      1      MOL     
@<SCITEGIC>MOL_PROPERTY
VM2 Rank
SciTegic.value.IntegerValue
437

@<SCITEGIC>MOL_PROPERTY
Conf_Id
SciTegic.value.IntegerValue
2163

@<SCITEGIC>MOL_PROPERTY
Probability
SciTegic.value.DoubleValue
0.00

@<SCITEGIC>MOL_PROPERTY
Sum Probability
SciTegic.value.DoubleValue
100.00

@<SCITEGIC>MOL_PROPERTY
Delta G
SciTegic.value.DoubleValue
6.139

@<SCITEGIC>MOL_PROPERTY
G
SciTegic.value.DoubleValue
64.285

@<SCITEGIC>MOL_PROPERTY
E
SciTegic.value.DoubleValue
26.505

@<SCITEGIC>MOL_PROPERTY
-TS
SciTegic.value.DoubleValue
37.781

@<SCITEGIC>MOL_PROPERTY
U+W
SciTegic.value.DoubleValue
2.360

@<SCITEGIC>MOL_PROPERTY
U
SciTegic.value.DoubleValue
54.784

@<SCITEGIC>MOL_PROPERTY
W
SciTegic.value.DoubleValue
-52.424

@<SCITEGIC>MOL_PROPERTY
W(PB)
SciTegic.value.DoubleValue
-54.866

@<SCITEGIC>MOL_PROPERTY
W(SA)
SciTegic.value.DoubleValue
2.442

@<SCITEGIC>MOL_PROPERTY
Valence
SciTegic.value.DoubleValue
7.954

@<SCITEGIC>MOL_PROPERTY
Coulomb
SciTegic.value.DoubleValue
46.046

@<SCITEGIC>MOL_PROPERTY
VdW
SciTegic.value.DoubleValue
0.783

@<SCITEGIC>MOL_PROPERTY
VdW6
SciTegic.value.DoubleValue
-10.257

@<SCITEGIC>MOL_PROPERTY
VdW12
SciTegic.value.DoubleValue
11.040

@<SCITEGIC>MOL_PROPERTY
Bond
SciTegic.value.DoubleValue
0.306

@<SCITEGIC>MOL_PROPERTY
Angle
SciTegic.value.DoubleValue
1.904

@<SCITEGIC>MOL_PROPERTY
Pdih
SciTegic.value.DoubleValue
5.744

@<SCITEGIC>MOL_PROPERTY
Idih
SciTegic.value.DoubleValue
0.000

@<SCITEGIC>MOL_PROPERTY
Tether
SciTegic.value.DoubleValue
0.000

@<TRIPOS>MOLECULE
guest-3_vm2.mol2 : vm2 ligand conformer 438
          29          28           1
SMALL
USER_CHARGES
 
@<TRIPOS>ATOM
       1    C1      19.881269   17.379793   20.689826 C.3        1 MOL1        -0.2427
       2    H1      20.962060   17.206712   20.774455 H          1 MOL1         0.0958
       3    H2      19.377796   16.406456   20.754187 H          1 MOL1         0.0958
       4    H3      19.678725   17.798503   19.695403 H          1 MOL1         0.0958
       5    C2      19.382581   18.325626   21.802652 C.3        1 MOL1        -0.1412
       6    H4      19.568618   17.853937   22.776189 H          1 MOL1         0.0947
       7    H5      18.295892   18.458583   21.708154 H          1 MOL1         0.0947
       8    C3      20.085625   19.700739   21.739341 C.3        1 MOL1        -0.1437
       9    H6      21.162086   19.568488   21.915067 H          1 MOL1         0.0947
      10    H7      19.990343   20.102893   20.721266 H          1 MOL1         0.0947
      11    C4      19.527071   20.753726   22.731267 C.3        1 MOL1        -0.1437
      12    H8      18.477463   20.976029   22.494610 H          1 MOL1         0.0947
      13    H9      20.073527   21.691394   22.559362 H          1 MOL1         0.0947
      14    C5      19.675405   20.375880   24.227950 C.3        1 MOL1        -0.1437
      15    H10     20.556379   19.738575   24.356645 H          1 MOL1         0.0947
      16    H11     19.881284   21.292821   24.797338 H          1 MOL1         0.0947
      17    C6      18.402122   19.718867   24.822244 C.3        1 MOL1        -0.1437
      18    H12     18.110502   18.828542   24.252647 H          1 MOL1         0.0947
      19    H13     17.571571   20.429536   24.710548 H          1 MOL1         0.0947
      20    C7      18.523510   19.355248   26.324199 C.3        1 MOL1        -0.1477
      21    H14     19.042510   20.150955   26.874873 H          1 MOL1         0.0947
      22    H15     17.510171   19.309920   26.744921 H          1 MOL1         0.0947
      23    C8      19.190925   17.990375   26.596331 C.3        1 MOL1         0.0145
      24    H16     18.699051   17.215950   26.001702 H          1 MOL1         0.0921
      25    H17     19.062885   17.736982   27.652210 H          1 MOL1         0.0921
      26    N1      20.675493   17.937745   26.301189 N.4        1 MOL1        -0.5969
      27    H18     20.867715   18.109663   25.310105 H          1 MOL1         0.3603
      28    H19     21.076086   17.021869   26.532123 H          1 MOL1         0.3603
      29    H20     21.194706   18.637690   26.841292 H          1 MOL1         0.3603
@<TRIPOS>BOND
    1     1     2    1
    2     1     3    1
    3     1     4    1
    4     1     5    1
    5     5     6    1
    6     5     7    1
    7     5     8    1
    8     8     9    1
    9     8    10    1
   10     8    11    1
   11    11    12    1
   12    11    13    1
   13    11    14    1
   14    14    15    1
   15    14    16    1
   16    14    17    1
   17    17    18    1
   18    17    19    1
   19    17    20    1
   20    20    21    1
   21    20    22    1
   22    20    23    1
   23    23    24    1
   24    23    25    1
   25    23    26    1
   26    26    27    1
   27    26    28    1
   28    26    29    1
@<TRIPOS>SUBSTRUCTURE
       1 MOL1            1 RESIDUE      1      MOL     
@<SCITEGIC>MOL_PROPERTY
VM2 Rank
SciTegic.value.IntegerValue
438

@<SCITEGIC>MOL_PROPERTY
Conf_Id
SciTegic.value.IntegerValue
72

@<SCITEGIC>MOL_PROPERTY
Probability
SciTegic.value.DoubleValue
0.00

@<SCITEGIC>MOL_PROPERTY
Sum Probability
SciTegic.value.DoubleValue
100.00

@<SCITEGIC>MOL_PROPERTY
Delta G
SciTegic.value.DoubleValue
6.167

@<SCITEGIC>MOL_PROPERTY
G
SciTegic.value.DoubleValue
64.313

@<SCITEGIC>MOL_PROPERTY
E
SciTegic.value.DoubleValue
27.100

@<SCITEGIC>MOL_PROPERTY
-TS
SciTegic.value.DoubleValue
37.213

@<SCITEGIC>MOL_PROPERTY
U+W
SciTegic.value.DoubleValue
2.956

@<SCITEGIC>MOL_PROPERTY
U
SciTegic.value.DoubleValue
55.353

@<SCITEGIC>MOL_PROPERTY
W
SciTegic.value.DoubleValue
-52.397

@<SCITEGIC>MOL_PROPERTY
W(PB)
SciTegic.value.DoubleValue
-54.793

@<SCITEGIC>MOL_PROPERTY
W(SA)
SciTegic.value.DoubleValue
2.396

@<SCITEGIC>MOL_PROPERTY
Valence
SciTegic.value.DoubleValue
7.419

@<SCITEGIC>MOL_PROPERTY
Coulomb
SciTegic.value.DoubleValue
47.280

@<SCITEGIC>MOL_PROPERTY
VdW
SciTegic.value.DoubleValue
0.654

@<SCITEGIC>MOL_PROPERTY
VdW6
SciTegic.value.DoubleValue
-10.189

@<SCITEGIC>MOL_PROPERTY
VdW12
SciTegic.value.DoubleValue
10.843

@<SCITEGIC>MOL_PROPERTY
Bond
SciTegic.value.DoubleValue
0.301

@<SCITEGIC>MOL_PROPERTY
Angle
SciTegic.value.DoubleValue
1.787

@<SCITEGIC>MOL_PROPERTY
Pdih
SciTegic.value.DoubleValue
5.331

@<SCITEGIC>MOL_PROPERTY
Idih
SciTegic.value.DoubleValue
0.000

@<SCITEGIC>MOL_PROPERTY
Tether
SciTegic.value.DoubleValue
0.000

@<TRIPOS>MOLECULE
guest-3_vm2.mol2 : vm2 ligand conformer 439
          29          28           1
SMALL
USER_CHARGES
 
@<TRIPOS>ATOM
       1    C1      20.897323   20.236778   20.752636 C.3        1 MOL1        -0.2427
       2    H1      21.843504   19.685228   20.828551 H          1 MOL1         0.0958
       3    H2      20.489575   20.079538   19.745543 H          1 MOL1         0.0958
       4    H3      21.120481   21.305975   20.862317 H          1 MOL1         0.0958
       5    C2      19.898273   19.775089   21.834494 C.3        1 MOL1        -0.1412
       6    H4      18.972956   20.361780   21.750324 H          1 MOL1         0.0947
       7    H5      20.326919   19.984655   22.823043 H          1 MOL1         0.0947
       8    C3      19.576312   18.268645   21.707288 C.3        1 MOL1        -0.1437
       9    H6      19.262764   18.057364   20.675625 H          1 MOL1         0.0947
      10    H7      20.492109   17.684679   21.872930 H          1 MOL1         0.0947
      11    C4      18.464655   17.766512   22.664766 C.3        1 MOL1        -0.1437
      12    H8      18.299052   16.701989   22.448538 H          1 MOL1         0.0947
      13    H9      17.513657   18.266053   22.434199 H          1 MOL1         0.0947
      14    C5      18.797177   17.906799   24.172940 C.3        1 MOL1        -0.1437
      15    H10     18.369991   17.044247   24.702926 H          1 MOL1         0.0947
      16    H11     19.880822   17.839279   24.314305 H          1 MOL1         0.0947
      17    C6      18.216230   19.196164   24.810231 C.3        1 MOL1        -0.1437
      18    H12     17.125179   19.174617   24.681845 H          1 MOL1         0.0947
      19    H13     18.560505   20.092242   24.280441 H          1 MOL1         0.0947
      20    C7      18.518247   19.341989   26.323619 C.3        1 MOL1        -0.1477
      21    H14     17.755493   20.000894   26.759470 H          1 MOL1         0.0947
      22    H15     18.409637   18.376509   26.835285 H          1 MOL1         0.0947
      23    C8      19.893913   19.966074   26.640534 C.3        1 MOL1         0.0145
      24    H16     19.939182   20.202267   27.707138 H          1 MOL1         0.0921
      25    H17     20.011009   20.899353   26.083273 H          1 MOL1         0.0921
      26    N1      21.081869   19.079950   26.328493 N.4        1 MOL1        -0.5969
      27    H18     21.033788   18.189137   26.833821 H          1 MOL1         0.3603
      28    H19     21.967649   19.526688   26.590130 H          1 MOL1         0.3603
      29    H20     21.136915   18.863764   25.329003 H          1 MOL1         0.3603
@<TRIPOS>BOND
    1     1     2    1
    2     1     3    1
    3     1     4    1
    4     1     5    1
    5     5     6    1
    6     5     7    1
    7     5     8    1
    8     8     9    1
    9     8    10    1
   10     8    11    1
   11    11    12    1
   12    11    13    1
   13    11    14    1
   14    14    15    1
   15    14    16    1
   16    14    17    1
   17    17    18    1
   18    17    19    1
   19    17    20    1
   20    20    21    1
   21    20    22    1
   22    20    23    1
   23    23    24    1
   24    23    25    1
   25    23    26    1
   26    26    27    1
   27    26    28    1
   28    26    29    1
@<TRIPOS>SUBSTRUCTURE
       1 MOL1            1 RESIDUE      1      MOL     
@<SCITEGIC>MOL_PROPERTY
VM2 Rank
SciTegic.value.IntegerValue
439

@<SCITEGIC>MOL_PROPERTY
Conf_Id
SciTegic.value.IntegerValue
873

@<SCITEGIC>MOL_PROPERTY
Probability
SciTegic.value.DoubleValue
0.00

@<SCITEGIC>MOL_PROPERTY
Sum Probability
SciTegic.value.DoubleValue
100.00

@<SCITEGIC>MOL_PROPERTY
Delta G
SciTegic.value.DoubleValue
6.184

@<SCITEGIC>MOL_PROPERTY
G
SciTegic.value.DoubleValue
64.330

@<SCITEGIC>MOL_PROPERTY
E
SciTegic.value.DoubleValue
27.127

@<SCITEGIC>MOL_PROPERTY
-TS
SciTegic.value.DoubleValue
37.203

@<SCITEGIC>MOL_PROPERTY
U+W
SciTegic.value.DoubleValue
2.983

@<SCITEGIC>MOL_PROPERTY
U
SciTegic.value.DoubleValue
55.351

@<SCITEGIC>MOL_PROPERTY
W
SciTegic.value.DoubleValue
-52.369

@<SCITEGIC>MOL_PROPERTY
W(PB)
SciTegic.value.DoubleValue
-54.772

@<SCITEGIC>MOL_PROPERTY
W(SA)
SciTegic.value.DoubleValue
2.403

@<SCITEGIC>MOL_PROPERTY
Valence
SciTegic.value.DoubleValue
7.418

@<SCITEGIC>MOL_PROPERTY
Coulomb
SciTegic.value.DoubleValue
47.279

@<SCITEGIC>MOL_PROPERTY
VdW
SciTegic.value.DoubleValue
0.655

@<SCITEGIC>MOL_PROPERTY
VdW6
SciTegic.value.DoubleValue
-10.188

@<SCITEGIC>MOL_PROPERTY
VdW12
SciTegic.value.DoubleValue
10.843

@<SCITEGIC>MOL_PROPERTY
Bond
SciTegic.value.DoubleValue
0.301

@<SCITEGIC>MOL_PROPERTY
Angle
SciTegic.value.DoubleValue
1.788

@<SCITEGIC>MOL_PROPERTY
Pdih
SciTegic.value.DoubleValue
5.329

@<SCITEGIC>MOL_PROPERTY
Idih
SciTegic.value.DoubleValue
0.000

@<SCITEGIC>MOL_PROPERTY
Tether
SciTegic.value.DoubleValue
0.000

@<TRIPOS>MOLECULE
guest-3_vm2.mol2 : vm2 ligand conformer 440
          29          28           1
SMALL
USER_CHARGES
 
@<TRIPOS>ATOM
       1    C1      21.035061   20.063120   21.818626 C.3        1 MOL1        -0.2427
       2    H1      21.745264   19.552493   21.155447 H          1 MOL1         0.0958
       3    H2      21.363915   21.105475   21.919197 H          1 MOL1         0.0958
       4    H3      21.103769   19.596166   22.806773 H          1 MOL1         0.0958
       5    C2      19.601503   20.001358   21.241536 C.3        1 MOL1        -0.1412
       6    H4      19.614574   20.495454   20.259940 H          1 MOL1         0.0947
       7    H5      18.907508   20.586166   21.860006 H          1 MOL1         0.0947
       8    C3      19.073018   18.556568   21.055233 C.3        1 MOL1        -0.1437
       9    H6      18.431430   18.547923   20.163236 H          1 MOL1         0.0947
      10    H7      19.904051   17.876309   20.823534 H          1 MOL1         0.0947
      11    C4      18.231410   17.988688   22.230303 C.3        1 MOL1        -0.1437
      12    H8      17.832853   17.017963   21.904403 H          1 MOL1         0.0947
      13    H9      17.350742   18.622196   22.403904 H          1 MOL1         0.0947
      14    C5      19.000500   17.762074   23.556606 C.3        1 MOL1        -0.1437
      15    H10     18.601994   16.858454   24.038347 H          1 MOL1         0.0947
      16    H11     20.057252   17.548594   23.347896 H          1 MOL1         0.0947
      17    C6      18.861271   18.936863   24.555389 C.3        1 MOL1        -0.1437
      18    H12     17.802226   19.067196   24.817922 H          1 MOL1         0.0947
      19    H13     19.183424   19.876205   24.090972 H          1 MOL1         0.0947
      20    C7      19.681741   18.696267   25.841297 C.3        1 MOL1        -0.1477
      21    H14     19.351121   17.766278   26.322827 H          1 MOL1         0.0947
      22    H15     20.741711   18.567611   25.584518 H          1 MOL1         0.0947
      23    C8      19.533643   19.865801   26.830045 C.3        1 MOL1         0.0145
      24    H16     18.481533   19.987474   27.101541 H          1 MOL1         0.0921
      25    H17     19.877306   20.791213   26.359974 H          1 MOL1         0.0921
      26    N1      20.325854   19.667260   28.105965 N.4        1 MOL1        -0.5969
      27    H18     20.213286   20.457170   28.750997 H          1 MOL1         0.3603
      28    H19     21.330078   19.573032   27.921240 H          1 MOL1         0.3603
      29    H20     20.031224   18.824856   28.610998 H          1 MOL1         0.3603
@<TRIPOS>BOND
    1     1     2    1
    2     1     3    1
    3     1     4    1
    4     1     5    1
    5     5     6    1
    6     5     7    1
    7     5     8    1
    8     8     9    1
    9     8    10    1
   10     8    11    1
   11    11    12    1
   12    11    13    1
   13    11    14    1
   14    14    15    1
   15    14    16    1
   16    14    17    1
   17    17    18    1
   18    17    19    1
   19    17    20    1
   20    20    21    1
   21    20    22    1
   22    20    23    1
   23    23    24    1
   24    23    25    1
   25    23    26    1
   26    26    27    1
   27    26    28    1
   28    26    29    1
@<TRIPOS>SUBSTRUCTURE
       1 MOL1            1 RESIDUE      1      MOL     
@<SCITEGIC>MOL_PROPERTY
VM2 Rank
SciTegic.value.IntegerValue
440

@<SCITEGIC>MOL_PROPERTY
Conf_Id
SciTegic.value.IntegerValue
1932

@<SCITEGIC>MOL_PROPERTY
Probability
SciTegic.value.DoubleValue
0.00

@<SCITEGIC>MOL_PROPERTY
Sum Probability
SciTegic.value.DoubleValue
100.00

@<SCITEGIC>MOL_PROPERTY
Delta G
SciTegic.value.DoubleValue
6.211

@<SCITEGIC>MOL_PROPERTY
G
SciTegic.value.DoubleValue
64.357

@<SCITEGIC>MOL_PROPERTY
E
SciTegic.value.DoubleValue
26.283

@<SCITEGIC>MOL_PROPERTY
-TS
SciTegic.value.DoubleValue
38.074

@<SCITEGIC>MOL_PROPERTY
U+W
SciTegic.value.DoubleValue
2.139

@<SCITEGIC>MOL_PROPERTY
U
SciTegic.value.DoubleValue
54.030

@<SCITEGIC>MOL_PROPERTY
W
SciTegic.value.DoubleValue
-51.892

@<SCITEGIC>MOL_PROPERTY
W(PB)
SciTegic.value.DoubleValue
-54.326

@<SCITEGIC>MOL_PROPERTY
W(SA)
SciTegic.value.DoubleValue
2.434

@<SCITEGIC>MOL_PROPERTY
Valence
SciTegic.value.DoubleValue
8.166

@<SCITEGIC>MOL_PROPERTY
Coulomb
SciTegic.value.DoubleValue
45.306

@<SCITEGIC>MOL_PROPERTY
VdW
SciTegic.value.DoubleValue
0.558

@<SCITEGIC>MOL_PROPERTY
VdW6
SciTegic.value.DoubleValue
-9.882

@<SCITEGIC>MOL_PROPERTY
VdW12
SciTegic.value.DoubleValue
10.440

@<SCITEGIC>MOL_PROPERTY
Bond
SciTegic.value.DoubleValue
0.281

@<SCITEGIC>MOL_PROPERTY
Angle
SciTegic.value.DoubleValue
1.930

@<SCITEGIC>MOL_PROPERTY
Pdih
SciTegic.value.DoubleValue
5.955

@<SCITEGIC>MOL_PROPERTY
Idih
SciTegic.value.DoubleValue
0.000

@<SCITEGIC>MOL_PROPERTY
Tether
SciTegic.value.DoubleValue
0.000

@<TRIPOS>MOLECULE
guest-3_vm2.mol2 : vm2 ligand conformer 441
          29          28           1
SMALL
USER_CHARGES
 
@<TRIPOS>ATOM
       1    C1      20.081396   17.385373   21.757841 C.3        1 MOL1        -0.2427
       2    H1      20.963495   17.358293   21.105076 H          1 MOL1         0.0958
       3    H2      20.416180   17.664037   22.762566 H          1 MOL1         0.0958
       4    H3      19.676197   16.366740   21.812316 H          1 MOL1         0.0958
       5    C2      19.017425   18.362016   21.204617 C.3        1 MOL1        -0.1412
       6    H4      18.101580   18.323160   21.809475 H          1 MOL1         0.0947
       7    H5      18.728845   18.010502   20.204121 H          1 MOL1         0.0947
       8    C3      19.523407   19.821715   21.083476 C.3        1 MOL1        -0.1437
       9    H6      20.600498   19.832414   20.867120 H          1 MOL1         0.0947
      10    H7      19.044188   20.269354   20.201811 H          1 MOL1         0.0947
      11    C4      19.213547   20.746227   22.292126 C.3        1 MOL1        -0.1437
      12    H8      18.128346   20.805420   22.452989 H          1 MOL1         0.0947
      13    H9      19.522639   21.762440   22.010811 H          1 MOL1         0.0947
      14    C5      19.934115   20.382842   23.615255 C.3        1 MOL1        -0.1437
      15    H10     20.890940   19.888810   23.400131 H          1 MOL1         0.0947
      16    H11     20.189343   21.314921   24.138224 H          1 MOL1         0.0947
      17    C6      19.069966   19.521522   24.568385 C.3        1 MOL1        -0.1437
      18    H12     18.733300   18.609007   24.062620 H          1 MOL1         0.0947
      19    H13     18.162817   20.078951   24.840117 H          1 MOL1         0.0947
      20    C7      19.839452   19.138995   25.851421 C.3        1 MOL1        -0.1477
      21    H14     20.746197   18.579458   25.585420 H          1 MOL1         0.0947
      22    H15     20.163381   20.048966   26.373995 H          1 MOL1         0.0947
      23    C8      18.971876   18.287808   26.794901 C.3        1 MOL1         0.0145
      24    H16     18.661111   17.372494   26.283937 H          1 MOL1         0.0921
      25    H17     18.075230   18.847074   27.075433 H          1 MOL1         0.0921
      26    N1      19.692817   17.891502   28.066976 N.4        1 MOL1        -0.5969
      27    H18     20.533734   17.337797   27.872722 H          1 MOL1         0.3603
      28    H19     19.097446   17.325445   28.681639 H          1 MOL1         0.3603
      29    H20     19.988691   18.710213   28.608901 H          1 MOL1         0.3603
@<TRIPOS>BOND
    1     1     2    1
    2     1     3    1
    3     1     4    1
    4     1     5    1
    5     5     6    1
    6     5     7    1
    7     5     8    1
    8     8     9    1
    9     8    10    1
   10     8    11    1
   11    11    12    1
   12    11    13    1
   13    11    14    1
   14    14    15    1
   15    14    16    1
   16    14    17    1
   17    17    18    1
   18    17    19    1
   19    17    20    1
   20    20    21    1
   21    20    22    1
   22    20    23    1
   23    23    24    1
   24    23    25    1
   25    23    26    1
   26    26    27    1
   27    26    28    1
   28    26    29    1
@<TRIPOS>SUBSTRUCTURE
       1 MOL1            1 RESIDUE      1      MOL     
@<SCITEGIC>MOL_PROPERTY
VM2 Rank
SciTegic.value.IntegerValue
441

@<SCITEGIC>MOL_PROPERTY
Conf_Id
SciTegic.value.IntegerValue
2728

@<SCITEGIC>MOL_PROPERTY
Probability
SciTegic.value.DoubleValue
0.00

@<SCITEGIC>MOL_PROPERTY
Sum Probability
SciTegic.value.DoubleValue
100.00

@<SCITEGIC>MOL_PROPERTY
Delta G
SciTegic.value.DoubleValue
6.226

@<SCITEGIC>MOL_PROPERTY
G
SciTegic.value.DoubleValue
64.372

@<SCITEGIC>MOL_PROPERTY
E
SciTegic.value.DoubleValue
26.299

@<SCITEGIC>MOL_PROPERTY
-TS
SciTegic.value.DoubleValue
38.074

@<SCITEGIC>MOL_PROPERTY
U+W
SciTegic.value.DoubleValue
2.154

@<SCITEGIC>MOL_PROPERTY
U
SciTegic.value.DoubleValue
54.030

@<SCITEGIC>MOL_PROPERTY
W
SciTegic.value.DoubleValue
-51.876

@<SCITEGIC>MOL_PROPERTY
W(PB)
SciTegic.value.DoubleValue
-54.310

@<SCITEGIC>MOL_PROPERTY
W(SA)
SciTegic.value.DoubleValue
2.434

@<SCITEGIC>MOL_PROPERTY
Valence
SciTegic.value.DoubleValue
8.166

@<SCITEGIC>MOL_PROPERTY
Coulomb
SciTegic.value.DoubleValue
45.305

@<SCITEGIC>MOL_PROPERTY
VdW
SciTegic.value.DoubleValue
0.558

@<SCITEGIC>MOL_PROPERTY
VdW6
SciTegic.value.DoubleValue
-9.881

@<SCITEGIC>MOL_PROPERTY
VdW12
SciTegic.value.DoubleValue
10.439

@<SCITEGIC>MOL_PROPERTY
Bond
SciTegic.value.DoubleValue
0.281

@<SCITEGIC>MOL_PROPERTY
Angle
SciTegic.value.DoubleValue
1.931

@<SCITEGIC>MOL_PROPERTY
Pdih
SciTegic.value.DoubleValue
5.955

@<SCITEGIC>MOL_PROPERTY
Idih
SciTegic.value.DoubleValue
0.000

@<SCITEGIC>MOL_PROPERTY
Tether
SciTegic.value.DoubleValue
0.000

@<TRIPOS>MOLECULE
guest-3_vm2.mol2 : vm2 ligand conformer 442
          29          28           1
SMALL
USER_CHARGES
 
@<TRIPOS>ATOM
       1    C1      19.556200   18.342184   20.237452 C.3        1 MOL1        -0.2427
       2    H1      19.273330   18.131574   19.197990 H          1 MOL1         0.0958
       3    H2      20.609486   18.059871   20.362896 H          1 MOL1         0.0958
       4    H3      18.942462   17.699524   20.880649 H          1 MOL1         0.0958
       5    C2      19.337083   19.835412   20.564172 C.3        1 MOL1        -0.1412
       6    H4      18.266723   20.072081   20.486650 H          1 MOL1         0.0947
       7    H5      19.838936   20.441122   19.796728 H          1 MOL1         0.0947
       8    C3      19.865334   20.268550   21.955556 C.3        1 MOL1        -0.1437
       9    H6      20.953914   20.128929   22.006382 H          1 MOL1         0.0947
      10    H7      19.701731   21.351161   22.048190 H          1 MOL1         0.0947
      11    C4      19.175369   19.570835   23.156856 C.3        1 MOL1        -0.1437
      12    H8      18.154125   19.275047   22.880443 H          1 MOL1         0.0947
      13    H9      19.066944   20.308544   23.959640 H          1 MOL1         0.0947
      14    C5      19.965567   18.346410   23.689490 C.3        1 MOL1        -0.1437
      15    H10     20.121328   17.638518   22.866920 H          1 MOL1         0.0947
      16    H11     20.969932   18.654051   24.011323 H          1 MOL1         0.0947
      17    C6      19.249152   17.591970   24.840006 C.3        1 MOL1        -0.1437
      18    H12     19.532502   16.532000   24.779666 H          1 MOL1         0.0947
      19    H13     18.160697   17.616535   24.692053 H          1 MOL1         0.0947
      20    C7      19.606522   18.087676   26.263891 C.3        1 MOL1        -0.1477
      21    H14     19.124136   17.424956   26.994682 H          1 MOL1         0.0947
      22    H15     20.688490   17.992541   26.425643 H          1 MOL1         0.0947
      23    C8      19.172729   19.536528   26.546536 C.3        1 MOL1         0.0145
      24    H16     18.105724   19.650132   26.336973 H          1 MOL1         0.0921
      25    H17     19.729744   20.219451   25.900788 H          1 MOL1         0.0921
      26    N1      19.416044   19.958435   27.981041 N.4        1 MOL1        -0.5969
      27    H18     18.898966   19.371843   28.644353 H          1 MOL1         0.3603
      28    H19     19.123617   20.927542   28.148138 H          1 MOL1         0.3603
      29    H20     20.407962   19.897609   28.233739 H          1 MOL1         0.3603
@<TRIPOS>BOND
    1     1     2    1
    2     1     3    1
    3     1     4    1
    4     1     5    1
    5     5     6    1
    6     5     7    1
    7     5     8    1
    8     8     9    1
    9     8    10    1
   10     8    11    1
   11    11    12    1
   12    11    13    1
   13    11    14    1
   14    14    15    1
   15    14    16    1
   16    14    17    1
   17    17    18    1
   18    17    19    1
   19    17    20    1
   20    20    21    1
   21    20    22    1
   22    20    23    1
   23    23    24    1
   24    23    25    1
   25    23    26    1
   26    26    27    1
   27    26    28    1
   28    26    29    1
@<TRIPOS>SUBSTRUCTURE
       1 MOL1            1 RESIDUE      1      MOL     
@<SCITEGIC>MOL_PROPERTY
VM2 Rank
SciTegic.value.IntegerValue
442

@<SCITEGIC>MOL_PROPERTY
Conf_Id
SciTegic.value.IntegerValue
1609

@<SCITEGIC>MOL_PROPERTY
Probability
SciTegic.value.DoubleValue
0.00

@<SCITEGIC>MOL_PROPERTY
Sum Probability
SciTegic.value.DoubleValue
100.00

@<SCITEGIC>MOL_PROPERTY
Delta G
SciTegic.value.DoubleValue
6.240

@<SCITEGIC>MOL_PROPERTY
G
SciTegic.value.DoubleValue
64.386

@<SCITEGIC>MOL_PROPERTY
E
SciTegic.value.DoubleValue
26.826

@<SCITEGIC>MOL_PROPERTY
-TS
SciTegic.value.DoubleValue
37.560

@<SCITEGIC>MOL_PROPERTY
U+W
SciTegic.value.DoubleValue
2.681

@<SCITEGIC>MOL_PROPERTY
U
SciTegic.value.DoubleValue
54.669

@<SCITEGIC>MOL_PROPERTY
W
SciTegic.value.DoubleValue
-51.988

@<SCITEGIC>MOL_PROPERTY
W(PB)
SciTegic.value.DoubleValue
-54.452

@<SCITEGIC>MOL_PROPERTY
W(SA)
SciTegic.value.DoubleValue
2.464

@<SCITEGIC>MOL_PROPERTY
Valence
SciTegic.value.DoubleValue
8.185

@<SCITEGIC>MOL_PROPERTY
Coulomb
SciTegic.value.DoubleValue
45.540

@<SCITEGIC>MOL_PROPERTY
VdW
SciTegic.value.DoubleValue
0.944

@<SCITEGIC>MOL_PROPERTY
VdW6
SciTegic.value.DoubleValue
-9.928

@<SCITEGIC>MOL_PROPERTY
VdW12
SciTegic.value.DoubleValue
10.872

@<SCITEGIC>MOL_PROPERTY
Bond
SciTegic.value.DoubleValue
0.320

@<SCITEGIC>MOL_PROPERTY
Angle
SciTegic.value.DoubleValue
1.813

@<SCITEGIC>MOL_PROPERTY
Pdih
SciTegic.value.DoubleValue
6.052

@<SCITEGIC>MOL_PROPERTY
Idih
SciTegic.value.DoubleValue
0.000

@<SCITEGIC>MOL_PROPERTY
Tether
SciTegic.value.DoubleValue
0.000

@<TRIPOS>MOLECULE
guest-3_vm2.mol2 : vm2 ligand conformer 443
          29          28           1
SMALL
USER_CHARGES
 
@<TRIPOS>ATOM
       1    C1      21.478517   20.018536   21.631591 C.3        1 MOL1        -0.2427
       2    H1      21.677580   19.662060   20.612521 H          1 MOL1         0.0958
       3    H2      21.808855   21.063523   21.693761 H          1 MOL1         0.0958
       4    H3      22.091521   19.429286   22.325915 H          1 MOL1         0.0958
       5    C2      19.979495   19.899528   21.977843 C.3        1 MOL1        -0.1412
       6    H4      19.397261   20.526847   21.288565 H          1 MOL1         0.0947
       7    H5      19.809484   20.304288   22.982167 H          1 MOL1         0.0947
       8    C3      19.486977   18.435176   21.883655 C.3        1 MOL1        -0.1437
       9    H6      19.614920   18.102960   20.844115 H          1 MOL1         0.0947
      10    H7      20.117430   17.770098   22.488439 H          1 MOL1         0.0947
      11    C4      17.997027   18.258154   22.272614 C.3        1 MOL1        -0.1437
      12    H8      17.576471   17.469310   21.633665 H          1 MOL1         0.0947
      13    H9      17.429350   19.166074   22.026632 H          1 MOL1         0.0947
      14    C5      17.730411   17.844990   23.745817 C.3        1 MOL1        -0.1437
      15    H10     16.654669   17.639330   23.834859 H          1 MOL1         0.0947
      16    H11     18.228861   16.890981   23.966126 H          1 MOL1         0.0947
      17    C6      18.098299   18.902844   24.817423 C.3        1 MOL1        -0.1437
      18    H12     17.373613   18.828336   25.640214 H          1 MOL1         0.0947
      19    H13     17.980132   19.914355   24.406419 H          1 MOL1         0.0947
      20    C7      19.513906   18.712187   25.413003 C.3        1 MOL1        -0.1477
      21    H14     19.577184   17.729265   25.898475 H          1 MOL1         0.0947
      22    H15     20.272010   18.722163   24.622521 H          1 MOL1         0.0947
      23    C8      19.840895   19.809293   26.440699 C.3        1 MOL1         0.0145
      24    H16     19.107132   19.785561   27.250922 H          1 MOL1         0.0921
      25    H17     19.791761   20.790109   25.960080 H          1 MOL1         0.0921
      26    N1      21.218471   19.657293   27.052354 N.4        1 MOL1        -0.5969
      27    H18     21.321017   18.763270   27.543954 H          1 MOL1         0.3603
      28    H19     21.415598   20.397700   27.734700 H          1 MOL1         0.3603
      29    H20     21.957979   19.699372   26.343372 H          1 MOL1         0.3603
@<TRIPOS>BOND
    1     1     2    1
    2     1     3    1
    3     1     4    1
    4     1     5    1
    5     5     6    1
    6     5     7    1
    7     5     8    1
    8     8     9    1
    9     8    10    1
   10     8    11    1
   11    11    12    1
   12    11    13    1
   13    11    14    1
   14    14    15    1
   15    14    16    1
   16    14    17    1
   17    17    18    1
   18    17    19    1
   19    17    20    1
   20    20    21    1
   21    20    22    1
   22    20    23    1
   23    23    24    1
   24    23    25    1
   25    23    26    1
   26    26    27    1
   27    26    28    1
   28    26    29    1
@<TRIPOS>SUBSTRUCTURE
       1 MOL1            1 RESIDUE      1      MOL     
@<SCITEGIC>MOL_PROPERTY
VM2 Rank
SciTegic.value.IntegerValue
443

@<SCITEGIC>MOL_PROPERTY
Conf_Id
SciTegic.value.IntegerValue
279

@<SCITEGIC>MOL_PROPERTY
Probability
SciTegic.value.DoubleValue
0.00

@<SCITEGIC>MOL_PROPERTY
Sum Probability
SciTegic.value.DoubleValue
100.00

@<SCITEGIC>MOL_PROPERTY
Delta G
SciTegic.value.DoubleValue
6.261

@<SCITEGIC>MOL_PROPERTY
G
SciTegic.value.DoubleValue
64.407

@<SCITEGIC>MOL_PROPERTY
E
SciTegic.value.DoubleValue
26.295

@<SCITEGIC>MOL_PROPERTY
-TS
SciTegic.value.DoubleValue
38.113

@<SCITEGIC>MOL_PROPERTY
U+W
SciTegic.value.DoubleValue
2.150

@<SCITEGIC>MOL_PROPERTY
U
SciTegic.value.DoubleValue
54.732

@<SCITEGIC>MOL_PROPERTY
W
SciTegic.value.DoubleValue
-52.582

@<SCITEGIC>MOL_PROPERTY
W(PB)
SciTegic.value.DoubleValue
-54.991

@<SCITEGIC>MOL_PROPERTY
W(SA)
SciTegic.value.DoubleValue
2.409

@<SCITEGIC>MOL_PROPERTY
Valence
SciTegic.value.DoubleValue
8.179

@<SCITEGIC>MOL_PROPERTY
Coulomb
SciTegic.value.DoubleValue
46.176

@<SCITEGIC>MOL_PROPERTY
VdW
SciTegic.value.DoubleValue
0.378

@<SCITEGIC>MOL_PROPERTY
VdW6
SciTegic.value.DoubleValue
-10.197

@<SCITEGIC>MOL_PROPERTY
VdW12
SciTegic.value.DoubleValue
10.575

@<SCITEGIC>MOL_PROPERTY
Bond
SciTegic.value.DoubleValue
0.286

@<SCITEGIC>MOL_PROPERTY
Angle
SciTegic.value.DoubleValue
1.947

@<SCITEGIC>MOL_PROPERTY
Pdih
SciTegic.value.DoubleValue
5.946

@<SCITEGIC>MOL_PROPERTY
Idih
SciTegic.value.DoubleValue
0.000

@<SCITEGIC>MOL_PROPERTY
Tether
SciTegic.value.DoubleValue
0.000

@<TRIPOS>MOLECULE
guest-3_vm2.mol2 : vm2 ligand conformer 444
          29          28           1
SMALL
USER_CHARGES
 
@<TRIPOS>ATOM
       1    C1      20.767965   19.389819   20.657013 C.3        1 MOL1        -0.2427
       2    H1      20.224117   20.339230   20.737902 H          1 MOL1         0.0958
       3    H2      21.572068   19.384234   21.404112 H          1 MOL1         0.0958
       4    H3      21.232915   19.359736   19.663159 H          1 MOL1         0.0958
       5    C2      19.823231   18.183059   20.848270 C.3        1 MOL1        -0.1412
       6    H4      20.381765   17.260679   20.636313 H          1 MOL1         0.0947
       7    H5      19.016784   18.228736   20.103130 H          1 MOL1         0.0947
       8    C3      19.213028   18.076291   22.268906 C.3        1 MOL1        -0.1437
       9    H6      18.619001   17.152887   22.307963 H          1 MOL1         0.0947
      10    H7      20.015679   17.946606   23.005416 H          1 MOL1         0.0947
      11    C4      18.290755   19.263057   22.659521 C.3        1 MOL1        -0.1437
      12    H8      17.452505   18.889712   23.263612 H          1 MOL1         0.0947
      13    H9      17.830952   19.671689   21.749225 H          1 MOL1         0.0947
      14    C5      19.002169   20.406090   23.433181 C.3        1 MOL1        -0.1437
      15    H10     20.055684   20.480661   23.135916 H          1 MOL1         0.0947
      16    H11     18.540835   21.358498   23.137916 H          1 MOL1         0.0947
      17    C6      18.901823   20.293276   24.976234 C.3        1 MOL1        -0.1437
      18    H12     17.844618   20.307046   25.275637 H          1 MOL1         0.0947
      19    H13     19.356739   21.189904   25.419758 H          1 MOL1         0.0947
      20    C7      19.587885   19.039942   25.565687 C.3        1 MOL1        -0.1477
      21    H14     19.087678   18.133636   25.201504 H          1 MOL1         0.0947
      22    H15     20.632089   18.997025   25.228815 H          1 MOL1         0.0947
      23    C8      19.547299   19.050130   27.103703 C.3        1 MOL1         0.0145
      24    H16     18.508747   19.078187   27.444377 H          1 MOL1         0.0921
      25    H17     20.057243   19.941205   27.479688 H          1 MOL1         0.0921
      26    N1      20.209846   17.836337   27.722484 N.4        1 MOL1        -0.5969
      27    H18     19.758042   16.963703   27.429566 H          1 MOL1         0.3603
      28    H19     20.171886   17.863159   28.747445 H          1 MOL1         0.3603
      29    H20     21.199174   17.767013   27.461967 H          1 MOL1         0.3603
@<TRIPOS>BOND
    1     1     2    1
    2     1     3    1
    3     1     4    1
    4     1     5    1
    5     5     6    1
    6     5     7    1
    7     5     8    1
    8     8     9    1
    9     8    10    1
   10     8    11    1
   11    11    12    1
   12    11    13    1
   13    11    14    1
   14    14    15    1
   15    14    16    1
   16    14    17    1
   17    17    18    1
   18    17    19    1
   19    17    20    1
   20    20    21    1
   21    20    22    1
   22    20    23    1
   23    23    24    1
   24    23    25    1
   25    23    26    1
   26    26    27    1
   27    26    28    1
   28    26    29    1
@<TRIPOS>SUBSTRUCTURE
       1 MOL1            1 RESIDUE      1      MOL     
@<SCITEGIC>MOL_PROPERTY
VM2 Rank
SciTegic.value.IntegerValue
444

@<SCITEGIC>MOL_PROPERTY
Conf_Id
SciTegic.value.IntegerValue
2867

@<SCITEGIC>MOL_PROPERTY
Probability
SciTegic.value.DoubleValue
0.00

@<SCITEGIC>MOL_PROPERTY
Sum Probability
SciTegic.value.DoubleValue
100.00

@<SCITEGIC>MOL_PROPERTY
Delta G
SciTegic.value.DoubleValue
6.345

@<SCITEGIC>MOL_PROPERTY
G
SciTegic.value.DoubleValue
64.491

@<SCITEGIC>MOL_PROPERTY
E
SciTegic.value.DoubleValue
26.452

@<SCITEGIC>MOL_PROPERTY
-TS
SciTegic.value.DoubleValue
38.040

@<SCITEGIC>MOL_PROPERTY
U+W
SciTegic.value.DoubleValue
2.307

@<SCITEGIC>MOL_PROPERTY
U
SciTegic.value.DoubleValue
54.449

@<SCITEGIC>MOL_PROPERTY
W
SciTegic.value.DoubleValue
-52.142

@<SCITEGIC>MOL_PROPERTY
W(PB)
SciTegic.value.DoubleValue
-54.574

@<SCITEGIC>MOL_PROPERTY
W(SA)
SciTegic.value.DoubleValue
2.432

@<SCITEGIC>MOL_PROPERTY
Valence
SciTegic.value.DoubleValue
8.133

@<SCITEGIC>MOL_PROPERTY
Coulomb
SciTegic.value.DoubleValue
45.482

@<SCITEGIC>MOL_PROPERTY
VdW
SciTegic.value.DoubleValue
0.833

@<SCITEGIC>MOL_PROPERTY
VdW6
SciTegic.value.DoubleValue
-10.226

@<SCITEGIC>MOL_PROPERTY
VdW12
SciTegic.value.DoubleValue
11.059

@<SCITEGIC>MOL_PROPERTY
Bond
SciTegic.value.DoubleValue
0.317

@<SCITEGIC>MOL_PROPERTY
Angle
SciTegic.value.DoubleValue
1.634

@<SCITEGIC>MOL_PROPERTY
Pdih
SciTegic.value.DoubleValue
6.182

@<SCITEGIC>MOL_PROPERTY
Idih
SciTegic.value.DoubleValue
0.000

@<SCITEGIC>MOL_PROPERTY
Tether
SciTegic.value.DoubleValue
0.000

@<TRIPOS>MOLECULE
guest-3_vm2.mol2 : vm2 ligand conformer 445
          29          28           1
SMALL
USER_CHARGES
 
@<TRIPOS>ATOM
       1    C1      20.759098   19.068356   20.446068 C.3        1 MOL1        -0.2427
       2    H1      21.296495   18.112243   20.400578 H          1 MOL1         0.0958
       3    H2      20.947132   19.600840   19.504797 H          1 MOL1         0.0958
       4    H3      21.196113   19.662737   21.255812 H          1 MOL1         0.0958
       5    C2      19.242401   18.839814   20.643717 C.3        1 MOL1        -0.1412
       6    H4      18.871868   18.268670   19.780955 H          1 MOL1         0.0947
       7    H5      18.705694   19.798509   20.624264 H          1 MOL1         0.0947
       8    C3      18.899605   18.056302   21.937016 C.3        1 MOL1        -0.1437
       9    H6      18.029335   17.418792   21.728272 H          1 MOL1         0.0947
      10    H7      19.716350   17.367012   22.191787 H          1 MOL1         0.0947
      11    C4      18.545814   18.939282   23.161479 C.3        1 MOL1        -0.1437
      12    H8      18.233704   18.276365   23.976500 H          1 MOL1         0.0947
      13    H9      17.667228   19.554311   22.922910 H          1 MOL1         0.0947
      14    C5      19.697753   19.859248   23.637238 C.3        1 MOL1        -0.1437
      15    H10     20.632163   19.288764   23.728543 H          1 MOL1         0.0947
      16    H11     19.871145   20.618477   22.863592 H          1 MOL1         0.0947
      17    C6      19.393191   20.597038   24.966893 C.3        1 MOL1        -0.1437
      18    H12     18.317578   20.806400   25.048548 H          1 MOL1         0.0947
      19    H13     19.886083   21.578627   24.935314 H          1 MOL1         0.0947
      20    C7      19.893997   19.863397   26.236419 C.3        1 MOL1        -0.1477
      21    H14     20.983660   19.739004   26.180895 H          1 MOL1         0.0947
      22    H15     19.697893   20.499120   27.110095 H          1 MOL1         0.0947
      23    C8      19.235009   18.491068   26.460090 C.3        1 MOL1         0.0145
      24    H16     19.488041   17.823102   25.632785 H          1 MOL1         0.0921
      25    H17     18.148244   18.605292   26.494704 H          1 MOL1         0.0921
      26    N1      19.677133   17.823496   27.746081 N.4        1 MOL1        -0.5969
      27    H18     19.228413   16.909935   27.875106 H          1 MOL1         0.3603
      28    H19     19.444937   18.389249   28.569157 H          1 MOL1         0.3603
      29    H20     20.689948   17.664508   27.764950 H          1 MOL1         0.3603
@<TRIPOS>BOND
    1     1     2    1
    2     1     3    1
    3     1     4    1
    4     1     5    1
    5     5     6    1
    6     5     7    1
    7     5     8    1
    8     8     9    1
    9     8    10    1
   10     8    11    1
   11    11    12    1
   12    11    13    1
   13    11    14    1
   14    14    15    1
   15    14    16    1
   16    14    17    1
   17    17    18    1
   18    17    19    1
   19    17    20    1
   20    20    21    1
   21    20    22    1
   22    20    23    1
   23    23    24    1
   24    23    25    1
   25    23    26    1
   26    26    27    1
   27    26    28    1
   28    26    29    1
@<TRIPOS>SUBSTRUCTURE
       1 MOL1            1 RESIDUE      1      MOL     
@<SCITEGIC>MOL_PROPERTY
VM2 Rank
SciTegic.value.IntegerValue
445

@<SCITEGIC>MOL_PROPERTY
Conf_Id
SciTegic.value.IntegerValue
265

@<SCITEGIC>MOL_PROPERTY
Probability
SciTegic.value.DoubleValue
0.00

@<SCITEGIC>MOL_PROPERTY
Sum Probability
SciTegic.value.DoubleValue
100.00

@<SCITEGIC>MOL_PROPERTY
Delta G
SciTegic.value.DoubleValue
6.358

@<SCITEGIC>MOL_PROPERTY
G
SciTegic.value.DoubleValue
64.505

@<SCITEGIC>MOL_PROPERTY
E
SciTegic.value.DoubleValue
26.733

@<SCITEGIC>MOL_PROPERTY
-TS
SciTegic.value.DoubleValue
37.771

@<SCITEGIC>MOL_PROPERTY
U+W
SciTegic.value.DoubleValue
2.589

@<SCITEGIC>MOL_PROPERTY
U
SciTegic.value.DoubleValue
54.695

@<SCITEGIC>MOL_PROPERTY
W
SciTegic.value.DoubleValue
-52.106

@<SCITEGIC>MOL_PROPERTY
W(PB)
SciTegic.value.DoubleValue
-54.546

@<SCITEGIC>MOL_PROPERTY
W(SA)
SciTegic.value.DoubleValue
2.440

@<SCITEGIC>MOL_PROPERTY
Valence
SciTegic.value.DoubleValue
8.194

@<SCITEGIC>MOL_PROPERTY
Coulomb
SciTegic.value.DoubleValue
45.590

@<SCITEGIC>MOL_PROPERTY
VdW
SciTegic.value.DoubleValue
0.910

@<SCITEGIC>MOL_PROPERTY
VdW6
SciTegic.value.DoubleValue
-10.005

@<SCITEGIC>MOL_PROPERTY
VdW12
SciTegic.value.DoubleValue
10.915

@<SCITEGIC>MOL_PROPERTY
Bond
SciTegic.value.DoubleValue
0.309

@<SCITEGIC>MOL_PROPERTY
Angle
SciTegic.value.DoubleValue
1.847

@<SCITEGIC>MOL_PROPERTY
Pdih
SciTegic.value.DoubleValue
6.039

@<SCITEGIC>MOL_PROPERTY
Idih
SciTegic.value.DoubleValue
0.000

@<SCITEGIC>MOL_PROPERTY
Tether
SciTegic.value.DoubleValue
0.000

@<TRIPOS>MOLECULE
guest-3_vm2.mol2 : vm2 ligand conformer 446
          29          28           1
SMALL
USER_CHARGES
 
@<TRIPOS>ATOM
       1    C1      20.316545   18.121308   20.628920 C.3        1 MOL1        -0.2427
       2    H1      19.294173   17.726500   20.679706 H          1 MOL1         0.0958
       3    H2      20.710114   17.890164   19.630668 H          1 MOL1         0.0958
       4    H3      20.932743   17.588266   21.364402 H          1 MOL1         0.0958
       5    C2      20.343685   19.644832   20.880922 C.3        1 MOL1        -0.1412
       6    H4      19.700217   20.148228   20.145927 H          1 MOL1         0.0947
       7    H5      21.362205   20.014622   20.697772 H          1 MOL1         0.0947
       8    C3      19.918077   20.056822   22.313081 C.3        1 MOL1        -0.1437
       9    H6      20.611732   19.621125   23.042822 H          1 MOL1         0.0947
      10    H7      20.040377   21.145436   22.396936 H          1 MOL1         0.0947
      11    C4      18.448051   19.705152   22.669354 C.3        1 MOL1        -0.1437
      12    H8      17.846374   19.715295   21.750159 H          1 MOL1         0.0947
      13    H9      18.025658   20.499795   23.299517 H          1 MOL1         0.0947
      14    C5      18.266478   18.340176   23.387030 C.3        1 MOL1        -0.1437
      15    H10     17.311411   17.905970   23.060836 H          1 MOL1         0.0947
      16    H11     19.040094   17.628689   23.072193 H          1 MOL1         0.0947
      17    C6      18.238257   18.429767   24.934604 C.3        1 MOL1        -0.1437
      18    H12     18.018179   17.430657   25.335788 H          1 MOL1         0.0947
      19    H13     17.405941   19.075098   25.248146 H          1 MOL1         0.0947
      20    C7      19.553466   18.943298   25.563487 C.3        1 MOL1        -0.1477
      21    H14     20.394649   18.330249   25.213816 H          1 MOL1         0.0947
      22    H15     19.743417   19.975385   25.242640 H          1 MOL1         0.0947
      23    C8      19.493932   18.900018   27.100312 C.3        1 MOL1         0.0145
      24    H16     19.320986   17.873098   27.433402 H          1 MOL1         0.0921
      25    H17     18.666453   19.520832   27.454295 H          1 MOL1         0.0921
      26    N1      20.765509   19.396628   27.757291 N.4        1 MOL1        -0.5969
      27    H18     21.579783   18.835699   27.485704 H          1 MOL1         0.3603
      28    H19     20.704727   19.359113   28.780816 H          1 MOL1         0.3603
      29    H20     20.970677   20.369263   27.505683 H          1 MOL1         0.3603
@<TRIPOS>BOND
    1     1     2    1
    2     1     3    1
    3     1     4    1
    4     1     5    1
    5     5     6    1
    6     5     7    1
    7     5     8    1
    8     8     9    1
    9     8    10    1
   10     8    11    1
   11    11    12    1
   12    11    13    1
   13    11    14    1
   14    14    15    1
   15    14    16    1
   16    14    17    1
   17    17    18    1
   18    17    19    1
   19    17    20    1
   20    20    21    1
   21    20    22    1
   22    20    23    1
   23    23    24    1
   24    23    25    1
   25    23    26    1
   26    26    27    1
   27    26    28    1
   28    26    29    1
@<TRIPOS>SUBSTRUCTURE
       1 MOL1            1 RESIDUE      1      MOL     
@<SCITEGIC>MOL_PROPERTY
VM2 Rank
SciTegic.value.IntegerValue
446

@<SCITEGIC>MOL_PROPERTY
Conf_Id
SciTegic.value.IntegerValue
815

@<SCITEGIC>MOL_PROPERTY
Probability
SciTegic.value.DoubleValue
0.00

@<SCITEGIC>MOL_PROPERTY
Sum Probability
SciTegic.value.DoubleValue
100.00

@<SCITEGIC>MOL_PROPERTY
Delta G
SciTegic.value.DoubleValue
6.363

@<SCITEGIC>MOL_PROPERTY
G
SciTegic.value.DoubleValue
64.509

@<SCITEGIC>MOL_PROPERTY
E
SciTegic.value.DoubleValue
26.470

@<SCITEGIC>MOL_PROPERTY
-TS
SciTegic.value.DoubleValue
38.040

@<SCITEGIC>MOL_PROPERTY
U+W
SciTegic.value.DoubleValue
2.325

@<SCITEGIC>MOL_PROPERTY
U
SciTegic.value.DoubleValue
54.449

@<SCITEGIC>MOL_PROPERTY
W
SciTegic.value.DoubleValue
-52.123

@<SCITEGIC>MOL_PROPERTY
W(PB)
SciTegic.value.DoubleValue
-54.569

@<SCITEGIC>MOL_PROPERTY
W(SA)
SciTegic.value.DoubleValue
2.445

@<SCITEGIC>MOL_PROPERTY
Valence
SciTegic.value.DoubleValue
8.134

@<SCITEGIC>MOL_PROPERTY
Coulomb
SciTegic.value.DoubleValue
45.482

@<SCITEGIC>MOL_PROPERTY
VdW
SciTegic.value.DoubleValue
0.833

@<SCITEGIC>MOL_PROPERTY
VdW6
SciTegic.value.DoubleValue
-10.226

@<SCITEGIC>MOL_PROPERTY
VdW12
SciTegic.value.DoubleValue
11.059

@<SCITEGIC>MOL_PROPERTY
Bond
SciTegic.value.DoubleValue
0.317

@<SCITEGIC>MOL_PROPERTY
Angle
SciTegic.value.DoubleValue
1.635

@<SCITEGIC>MOL_PROPERTY
Pdih
SciTegic.value.DoubleValue
6.182

@<SCITEGIC>MOL_PROPERTY
Idih
SciTegic.value.DoubleValue
0.000

@<SCITEGIC>MOL_PROPERTY
Tether
SciTegic.value.DoubleValue
0.000

@<TRIPOS>MOLECULE
guest-3_vm2.mol2 : vm2 ligand conformer 447
          29          28           1
SMALL
USER_CHARGES
 
@<TRIPOS>ATOM
       1    C1      20.515887   18.384325   20.431117 C.3        1 MOL1        -0.2427
       2    H1      20.467616   17.616012   21.210425 H          1 MOL1         0.0958
       3    H2      20.338831   17.890557   19.466893 H          1 MOL1         0.0958
       4    H3      21.536990   18.786995   20.416209 H          1 MOL1         0.0958
       5    C2      19.481707   19.511404   20.658786 C.3        1 MOL1        -0.1412
       6    H4      18.460444   19.108854   20.608759 H          1 MOL1         0.0947
       7    H5      19.567543   20.221812   19.824633 H          1 MOL1         0.0947
       8    C3      19.692347   20.283385   21.986830 C.3        1 MOL1        -0.1437
       9    H6      20.757175   20.291193   22.257349 H          1 MOL1         0.0947
      10    H7      19.423322   21.334912   21.815721 H          1 MOL1         0.0947
      11    C4      18.842951   19.774657   23.180081 C.3        1 MOL1        -0.1437
      12    H8      17.776852   19.862818   22.929579 H          1 MOL1         0.0947
      13    H9      19.008081   20.452783   24.025072 H          1 MOL1         0.0947
      14    C5      19.148052   18.315930   23.602787 C.3        1 MOL1        -0.1437
      15    H10     18.813805   17.649193   22.797328 H          1 MOL1         0.0947
      16    H11     20.231396   18.163793   23.703443 H          1 MOL1         0.0947
      17    C6      18.427212   17.884484   24.906363 C.3        1 MOL1        -0.1437
      18    H12     18.189588   16.814432   24.829007 H          1 MOL1         0.0947
      19    H13     17.460132   18.398656   24.994858 H          1 MOL1         0.0947
      20    C7      19.260992   18.085829   26.196715 C.3        1 MOL1        -0.1477
      21    H14     18.695085   17.683066   27.047267 H          1 MOL1         0.0947
      22    H15     20.184857   17.495872   26.130796 H          1 MOL1         0.0947
      23    C8      19.614184   19.555687   26.483696 C.3        1 MOL1         0.0145
      24    H16     18.699286   20.152507   26.529181 H          1 MOL1         0.0921
      25    H17     20.243849   19.945630   25.679892 H          1 MOL1         0.0921
      26    N1      20.360669   19.742299   27.788624 N.4        1 MOL1        -0.5969
      27    H18     21.245799   19.224752   27.799380 H          1 MOL1         0.3603
      28    H19     19.811803   19.418490   28.591955 H          1 MOL1         0.3603
      29    H20     20.588288   20.727912   27.959936 H          1 MOL1         0.3603
@<TRIPOS>BOND
    1     1     2    1
    2     1     3    1
    3     1     4    1
    4     1     5    1
    5     5     6    1
    6     5     7    1
    7     5     8    1
    8     8     9    1
    9     8    10    1
   10     8    11    1
   11    11    12    1
   12    11    13    1
   13    11    14    1
   14    14    15    1
   15    14    16    1
   16    14    17    1
   17    17    18    1
   18    17    19    1
   19    17    20    1
   20    20    21    1
   21    20    22    1
   22    20    23    1
   23    23    24    1
   24    23    25    1
   25    23    26    1
   26    26    27    1
   27    26    28    1
   28    26    29    1
@<TRIPOS>SUBSTRUCTURE
       1 MOL1            1 RESIDUE      1      MOL     
@<SCITEGIC>MOL_PROPERTY
VM2 Rank
SciTegic.value.IntegerValue
447

@<SCITEGIC>MOL_PROPERTY
Conf_Id
SciTegic.value.IntegerValue
269

@<SCITEGIC>MOL_PROPERTY
Probability
SciTegic.value.DoubleValue
0.00

@<SCITEGIC>MOL_PROPERTY
Sum Probability
SciTegic.value.DoubleValue
100.00

@<SCITEGIC>MOL_PROPERTY
Delta G
SciTegic.value.DoubleValue
6.384

@<SCITEGIC>MOL_PROPERTY
G
SciTegic.value.DoubleValue
64.531

@<SCITEGIC>MOL_PROPERTY
E
SciTegic.value.DoubleValue
26.759

@<SCITEGIC>MOL_PROPERTY
-TS
SciTegic.value.DoubleValue
37.771

@<SCITEGIC>MOL_PROPERTY
U+W
SciTegic.value.DoubleValue
2.615

@<SCITEGIC>MOL_PROPERTY
U
SciTegic.value.DoubleValue
54.695

@<SCITEGIC>MOL_PROPERTY
W
SciTegic.value.DoubleValue
-52.080

@<SCITEGIC>MOL_PROPERTY
W(PB)
SciTegic.value.DoubleValue
-54.532

@<SCITEGIC>MOL_PROPERTY
W(SA)
SciTegic.value.DoubleValue
2.452

@<SCITEGIC>MOL_PROPERTY
Valence
SciTegic.value.DoubleValue
8.195

@<SCITEGIC>MOL_PROPERTY
Coulomb
SciTegic.value.DoubleValue
45.591

@<SCITEGIC>MOL_PROPERTY
VdW
SciTegic.value.DoubleValue
0.910

@<SCITEGIC>MOL_PROPERTY
VdW6
SciTegic.value.DoubleValue
-10.005

@<SCITEGIC>MOL_PROPERTY
VdW12
SciTegic.value.DoubleValue
10.915

@<SCITEGIC>MOL_PROPERTY
Bond
SciTegic.value.DoubleValue
0.309

@<SCITEGIC>MOL_PROPERTY
Angle
SciTegic.value.DoubleValue
1.846

@<SCITEGIC>MOL_PROPERTY
Pdih
SciTegic.value.DoubleValue
6.039

@<SCITEGIC>MOL_PROPERTY
Idih
SciTegic.value.DoubleValue
0.000

@<SCITEGIC>MOL_PROPERTY
Tether
SciTegic.value.DoubleValue
0.000

@<TRIPOS>MOLECULE
guest-3_vm2.mol2 : vm2 ligand conformer 448
          29          28           1
SMALL
USER_CHARGES
 
@<TRIPOS>ATOM
       1    C1      20.744173   17.821530   21.818495 C.3        1 MOL1        -0.2427
       2    H1      21.461006   18.608714   21.551461 H          1 MOL1         0.0958
       3    H2      20.673218   17.769112   22.911519 H          1 MOL1         0.0958
       4    H3      21.152010   16.863758   21.470404 H          1 MOL1         0.0958
       5    C2      19.364059   18.084682   21.177636 C.3        1 MOL1        -0.1412
       6    H4      18.655163   17.313489   21.509870 H          1 MOL1         0.0947
       7    H5      19.453637   17.966386   20.088749 H          1 MOL1         0.0947
       8    C3      18.779214   19.489679   21.472559 C.3        1 MOL1        -0.1437
       9    H6      19.434864   20.267170   21.056983 H          1 MOL1         0.0947
      10    H7      17.832102   19.575368   20.922129 H          1 MOL1         0.0947
      11    C4      18.493726   19.768869   22.970841 C.3        1 MOL1        -0.1437
      12    H8      18.239383   18.831037   23.477336 H          1 MOL1         0.0947
      13    H9      17.595514   20.397826   23.040432 H          1 MOL1         0.0947
      14    C5      19.652024   20.510593   23.688302 C.3        1 MOL1        -0.1437
      15    H10     20.605584   19.986386   23.554748 H          1 MOL1         0.0947
      16    H11     19.779530   21.486796   23.200387 H          1 MOL1         0.0947
      17    C6      19.394021   20.752715   25.198006 C.3        1 MOL1        -0.1437
      18    H12     18.323148   20.918186   25.380206 H          1 MOL1         0.0947
      19    H13     19.893293   21.688604   25.484814 H          1 MOL1         0.0947
      20    C7      19.928798   19.633970   26.127181 C.3        1 MOL1        -0.1477
      21    H14     21.013784   19.532731   25.991337 H          1 MOL1         0.0947
      22    H15     19.773577   19.940305   27.170241 H          1 MOL1         0.0947
      23    C8      19.256884   18.267806   25.904424 C.3        1 MOL1         0.0145
      24    H16     19.472767   17.912557   24.893958 H          1 MOL1         0.0921
      25    H17     18.173656   18.367373   26.014089 H          1 MOL1         0.0921
      26    N1      19.731102   17.208157   26.877556 N.4        1 MOL1        -0.5969
      27    H18     20.741583   17.049285   26.806642 H          1 MOL1         0.3603
      28    H19     19.273503   16.305205   26.710776 H          1 MOL1         0.3603
      29    H20     19.533929   17.467702   27.849763 H          1 MOL1         0.3603
@<TRIPOS>BOND
    1     1     2    1
    2     1     3    1
    3     1     4    1
    4     1     5    1
    5     5     6    1
    6     5     7    1
    7     5     8    1
    8     8     9    1
    9     8    10    1
   10     8    11    1
   11    11    12    1
   12    11    13    1
   13    11    14    1
   14    14    15    1
   15    14    16    1
   16    14    17    1
   17    17    18    1
   18    17    19    1
   19    17    20    1
   20    20    21    1
   21    20    22    1
   22    20    23    1
   23    23    24    1
   24    23    25    1
   25    23    26    1
   26    26    27    1
   27    26    28    1
   28    26    29    1
@<TRIPOS>SUBSTRUCTURE
       1 MOL1            1 RESIDUE      1      MOL     
@<SCITEGIC>MOL_PROPERTY
VM2 Rank
SciTegic.value.IntegerValue
448

@<SCITEGIC>MOL_PROPERTY
Conf_Id
SciTegic.value.IntegerValue
1317

@<SCITEGIC>MOL_PROPERTY
Probability
SciTegic.value.DoubleValue
0.00

@<SCITEGIC>MOL_PROPERTY
Sum Probability
SciTegic.value.DoubleValue
100.00

@<SCITEGIC>MOL_PROPERTY
Delta G
SciTegic.value.DoubleValue
6.408

@<SCITEGIC>MOL_PROPERTY
G
SciTegic.value.DoubleValue
64.554

@<SCITEGIC>MOL_PROPERTY
E
SciTegic.value.DoubleValue
26.451

@<SCITEGIC>MOL_PROPERTY
-TS
SciTegic.value.DoubleValue
38.103

@<SCITEGIC>MOL_PROPERTY
U+W
SciTegic.value.DoubleValue
2.306

@<SCITEGIC>MOL_PROPERTY
U
SciTegic.value.DoubleValue
54.948

@<SCITEGIC>MOL_PROPERTY
W
SciTegic.value.DoubleValue
-52.642

@<SCITEGIC>MOL_PROPERTY
W(PB)
SciTegic.value.DoubleValue
-55.027

@<SCITEGIC>MOL_PROPERTY
W(SA)
SciTegic.value.DoubleValue
2.384

@<SCITEGIC>MOL_PROPERTY
Valence
SciTegic.value.DoubleValue
8.055

@<SCITEGIC>MOL_PROPERTY
Coulomb
SciTegic.value.DoubleValue
46.364

@<SCITEGIC>MOL_PROPERTY
VdW
SciTegic.value.DoubleValue
0.529

@<SCITEGIC>MOL_PROPERTY
VdW6
SciTegic.value.DoubleValue
-10.581

@<SCITEGIC>MOL_PROPERTY
VdW12
SciTegic.value.DoubleValue
11.110

@<SCITEGIC>MOL_PROPERTY
Bond
SciTegic.value.DoubleValue
0.311

@<SCITEGIC>MOL_PROPERTY
Angle
SciTegic.value.DoubleValue
1.872

@<SCITEGIC>MOL_PROPERTY
Pdih
SciTegic.value.DoubleValue
5.872

@<SCITEGIC>MOL_PROPERTY
Idih
SciTegic.value.DoubleValue
0.000

@<SCITEGIC>MOL_PROPERTY
Tether
SciTegic.value.DoubleValue
0.000

@<TRIPOS>MOLECULE
guest-3_vm2.mol2 : vm2 ligand conformer 449
          29          28           1
SMALL
USER_CHARGES
 
@<TRIPOS>ATOM
       1    C1      19.930501   17.179496   21.151468 C.3        1 MOL1        -0.2427
       2    H1      20.188190   17.430859   20.114346 H          1 MOL1         0.0958
       3    H2      20.863177   16.998522   21.701458 H          1 MOL1         0.0958
       4    H3      19.359121   16.242286   21.139179 H          1 MOL1         0.0958
       5    C2      19.110058   18.309175   21.808610 C.3        1 MOL1        -0.1412
       6    H4      18.833227   18.006878   22.825050 H          1 MOL1         0.0947
       7    H5      18.168746   18.441408   21.257191 H          1 MOL1         0.0947
       8    C3      19.890905   19.645467   21.824888 C.3        1 MOL1        -0.1437
       9    H6      20.876522   19.517274   22.291461 H          1 MOL1         0.0947
      10    H7      20.089500   19.931993   20.782848 H          1 MOL1         0.0947
      11    C4      19.122049   20.803869   22.510261 C.3        1 MOL1        -0.1437
      12    H8      18.039777   20.677688   22.369447 H          1 MOL1         0.0947
      13    H9      19.378409   21.732658   21.982033 H          1 MOL1         0.0947
      14    C5      19.442179   21.029125   24.013244 C.3        1 MOL1        -0.1437
      15    H10     20.513486   21.234616   24.144464 H          1 MOL1         0.0947
      16    H11     18.928984   21.951520   24.318656 H          1 MOL1         0.0947
      17    C6      18.990735   19.898764   24.972918 C.3        1 MOL1        -0.1437
      18    H12     18.102334   19.394144   24.570394 H          1 MOL1         0.0947
      19    H13     18.671592   20.360877   25.916684 H          1 MOL1         0.0947
      20    C7      20.111321   18.875114   25.287503 C.3        1 MOL1        -0.1477
      21    H14     20.531540   18.472288   24.359605 H          1 MOL1         0.0947
      22    H15     20.939023   19.377452   25.805485 H          1 MOL1         0.0947
      23    C8      19.612862   17.695145   26.143357 C.3        1 MOL1         0.0145
      24    H16     20.423679   16.973240   26.273584 H          1 MOL1         0.0921
      25    H17     18.787440   17.192703   25.631901 H          1 MOL1         0.0921
      26    N1      19.133390   18.101845   27.522750 N.4        1 MOL1        -0.5969
      27    H18     19.874334   18.560621   28.062873 H          1 MOL1         0.3603
      28    H19     18.819252   17.293338   28.070587 H          1 MOL1         0.3603
      29    H20     18.345663   18.755431   27.472522 H          1 MOL1         0.3603
@<TRIPOS>BOND
    1     1     2    1
    2     1     3    1
    3     1     4    1
    4     1     5    1
    5     5     6    1
    6     5     7    1
    7     5     8    1
    8     8     9    1
    9     8    10    1
   10     8    11    1
   11    11    12    1
   12    11    13    1
   13    11    14    1
   14    14    15    1
   15    14    16    1
   16    14    17    1
   17    17    18    1
   18    17    19    1
   19    17    20    1
   20    20    21    1
   21    20    22    1
   22    20    23    1
   23    23    24    1
   24    23    25    1
   25    23    26    1
   26    26    27    1
   27    26    28    1
   28    26    29    1
@<TRIPOS>SUBSTRUCTURE
       1 MOL1            1 RESIDUE      1      MOL     
@<SCITEGIC>MOL_PROPERTY
VM2 Rank
SciTegic.value.IntegerValue
449

@<SCITEGIC>MOL_PROPERTY
Conf_Id
SciTegic.value.IntegerValue
2553

@<SCITEGIC>MOL_PROPERTY
Probability
SciTegic.value.DoubleValue
0.00

@<SCITEGIC>MOL_PROPERTY
Sum Probability
SciTegic.value.DoubleValue
100.00

@<SCITEGIC>MOL_PROPERTY
Delta G
SciTegic.value.DoubleValue
6.458

@<SCITEGIC>MOL_PROPERTY
G
SciTegic.value.DoubleValue
64.605

@<SCITEGIC>MOL_PROPERTY
E
SciTegic.value.DoubleValue
26.379

@<SCITEGIC>MOL_PROPERTY
-TS
SciTegic.value.DoubleValue
38.226

@<SCITEGIC>MOL_PROPERTY
U+W
SciTegic.value.DoubleValue
2.234

@<SCITEGIC>MOL_PROPERTY
U
SciTegic.value.DoubleValue
54.669

@<SCITEGIC>MOL_PROPERTY
W
SciTegic.value.DoubleValue
-52.435

@<SCITEGIC>MOL_PROPERTY
W(PB)
SciTegic.value.DoubleValue
-54.812

@<SCITEGIC>MOL_PROPERTY
W(SA)
SciTegic.value.DoubleValue
2.377

@<SCITEGIC>MOL_PROPERTY
Valence
SciTegic.value.DoubleValue
8.314

@<SCITEGIC>MOL_PROPERTY
Coulomb
SciTegic.value.DoubleValue
45.816

@<SCITEGIC>MOL_PROPERTY
VdW
SciTegic.value.DoubleValue
0.539

@<SCITEGIC>MOL_PROPERTY
VdW6
SciTegic.value.DoubleValue
-10.654

@<SCITEGIC>MOL_PROPERTY
VdW12
SciTegic.value.DoubleValue
11.193

@<SCITEGIC>MOL_PROPERTY
Bond
SciTegic.value.DoubleValue
0.310

@<SCITEGIC>MOL_PROPERTY
Angle
SciTegic.value.DoubleValue
1.974

@<SCITEGIC>MOL_PROPERTY
Pdih
SciTegic.value.DoubleValue
6.030

@<SCITEGIC>MOL_PROPERTY
Idih
SciTegic.value.DoubleValue
0.000

@<SCITEGIC>MOL_PROPERTY
Tether
SciTegic.value.DoubleValue
0.000

@<TRIPOS>MOLECULE
guest-3_vm2.mol2 : vm2 ligand conformer 450
          29          28           1
SMALL
USER_CHARGES
 
@<TRIPOS>ATOM
       1    C1      19.286530   18.102141   20.352680 C.3        1 MOL1        -0.2427
       2    H1      18.350302   18.671633   20.406335 H          1 MOL1         0.0958
       3    H2      20.021005   18.698545   19.796031 H          1 MOL1         0.0958
       4    H3      19.086233   17.190765   19.774612 H          1 MOL1         0.0958
       5    C2      19.813765   17.744906   21.760655 C.3        1 MOL1        -0.1412
       6    H4      20.682570   17.080078   21.656348 H          1 MOL1         0.0947
       7    H5      19.051039   17.171265   22.305400 H          1 MOL1         0.0947
       8    C3      20.230605   18.981658   22.591933 C.3        1 MOL1        -0.1437
       9    H6      20.688344   18.634602   23.525591 H          1 MOL1         0.0947
      10    H7      21.018039   19.531632   22.058478 H          1 MOL1         0.0947
      11    C4      19.052091   19.940728   22.899908 C.3        1 MOL1        -0.1437
      12    H8      18.176121   19.383811   23.257900 H          1 MOL1         0.0947
      13    H9      18.741178   20.416860   21.960430 H          1 MOL1         0.0947
      14    C5      19.423810   21.058026   23.907799 C.3        1 MOL1        -0.1437
      15    H10     20.497238   21.284134   23.845508 H          1 MOL1         0.0947
      16    H11     18.913080   21.978742   23.593326 H          1 MOL1         0.0947
      17    C6      19.021031   20.789133   25.383303 C.3        1 MOL1        -0.1437
      18    H12     17.931610   20.666682   25.458623 H          1 MOL1         0.0947
      19    H13     19.255938   21.695949   25.957675 H          1 MOL1         0.0947
      20    C7      19.733393   19.596152   26.067599 C.3        1 MOL1        -0.1477
      21    H14     20.787535   19.561419   25.763237 H          1 MOL1         0.0947
      22    H15     19.731596   19.765553   27.152609 H          1 MOL1         0.0947
      23    C8      19.045380   18.244417   25.795778 C.3        1 MOL1         0.0145
      24    H16     19.025400   18.040616   24.723561 H          1 MOL1         0.0921
      25    H17     18.013741   18.279582   26.156017 H          1 MOL1         0.0921
      26    N1      19.737394   17.080837   26.475345 N.4        1 MOL1        -0.5969
      27    H18     20.707448   16.976109   26.160589 H          1 MOL1         0.3603
      28    H19     19.262651   16.191489   26.285225 H          1 MOL1         0.3603
      29    H20     19.761236   17.194366   27.494142 H          1 MOL1         0.3603
@<TRIPOS>BOND
    1     1     2    1
    2     1     3    1
    3     1     4    1
    4     1     5    1
    5     5     6    1
    6     5     7    1
    7     5     8    1
    8     8     9    1
    9     8    10    1
   10     8    11    1
   11    11    12    1
   12    11    13    1
   13    11    14    1
   14    14    15    1
   15    14    16    1
   16    14    17    1
   17    17    18    1
   18    17    19    1
   19    17    20    1
   20    20    21    1
   21    20    22    1
   22    20    23    1
   23    23    24    1
   24    23    25    1
   25    23    26    1
   26    26    27    1
   27    26    28    1
   28    26    29    1
@<TRIPOS>SUBSTRUCTURE
       1 MOL1            1 RESIDUE      1      MOL     
@<SCITEGIC>MOL_PROPERTY
VM2 Rank
SciTegic.value.IntegerValue
450

@<SCITEGIC>MOL_PROPERTY
Conf_Id
SciTegic.value.IntegerValue
1664

@<SCITEGIC>MOL_PROPERTY
Probability
SciTegic.value.DoubleValue
0.00

@<SCITEGIC>MOL_PROPERTY
Sum Probability
SciTegic.value.DoubleValue
100.00

@<SCITEGIC>MOL_PROPERTY
Delta G
SciTegic.value.DoubleValue
6.467

@<SCITEGIC>MOL_PROPERTY
G
SciTegic.value.DoubleValue
64.613

@<SCITEGIC>MOL_PROPERTY
E
SciTegic.value.DoubleValue
26.326

@<SCITEGIC>MOL_PROPERTY
-TS
SciTegic.value.DoubleValue
38.288

@<SCITEGIC>MOL_PROPERTY
U+W
SciTegic.value.DoubleValue
2.181

@<SCITEGIC>MOL_PROPERTY
U
SciTegic.value.DoubleValue
55.153

@<SCITEGIC>MOL_PROPERTY
W
SciTegic.value.DoubleValue
-52.972

@<SCITEGIC>MOL_PROPERTY
W(PB)
SciTegic.value.DoubleValue
-55.365

@<SCITEGIC>MOL_PROPERTY
W(SA)
SciTegic.value.DoubleValue
2.393

@<SCITEGIC>MOL_PROPERTY
Valence
SciTegic.value.DoubleValue
7.994

@<SCITEGIC>MOL_PROPERTY
Coulomb
SciTegic.value.DoubleValue
46.762

@<SCITEGIC>MOL_PROPERTY
VdW
SciTegic.value.DoubleValue
0.397

@<SCITEGIC>MOL_PROPERTY
VdW6
SciTegic.value.DoubleValue
-11.059

@<SCITEGIC>MOL_PROPERTY
VdW12
SciTegic.value.DoubleValue
11.456

@<SCITEGIC>MOL_PROPERTY
Bond
SciTegic.value.DoubleValue
0.302

@<SCITEGIC>MOL_PROPERTY
Angle
SciTegic.value.DoubleValue
1.955

@<SCITEGIC>MOL_PROPERTY
Pdih
SciTegic.value.DoubleValue
5.737

@<SCITEGIC>MOL_PROPERTY
Idih
SciTegic.value.DoubleValue
0.000

@<SCITEGIC>MOL_PROPERTY
Tether
SciTegic.value.DoubleValue
0.000

@<TRIPOS>MOLECULE
guest-3_vm2.mol2 : vm2 ligand conformer 451
          29          28           1
SMALL
USER_CHARGES
 
@<TRIPOS>ATOM
       1    C1      21.056556   20.342104   21.222241 C.3        1 MOL1        -0.2427
       2    H1      21.885984   19.871112   21.765695 H          1 MOL1         0.0958
       3    H2      21.112118   20.025956   20.172397 H          1 MOL1         0.0958
       4    H3      21.205975   21.429103   21.255321 H          1 MOL1         0.0958
       5    C2      19.697721   19.959748   21.845544 C.3        1 MOL1        -0.1412
       6    H4      18.892403   20.473916   21.302671 H          1 MOL1         0.0947
       7    H5      19.659762   20.328315   22.876992 H          1 MOL1         0.0947
       8    C3      19.458534   18.431299   21.797722 C.3        1 MOL1        -0.1437
       9    H6      19.446102   18.125396   20.742424 H          1 MOL1         0.0947
      10    H7      20.296877   17.889386   22.254972 H          1 MOL1         0.0947
      11    C4      18.121201   17.992966   22.447473 C.3        1 MOL1        -0.1437
      12    H8      17.740624   17.132896   21.879286 H          1 MOL1         0.0947
      13    H9      17.364033   18.779901   22.327096 H          1 MOL1         0.0947
      14    C5      18.205905   17.556759   23.935670 C.3        1 MOL1        -0.1437
      15    H10     17.221176   17.154682   24.211535 H          1 MOL1         0.0947
      16    H11     18.904631   16.715746   24.043469 H          1 MOL1         0.0947
      17    C6      18.556508   18.679021   24.945670 C.3        1 MOL1        -0.1437
      18    H12     18.003918   18.485442   25.874790 H          1 MOL1         0.0947
      19    H13     18.192363   19.646853   24.576051 H          1 MOL1         0.0947
      20    C7      20.067258   18.751189   25.284734 C.3        1 MOL1        -0.1477
      21    H14     20.384145   17.818906   25.770705 H          1 MOL1         0.0947
      22    H15     20.660526   18.834334   24.367690 H          1 MOL1         0.0947
      23    C8      20.414227   19.945710   26.193589 C.3        1 MOL1         0.0145
      24    H16     20.099176   20.876380   25.714053 H          1 MOL1         0.0921
      25    H17     21.496858   19.987187   26.340962 H          1 MOL1         0.0921
      26    N1      19.766091   19.879205   27.562356 N.4        1 MOL1        -0.5969
      27    H18     18.743380   19.872811   27.497295 H          1 MOL1         0.3603
      28    H19     20.025568   20.681936   28.146125 H          1 MOL1         0.3603
      29    H20     20.042891   19.034608   28.073478 H          1 MOL1         0.3603
@<TRIPOS>BOND
    1     1     2    1
    2     1     3    1
    3     1     4    1
    4     1     5    1
    5     5     6    1
    6     5     7    1
    7     5     8    1
    8     8     9    1
    9     8    10    1
   10     8    11    1
   11    11    12    1
   12    11    13    1
   13    11    14    1
   14    14    15    1
   15    14    16    1
   16    14    17    1
   17    17    18    1
   18    17    19    1
   19    17    20    1
   20    20    21    1
   21    20    22    1
   22    20    23    1
   23    23    24    1
   24    23    25    1
   25    23    26    1
   26    26    27    1
   27    26    28    1
   28    26    29    1
@<TRIPOS>SUBSTRUCTURE
       1 MOL1            1 RESIDUE      1      MOL     
@<SCITEGIC>MOL_PROPERTY
VM2 Rank
SciTegic.value.IntegerValue
451

@<SCITEGIC>MOL_PROPERTY
Conf_Id
SciTegic.value.IntegerValue
2881

@<SCITEGIC>MOL_PROPERTY
Probability
SciTegic.value.DoubleValue
0.00

@<SCITEGIC>MOL_PROPERTY
Sum Probability
SciTegic.value.DoubleValue
100.00

@<SCITEGIC>MOL_PROPERTY
Delta G
SciTegic.value.DoubleValue
6.501

@<SCITEGIC>MOL_PROPERTY
G
SciTegic.value.DoubleValue
64.648

@<SCITEGIC>MOL_PROPERTY
E
SciTegic.value.DoubleValue
26.422

@<SCITEGIC>MOL_PROPERTY
-TS
SciTegic.value.DoubleValue
38.226

@<SCITEGIC>MOL_PROPERTY
U+W
SciTegic.value.DoubleValue
2.277

@<SCITEGIC>MOL_PROPERTY
U
SciTegic.value.DoubleValue
54.669

@<SCITEGIC>MOL_PROPERTY
W
SciTegic.value.DoubleValue
-52.392

@<SCITEGIC>MOL_PROPERTY
W(PB)
SciTegic.value.DoubleValue
-54.784

@<SCITEGIC>MOL_PROPERTY
W(SA)
SciTegic.value.DoubleValue
2.392

@<SCITEGIC>MOL_PROPERTY
Valence
SciTegic.value.DoubleValue
8.314

@<SCITEGIC>MOL_PROPERTY
Coulomb
SciTegic.value.DoubleValue
45.816

@<SCITEGIC>MOL_PROPERTY
VdW
SciTegic.value.DoubleValue
0.539

@<SCITEGIC>MOL_PROPERTY
VdW6
SciTegic.value.DoubleValue
-10.655

@<SCITEGIC>MOL_PROPERTY
VdW12
SciTegic.value.DoubleValue
11.194

@<SCITEGIC>MOL_PROPERTY
Bond
SciTegic.value.DoubleValue
0.310

@<SCITEGIC>MOL_PROPERTY
Angle
SciTegic.value.DoubleValue
1.974

@<SCITEGIC>MOL_PROPERTY
Pdih
SciTegic.value.DoubleValue
6.030

@<SCITEGIC>MOL_PROPERTY
Idih
SciTegic.value.DoubleValue
0.000

@<SCITEGIC>MOL_PROPERTY
Tether
SciTegic.value.DoubleValue
0.000

@<TRIPOS>MOLECULE
guest-3_vm2.mol2 : vm2 ligand conformer 452
          29          28           1
SMALL
USER_CHARGES
 
@<TRIPOS>ATOM
       1    C1      20.078244   17.421042   21.513400 C.3        1 MOL1        -0.2427
       2    H1      19.272385   17.243020   22.236016 H          1 MOL1         0.0958
       3    H2      20.128102   16.543061   20.856484 H          1 MOL1         0.0958
       4    H3      21.029597   17.488302   22.056584 H          1 MOL1         0.0958
       5    C2      19.817131   18.698567   20.686136 C.3        1 MOL1        -0.1412
       6    H4      18.830143   18.627416   20.208138 H          1 MOL1         0.0947
       7    H5      20.548857   18.743155   19.867413 H          1 MOL1         0.0947
       8    C3      19.907396   20.016356   21.497395 C.3        1 MOL1        -0.1437
       9    H6      20.923245   20.146415   21.895093 H          1 MOL1         0.0947
      10    H7      19.756554   20.847272   20.794414 H          1 MOL1         0.0947
      11    C4      18.861700   20.151362   22.634838 C.3        1 MOL1        -0.1437
      12    H8      17.952862   19.589336   22.379291 H          1 MOL1         0.0947
      13    H9      18.558182   21.205156   22.703772 H          1 MOL1         0.0947
      14    C5      19.398037   19.711515   24.018840 C.3        1 MOL1        -0.1437
      15    H10     19.746600   18.675908   23.964276 H          1 MOL1         0.0947
      16    H11     20.264614   20.332000   24.285627 H          1 MOL1         0.0947
      17    C6      18.315240   19.835561   25.116464 C.3        1 MOL1        -0.1437
      18    H12     17.496381   19.134535   24.903276 H          1 MOL1         0.0947
      19    H13     17.876249   20.841871   25.071857 H          1 MOL1         0.0947
      20    C7      18.833695   19.599078   26.558009 C.3        1 MOL1        -0.1477
      21    H14     19.609684   20.333831   26.810693 H          1 MOL1         0.0947
      22    H15     18.002228   19.789034   27.249684 H          1 MOL1         0.0947
      23    C8      19.350828   18.170497   26.826219 C.3        1 MOL1         0.0145
      24    H16     18.706524   17.442330   26.326294 H          1 MOL1         0.0921
      25    H17     19.313906   17.974549   27.901261 H          1 MOL1         0.0921
      26    N1      20.781730   17.934020   26.383699 N.4        1 MOL1        -0.5969
      27    H18     20.899963   18.095188   25.379532 H          1 MOL1         0.3603
      28    H19     21.084816   16.972773   26.575672 H          1 MOL1         0.3603
      29    H20     21.435788   18.556253   26.869973 H          1 MOL1         0.3603
@<TRIPOS>BOND
    1     1     2    1
    2     1     3    1
    3     1     4    1
    4     1     5    1
    5     5     6    1
    6     5     7    1
    7     5     8    1
    8     8     9    1
    9     8    10    1
   10     8    11    1
   11    11    12    1
   12    11    13    1
   13    11    14    1
   14    14    15    1
   15    14    16    1
   16    14    17    1
   17    17    18    1
   18    17    19    1
   19    17    20    1
   20    20    21    1
   21    20    22    1
   22    20    23    1
   23    23    24    1
   24    23    25    1
   25    23    26    1
   26    26    27    1
   27    26    28    1
   28    26    29    1
@<TRIPOS>SUBSTRUCTURE
       1 MOL1            1 RESIDUE      1      MOL     
@<SCITEGIC>MOL_PROPERTY
VM2 Rank
SciTegic.value.IntegerValue
452

@<SCITEGIC>MOL_PROPERTY
Conf_Id
SciTegic.value.IntegerValue
2254

@<SCITEGIC>MOL_PROPERTY
Probability
SciTegic.value.DoubleValue
0.00

@<SCITEGIC>MOL_PROPERTY
Sum Probability
SciTegic.value.DoubleValue
100.00

@<SCITEGIC>MOL_PROPERTY
Delta G
SciTegic.value.DoubleValue
6.533

@<SCITEGIC>MOL_PROPERTY
G
SciTegic.value.DoubleValue
64.679

@<SCITEGIC>MOL_PROPERTY
E
SciTegic.value.DoubleValue
26.977

@<SCITEGIC>MOL_PROPERTY
-TS
SciTegic.value.DoubleValue
37.702

@<SCITEGIC>MOL_PROPERTY
U+W
SciTegic.value.DoubleValue
2.832

@<SCITEGIC>MOL_PROPERTY
U
SciTegic.value.DoubleValue
55.032

@<SCITEGIC>MOL_PROPERTY
W
SciTegic.value.DoubleValue
-52.200

@<SCITEGIC>MOL_PROPERTY
W(PB)
SciTegic.value.DoubleValue
-54.591

@<SCITEGIC>MOL_PROPERTY
W(SA)
SciTegic.value.DoubleValue
2.391

@<SCITEGIC>MOL_PROPERTY
Valence
SciTegic.value.DoubleValue
7.133

@<SCITEGIC>MOL_PROPERTY
Coulomb
SciTegic.value.DoubleValue
47.193

@<SCITEGIC>MOL_PROPERTY
VdW
SciTegic.value.DoubleValue
0.706

@<SCITEGIC>MOL_PROPERTY
VdW6
SciTegic.value.DoubleValue
-10.154

@<SCITEGIC>MOL_PROPERTY
VdW12
SciTegic.value.DoubleValue
10.860

@<SCITEGIC>MOL_PROPERTY
Bond
SciTegic.value.DoubleValue
0.291

@<SCITEGIC>MOL_PROPERTY
Angle
SciTegic.value.DoubleValue
1.686

@<SCITEGIC>MOL_PROPERTY
Pdih
SciTegic.value.DoubleValue
5.156

@<SCITEGIC>MOL_PROPERTY
Idih
SciTegic.value.DoubleValue
0.000

@<SCITEGIC>MOL_PROPERTY
Tether
SciTegic.value.DoubleValue
0.000

@<TRIPOS>MOLECULE
guest-3_vm2.mol2 : vm2 ligand conformer 453
          29          28           1
SMALL
USER_CHARGES
 
@<TRIPOS>ATOM
       1    C1      21.168232   20.187298   21.841246 C.3        1 MOL1        -0.2427
       2    H1      21.785867   19.946633   22.715899 H          1 MOL1         0.0958
       3    H2      21.832905   20.581407   21.061646 H          1 MOL1         0.0958
       4    H3      20.474385   20.990092   22.118736 H          1 MOL1         0.0958
       5    C2      20.418963   18.936310   21.328795 C.3        1 MOL1        -0.1412
       6    H4      21.158107   18.203886   20.975329 H          1 MOL1         0.0947
       7    H5      19.806924   19.201377   20.455397 H          1 MOL1         0.0947
       8    C3      19.533178   18.267028   22.406522 C.3        1 MOL1        -0.1437
       9    H6      19.176600   17.304906   22.013711 H          1 MOL1         0.0947
      10    H7      20.146769   18.024337   23.281695 H          1 MOL1         0.0947
      11    C4      18.304275   19.122019   22.811162 C.3        1 MOL1        -0.1437
      12    H8      17.687192   19.271204   21.914435 H          1 MOL1         0.0947
      13    H9      18.601815   20.125937   23.137545 H          1 MOL1         0.0947
      14    C5      17.429872   18.452603   23.902192 C.3        1 MOL1        -0.1437
      15    H10     16.378262   18.677054   23.676003 H          1 MOL1         0.0947
      16    H11     17.514555   17.358988   23.839323 H          1 MOL1         0.0947
      17    C6      17.698486   18.922540   25.357702 C.3        1 MOL1        -0.1437
      18    H12     16.959409   18.428532   26.003543 H          1 MOL1         0.0947
      19    H13     17.495853   19.998794   25.447905 H          1 MOL1         0.0947
      20    C7      19.107270   18.603686   25.916466 C.3        1 MOL1        -0.1477
      21    H14     19.042612   18.540946   27.010911 H          1 MOL1         0.0947
      22    H15     19.435652   17.615162   25.569964 H          1 MOL1         0.0947
      23    C8      20.152820   19.678535   25.562019 C.3        1 MOL1         0.0145
      24    H16     19.838574   20.643392   25.968945 H          1 MOL1         0.0921
      25    H17     20.237742   19.777052   24.478286 H          1 MOL1         0.0921
      26    N1      21.530903   19.367981   26.108896 N.4        1 MOL1        -0.5969
      27    H18     21.896908   18.482939   25.743246 H          1 MOL1         0.3603
      28    H19     21.525930   19.292776   27.131495 H          1 MOL1         0.3603
      29    H20     22.210309   20.097453   25.866855 H          1 MOL1         0.3603
@<TRIPOS>BOND
    1     1     2    1
    2     1     3    1
    3     1     4    1
    4     1     5    1
    5     5     6    1
    6     5     7    1
    7     5     8    1
    8     8     9    1
    9     8    10    1
   10     8    11    1
   11    11    12    1
   12    11    13    1
   13    11    14    1
   14    14    15    1
   15    14    16    1
   16    14    17    1
   17    17    18    1
   18    17    19    1
   19    17    20    1
   20    20    21    1
   21    20    22    1
   22    20    23    1
   23    23    24    1
   24    23    25    1
   25    23    26    1
   26    26    27    1
   27    26    28    1
   28    26    29    1
@<TRIPOS>SUBSTRUCTURE
       1 MOL1            1 RESIDUE      1      MOL     
@<SCITEGIC>MOL_PROPERTY
VM2 Rank
SciTegic.value.IntegerValue
453

@<SCITEGIC>MOL_PROPERTY
Conf_Id
SciTegic.value.IntegerValue
1628

@<SCITEGIC>MOL_PROPERTY
Probability
SciTegic.value.DoubleValue
0.00

@<SCITEGIC>MOL_PROPERTY
Sum Probability
SciTegic.value.DoubleValue
100.00

@<SCITEGIC>MOL_PROPERTY
Delta G
SciTegic.value.DoubleValue
6.635

@<SCITEGIC>MOL_PROPERTY
G
SciTegic.value.DoubleValue
64.781

@<SCITEGIC>MOL_PROPERTY
E
SciTegic.value.DoubleValue
26.297

@<SCITEGIC>MOL_PROPERTY
-TS
SciTegic.value.DoubleValue
38.485

@<SCITEGIC>MOL_PROPERTY
U+W
SciTegic.value.DoubleValue
2.152

@<SCITEGIC>MOL_PROPERTY
U
SciTegic.value.DoubleValue
55.257

@<SCITEGIC>MOL_PROPERTY
W
SciTegic.value.DoubleValue
-53.105

@<SCITEGIC>MOL_PROPERTY
W(PB)
SciTegic.value.DoubleValue
-55.450

@<SCITEGIC>MOL_PROPERTY
W(SA)
SciTegic.value.DoubleValue
2.345

@<SCITEGIC>MOL_PROPERTY
Valence
SciTegic.value.DoubleValue
8.021

@<SCITEGIC>MOL_PROPERTY
Coulomb
SciTegic.value.DoubleValue
47.172

@<SCITEGIC>MOL_PROPERTY
VdW
SciTegic.value.DoubleValue
0.064

@<SCITEGIC>MOL_PROPERTY
VdW6
SciTegic.value.DoubleValue
-11.633

@<SCITEGIC>MOL_PROPERTY
VdW12
SciTegic.value.DoubleValue
11.697

@<SCITEGIC>MOL_PROPERTY
Bond
SciTegic.value.DoubleValue
0.307

@<SCITEGIC>MOL_PROPERTY
Angle
SciTegic.value.DoubleValue
2.028

@<SCITEGIC>MOL_PROPERTY
Pdih
SciTegic.value.DoubleValue
5.686

@<SCITEGIC>MOL_PROPERTY
Idih
SciTegic.value.DoubleValue
0.000

@<SCITEGIC>MOL_PROPERTY
Tether
SciTegic.value.DoubleValue
0.000

@<TRIPOS>MOLECULE
guest-3_vm2.mol2 : vm2 ligand conformer 454
          29          28           1
SMALL
USER_CHARGES
 
@<TRIPOS>ATOM
       1    C1      20.860491   18.803306   20.692965 C.3        1 MOL1        -0.2427
       2    H1      21.418553   18.194098   21.415599 H          1 MOL1         0.0958
       3    H2      21.303620   18.638925   19.702287 H          1 MOL1         0.0958
       4    H3      21.002661   19.861283   20.946280 H          1 MOL1         0.0958
       5    C2      19.363416   18.423705   20.684937 C.3        1 MOL1        -0.1412
       6    H4      19.261929   17.396527   20.307741 H          1 MOL1         0.0947
       7    H5      18.827837   19.064641   19.970772 H          1 MOL1         0.0947
       8    C3      18.681369   18.510125   22.073944 C.3        1 MOL1        -0.1437
       9    H6      17.647698   18.155584   21.960376 H          1 MOL1         0.0947
      10    H7      19.163945   17.808189   22.765430 H          1 MOL1         0.0947
      11    C4      18.640011   19.940100   22.678100 C.3        1 MOL1        -0.1437
      12    H8      17.695235   20.079424   23.221195 H          1 MOL1         0.0947
      13    H9      18.612858   20.672301   21.859455 H          1 MOL1         0.0947
      14    C5      19.823304   20.273547   23.626664 C.3        1 MOL1        -0.1437
      15    H10     20.723425   19.717222   23.336599 H          1 MOL1         0.0947
      16    H11     20.075291   21.335364   23.499634 H          1 MOL1         0.0947
      17    C6      19.526191   20.037142   25.129904 C.3        1 MOL1        -0.1437
      18    H12     18.677297   20.663661   25.436884 H          1 MOL1         0.0947
      19    H13     20.391277   20.389917   25.706623 H          1 MOL1         0.0947
      20    C7      19.233896   18.560455   25.492392 C.3        1 MOL1        -0.1477
      21    H14     18.335629   18.222648   24.960598 H          1 MOL1         0.0947
      22    H15     20.061331   17.919676   25.160211 H          1 MOL1         0.0947
      23    C8      18.997390   18.354286   27.000905 C.3        1 MOL1         0.0145
      24    H16     18.698567   17.318284   27.182352 H          1 MOL1         0.0921
      25    H17     18.188163   19.006963   27.339346 H          1 MOL1         0.0921
      26    N1      20.217932   18.635334   27.855188 N.4        1 MOL1        -0.5969
      27    H18     21.008289   18.034699   27.598681 H          1 MOL1         0.3603
      28    H19     20.030445   18.475627   28.851127 H          1 MOL1         0.3603
      29    H20     20.531662   19.606299   27.760653 H          1 MOL1         0.3603
@<TRIPOS>BOND
    1     1     2    1
    2     1     3    1
    3     1     4    1
    4     1     5    1
    5     5     6    1
    6     5     7    1
    7     5     8    1
    8     8     9    1
    9     8    10    1
   10     8    11    1
   11    11    12    1
   12    11    13    1
   13    11    14    1
   14    14    15    1
   15    14    16    1
   16    14    17    1
   17    17    18    1
   18    17    19    1
   19    17    20    1
   20    20    21    1
   21    20    22    1
   22    20    23    1
   23    23    24    1
   24    23    25    1
   25    23    26    1
   26    26    27    1
   27    26    28    1
   28    26    29    1
@<TRIPOS>SUBSTRUCTURE
       1 MOL1            1 RESIDUE      1      MOL     
@<SCITEGIC>MOL_PROPERTY
VM2 Rank
SciTegic.value.IntegerValue
454

@<SCITEGIC>MOL_PROPERTY
Conf_Id
SciTegic.value.IntegerValue
2259

@<SCITEGIC>MOL_PROPERTY
Probability
SciTegic.value.DoubleValue
0.00

@<SCITEGIC>MOL_PROPERTY
Sum Probability
SciTegic.value.DoubleValue
100.00

@<SCITEGIC>MOL_PROPERTY
Delta G
SciTegic.value.DoubleValue
6.649

@<SCITEGIC>MOL_PROPERTY
G
SciTegic.value.DoubleValue
64.796

@<SCITEGIC>MOL_PROPERTY
E
SciTegic.value.DoubleValue
26.659

@<SCITEGIC>MOL_PROPERTY
-TS
SciTegic.value.DoubleValue
38.137

@<SCITEGIC>MOL_PROPERTY
U+W
SciTegic.value.DoubleValue
2.514

@<SCITEGIC>MOL_PROPERTY
U
SciTegic.value.DoubleValue
54.607

@<SCITEGIC>MOL_PROPERTY
W
SciTegic.value.DoubleValue
-52.093

@<SCITEGIC>MOL_PROPERTY
W(PB)
SciTegic.value.DoubleValue
-54.496

@<SCITEGIC>MOL_PROPERTY
W(SA)
SciTegic.value.DoubleValue
2.403

@<SCITEGIC>MOL_PROPERTY
Valence
SciTegic.value.DoubleValue
8.265

@<SCITEGIC>MOL_PROPERTY
Coulomb
SciTegic.value.DoubleValue
45.348

@<SCITEGIC>MOL_PROPERTY
VdW
SciTegic.value.DoubleValue
0.995

@<SCITEGIC>MOL_PROPERTY
VdW6
SciTegic.value.DoubleValue
-10.708

@<SCITEGIC>MOL_PROPERTY
VdW12
SciTegic.value.DoubleValue
11.703

@<SCITEGIC>MOL_PROPERTY
Bond
SciTegic.value.DoubleValue
0.341

@<SCITEGIC>MOL_PROPERTY
Angle
SciTegic.value.DoubleValue
1.684

@<SCITEGIC>MOL_PROPERTY
Pdih
SciTegic.value.DoubleValue
6.240

@<SCITEGIC>MOL_PROPERTY
Idih
SciTegic.value.DoubleValue
0.000

@<SCITEGIC>MOL_PROPERTY
Tether
SciTegic.value.DoubleValue
0.000

@<TRIPOS>MOLECULE
guest-3_vm2.mol2 : vm2 ligand conformer 455
          29          28           1
SMALL
USER_CHARGES
 
@<TRIPOS>ATOM
       1    C1      20.657252   19.721334   20.775532 C.3        1 MOL1        -0.2427
       2    H1      21.121973   19.970584   21.737604 H          1 MOL1         0.0958
       3    H2      20.947697   18.698985   20.501238 H          1 MOL1         0.0958
       4    H3      21.074558   20.402363   20.022612 H          1 MOL1         0.0958
       5    C2      19.121032   19.864726   20.840646 C.3        1 MOL1        -0.1412
       6    H4      18.712651   19.747674   19.827133 H          1 MOL1         0.0947
       7    H5      18.863903   20.885464   21.156330 H          1 MOL1         0.0947
       8    C3      18.423826   18.842479   21.774282 C.3        1 MOL1        -0.1437
       9    H6      17.340518   19.008932   21.696192 H          1 MOL1         0.0947
      10    H7      18.593514   17.819756   21.410339 H          1 MOL1         0.0947
      11    C4      18.824545   18.956202   23.268062 C.3        1 MOL1        -0.1437
      12    H8      17.934457   18.739490   23.872231 H          1 MOL1         0.0947
      13    H9      19.117933   19.988962   23.500268 H          1 MOL1         0.0947
      14    C5      19.942904   17.966257   23.678859 C.3        1 MOL1        -0.1437
      15    H10     19.549523   16.941163   23.640633 H          1 MOL1         0.0947
      16    H11     20.755315   17.999680   22.943221 H          1 MOL1         0.0947
      17    C6      20.555364   18.230906   25.078526 C.3        1 MOL1        -0.1437
      18    H12     21.037453   19.216803   25.095925 H          1 MOL1         0.0947
      19    H13     21.367897   17.505503   25.223026 H          1 MOL1         0.0947
      20    C7      19.568818   18.081895   26.267732 C.3        1 MOL1        -0.1477
      21    H14     18.906148   17.224286   26.091562 H          1 MOL1         0.0947
      22    H15     20.139898   17.839233   27.173739 H          1 MOL1         0.0947
      23    C8      18.717407   19.335240   26.561046 C.3        1 MOL1         0.0145
      24    H16     18.014151   19.110745   27.367579 H          1 MOL1         0.0921
      25    H17     18.139490   19.617945   25.679741 H          1 MOL1         0.0921
      26    N1      19.532852   20.538961   26.990314 N.4        1 MOL1        -0.5969
      27    H18     20.078262   20.345863   27.836744 H          1 MOL1         0.3603
      28    H19     18.937456   21.348804   27.195457 H          1 MOL1         0.3603
      29    H20     20.194081   20.827626   26.262808 H          1 MOL1         0.3603
@<TRIPOS>BOND
    1     1     2    1
    2     1     3    1
    3     1     4    1
    4     1     5    1
    5     5     6    1
    6     5     7    1
    7     5     8    1
    8     8     9    1
    9     8    10    1
   10     8    11    1
   11    11    12    1
   12    11    13    1
   13    11    14    1
   14    14    15    1
   15    14    16    1
   16    14    17    1
   17    17    18    1
   18    17    19    1
   19    17    20    1
   20    20    21    1
   21    20    22    1
   22    20    23    1
   23    23    24    1
   24    23    25    1
   25    23    26    1
   26    26    27    1
   27    26    28    1
   28    26    29    1
@<TRIPOS>SUBSTRUCTURE
       1 MOL1            1 RESIDUE      1      MOL     
@<SCITEGIC>MOL_PROPERTY
VM2 Rank
SciTegic.value.IntegerValue
455

@<SCITEGIC>MOL_PROPERTY
Conf_Id
SciTegic.value.IntegerValue
2303

@<SCITEGIC>MOL_PROPERTY
Probability
SciTegic.value.DoubleValue
0.00

@<SCITEGIC>MOL_PROPERTY
Sum Probability
SciTegic.value.DoubleValue
100.00

@<SCITEGIC>MOL_PROPERTY
Delta G
SciTegic.value.DoubleValue
6.697

@<SCITEGIC>MOL_PROPERTY
G
SciTegic.value.DoubleValue
64.843

@<SCITEGIC>MOL_PROPERTY
E
SciTegic.value.DoubleValue
26.835

@<SCITEGIC>MOL_PROPERTY
-TS
SciTegic.value.DoubleValue
38.008

@<SCITEGIC>MOL_PROPERTY
U+W
SciTegic.value.DoubleValue
2.691

@<SCITEGIC>MOL_PROPERTY
U
SciTegic.value.DoubleValue
55.224

@<SCITEGIC>MOL_PROPERTY
W
SciTegic.value.DoubleValue
-52.534

@<SCITEGIC>MOL_PROPERTY
W(PB)
SciTegic.value.DoubleValue
-54.938

@<SCITEGIC>MOL_PROPERTY
W(SA)
SciTegic.value.DoubleValue
2.404

@<SCITEGIC>MOL_PROPERTY
Valence
SciTegic.value.DoubleValue
8.119

@<SCITEGIC>MOL_PROPERTY
Coulomb
SciTegic.value.DoubleValue
46.279

@<SCITEGIC>MOL_PROPERTY
VdW
SciTegic.value.DoubleValue
0.827

@<SCITEGIC>MOL_PROPERTY
VdW6
SciTegic.value.DoubleValue
-10.855

@<SCITEGIC>MOL_PROPERTY
VdW12
SciTegic.value.DoubleValue
11.682

@<SCITEGIC>MOL_PROPERTY
Bond
SciTegic.value.DoubleValue
0.330

@<SCITEGIC>MOL_PROPERTY
Angle
SciTegic.value.DoubleValue
2.068

@<SCITEGIC>MOL_PROPERTY
Pdih
SciTegic.value.DoubleValue
5.721

@<SCITEGIC>MOL_PROPERTY
Idih
SciTegic.value.DoubleValue
0.000

@<SCITEGIC>MOL_PROPERTY
Tether
SciTegic.value.DoubleValue
0.000

@<TRIPOS>MOLECULE
guest-3_vm2.mol2 : vm2 ligand conformer 456
          29          28           1
SMALL
USER_CHARGES
 
@<TRIPOS>ATOM
       1    C1      20.607609   19.763661   19.855229 C.3        1 MOL1        -0.2427
       2    H1      21.656366   19.740029   20.178934 H          1 MOL1         0.0958
       3    H2      20.397227   18.834820   19.309105 H          1 MOL1         0.0958
       4    H3      20.489848   20.600581   19.154700 H          1 MOL1         0.0958
       5    C2      19.658287   19.924945   21.061230 C.3        1 MOL1        -0.1412
       6    H4      18.620520   19.979651   20.703494 H          1 MOL1         0.0947
       7    H5      19.870031   20.877608   21.566649 H          1 MOL1         0.0947
       8    C3      19.803606   18.758271   22.062910 C.3        1 MOL1        -0.1437
       9    H6      19.591020   17.808675   21.552376 H          1 MOL1         0.0947
      10    H7      20.843872   18.704030   22.411926 H          1 MOL1         0.0947
      11    C4      18.854990   18.916983   23.272172 C.3        1 MOL1        -0.1437
      12    H8      17.816239   18.957628   22.915865 H          1 MOL1         0.0947
      13    H9      19.043986   19.878176   23.764084 H          1 MOL1         0.0947
      14    C5      18.999385   17.745686   24.274874 C.3        1 MOL1        -0.1437
      15    H10     18.656706   16.828993   23.774921 H          1 MOL1         0.0947
      16    H11     20.052910   17.568264   24.528565 H          1 MOL1         0.0947
      17    C6      18.164936   17.943123   25.566111 C.3        1 MOL1        -0.1437
      18    H12     17.777647   16.961980   25.874023 H          1 MOL1         0.0947
      19    H13     17.277662   18.555528   25.353631 H          1 MOL1         0.0947
      20    C7      18.940447   18.535263   26.773420 C.3        1 MOL1        -0.1477
      21    H14     18.252382   18.571264   27.628452 H          1 MOL1         0.0947
      22    H15     19.751445   17.857311   27.070998 H          1 MOL1         0.0947
      23    C8      19.500428   19.956473   26.562308 C.3        1 MOL1         0.0145
      24    H16     19.679357   20.418534   27.536952 H          1 MOL1         0.0921
      25    H17     18.770310   20.567617   26.025163 H          1 MOL1         0.0921
      26    N1      20.814313   19.993595   25.806745 N.4        1 MOL1        -0.5969
      27    H18     20.719790   19.570301   24.877686 H          1 MOL1         0.3603
      28    H19     21.551008   19.481609   26.303468 H          1 MOL1         0.3603
      29    H20     21.151632   20.953783   25.676048 H          1 MOL1         0.3603
@<TRIPOS>BOND
    1     1     2    1
    2     1     3    1
    3     1     4    1
    4     1     5    1
    5     5     6    1
    6     5     7    1
    7     5     8    1
    8     8     9    1
    9     8    10    1
   10     8    11    1
   11    11    12    1
   12    11    13    1
   13    11    14    1
   14    14    15    1
   15    14    16    1
   16    14    17    1
   17    17    18    1
   18    17    19    1
   19    17    20    1
   20    20    21    1
   21    20    22    1
   22    20    23    1
   23    23    24    1
   24    23    25    1
   25    23    26    1
   26    26    27    1
   27    26    28    1
   28    26    29    1
@<TRIPOS>SUBSTRUCTURE
       1 MOL1            1 RESIDUE      1      MOL     
@<SCITEGIC>MOL_PROPERTY
VM2 Rank
SciTegic.value.IntegerValue
456

@<SCITEGIC>MOL_PROPERTY
Conf_Id
SciTegic.value.IntegerValue
1655

@<SCITEGIC>MOL_PROPERTY
Probability
SciTegic.value.DoubleValue
0.00

@<SCITEGIC>MOL_PROPERTY
Sum Probability
SciTegic.value.DoubleValue
100.00

@<SCITEGIC>MOL_PROPERTY
Delta G
SciTegic.value.DoubleValue
6.710

@<SCITEGIC>MOL_PROPERTY
G
SciTegic.value.DoubleValue
64.857

@<SCITEGIC>MOL_PROPERTY
E
SciTegic.value.DoubleValue
26.881

@<SCITEGIC>MOL_PROPERTY
-TS
SciTegic.value.DoubleValue
37.976

@<SCITEGIC>MOL_PROPERTY
U+W
SciTegic.value.DoubleValue
2.736

@<SCITEGIC>MOL_PROPERTY
U
SciTegic.value.DoubleValue
54.340

@<SCITEGIC>MOL_PROPERTY
W
SciTegic.value.DoubleValue
-51.604

@<SCITEGIC>MOL_PROPERTY
W(PB)
SciTegic.value.DoubleValue
-54.030

@<SCITEGIC>MOL_PROPERTY
W(SA)
SciTegic.value.DoubleValue
2.426

@<SCITEGIC>MOL_PROPERTY
Valence
SciTegic.value.DoubleValue
6.615

@<SCITEGIC>MOL_PROPERTY
Coulomb
SciTegic.value.DoubleValue
47.220

@<SCITEGIC>MOL_PROPERTY
VdW
SciTegic.value.DoubleValue
0.504

@<SCITEGIC>MOL_PROPERTY
VdW6
SciTegic.value.DoubleValue
-10.122

@<SCITEGIC>MOL_PROPERTY
VdW12
SciTegic.value.DoubleValue
10.626

@<SCITEGIC>MOL_PROPERTY
Bond
SciTegic.value.DoubleValue
0.248

@<SCITEGIC>MOL_PROPERTY
Angle
SciTegic.value.DoubleValue
1.458

@<SCITEGIC>MOL_PROPERTY
Pdih
SciTegic.value.DoubleValue
4.909

@<SCITEGIC>MOL_PROPERTY
Idih
SciTegic.value.DoubleValue
0.000

@<SCITEGIC>MOL_PROPERTY
Tether
SciTegic.value.DoubleValue
0.000

@<TRIPOS>MOLECULE
guest-3_vm2.mol2 : vm2 ligand conformer 457
          29          28           1
SMALL
USER_CHARGES
 
@<TRIPOS>ATOM
       1    C1      18.372416   19.558796   20.893806 C.3        1 MOL1        -0.2427
       2    H1      18.880162   19.791462   19.948847 H          1 MOL1         0.0958
       3    H2      17.298988   19.466202   20.684214 H          1 MOL1         0.0958
       4    H3      18.505781   20.410738   21.571127 H          1 MOL1         0.0958
       5    C2      18.919389   18.249781   21.507242 C.3        1 MOL1        -0.1412
       6    H4      18.687648   17.420513   20.824472 H          1 MOL1         0.0947
       7    H5      18.394169   18.017952   22.442166 H          1 MOL1         0.0947
       8    C3      20.449041   18.275181   21.744411 C.3        1 MOL1        -0.1437
       9    H6      20.765281   17.289314   22.111917 H          1 MOL1         0.0947
      10    H7      20.949859   18.404687   20.775124 H          1 MOL1         0.0947
      11    C4      20.972745   19.365622   22.717915 C.3        1 MOL1        -0.1437
      12    H8      20.753780   20.369272   22.330575 H          1 MOL1         0.0947
      13    H9      22.069060   19.292727   22.723190 H          1 MOL1         0.0947
      14    C5      20.483814   19.224177   24.183825 C.3        1 MOL1        -0.1437
      15    H10     20.314765   18.164121   24.407646 H          1 MOL1         0.0947
      16    H11     21.292262   19.560438   24.847634 H          1 MOL1         0.0947
      17    C6      19.217926   20.059728   24.503410 C.3        1 MOL1        -0.1437
      18    H12     18.353677   19.672151   23.952124 H          1 MOL1         0.0947
      19    H13     19.371909   21.086915   24.145621 H          1 MOL1         0.0947
      20    C7      18.862718   20.127889   26.010578 C.3        1 MOL1        -0.1477
      21    H14     19.691972   20.567410   26.580665 H          1 MOL1         0.0947
      22    H15     18.017959   20.819955   26.125754 H          1 MOL1         0.0947
      23    C8      18.450087   18.777329   26.631485 C.3        1 MOL1         0.0145
      24    H16     17.825861   18.220333   25.927666 H          1 MOL1         0.0921
      25    H17     17.860397   18.965420   27.532790 H          1 MOL1         0.0921
      26    N1      19.615865   17.899497   27.042328 N.4        1 MOL1        -0.5969
      27    H18     20.204961   18.357096   27.745785 H          1 MOL1         0.3603
      28    H19     20.217433   17.670794   26.246040 H          1 MOL1         0.3603
      29    H20     19.299066   17.012255   27.448559 H          1 MOL1         0.3603
@<TRIPOS>BOND
    1     1     2    1
    2     1     3    1
    3     1     4    1
    4     1     5    1
    5     5     6    1
    6     5     7    1
    7     5     8    1
    8     8     9    1
    9     8    10    1
   10     8    11    1
   11    11    12    1
   12    11    13    1
   13    11    14    1
   14    14    15    1
   15    14    16    1
   16    14    17    1
   17    17    18    1
   18    17    19    1
   19    17    20    1
   20    20    21    1
   21    20    22    1
   22    20    23    1
   23    23    24    1
   24    23    25    1
   25    23    26    1
   26    26    27    1
   27    26    28    1
   28    26    29    1
@<TRIPOS>SUBSTRUCTURE
       1 MOL1            1 RESIDUE      1      MOL     
@<SCITEGIC>MOL_PROPERTY
VM2 Rank
SciTegic.value.IntegerValue
457

@<SCITEGIC>MOL_PROPERTY
Conf_Id
SciTegic.value.IntegerValue
988

@<SCITEGIC>MOL_PROPERTY
Probability
SciTegic.value.DoubleValue
0.00

@<SCITEGIC>MOL_PROPERTY
Sum Probability
SciTegic.value.DoubleValue
100.00

@<SCITEGIC>MOL_PROPERTY
Delta G
SciTegic.value.DoubleValue
6.711

@<SCITEGIC>MOL_PROPERTY
G
SciTegic.value.DoubleValue
64.858

@<SCITEGIC>MOL_PROPERTY
E
SciTegic.value.DoubleValue
26.760

@<SCITEGIC>MOL_PROPERTY
-TS
SciTegic.value.DoubleValue
38.097

@<SCITEGIC>MOL_PROPERTY
U+W
SciTegic.value.DoubleValue
2.616

@<SCITEGIC>MOL_PROPERTY
U
SciTegic.value.DoubleValue
55.196

@<SCITEGIC>MOL_PROPERTY
W
SciTegic.value.DoubleValue
-52.579

@<SCITEGIC>MOL_PROPERTY
W(PB)
SciTegic.value.DoubleValue
-54.932

@<SCITEGIC>MOL_PROPERTY
W(SA)
SciTegic.value.DoubleValue
2.352

@<SCITEGIC>MOL_PROPERTY
Valence
SciTegic.value.DoubleValue
7.745

@<SCITEGIC>MOL_PROPERTY
Coulomb
SciTegic.value.DoubleValue
46.905

@<SCITEGIC>MOL_PROPERTY
VdW
SciTegic.value.DoubleValue
0.547

@<SCITEGIC>MOL_PROPERTY
VdW6
SciTegic.value.DoubleValue
-11.226

@<SCITEGIC>MOL_PROPERTY
VdW12
SciTegic.value.DoubleValue
11.772

@<SCITEGIC>MOL_PROPERTY
Bond
SciTegic.value.DoubleValue
0.340

@<SCITEGIC>MOL_PROPERTY
Angle
SciTegic.value.DoubleValue
2.322

@<SCITEGIC>MOL_PROPERTY
Pdih
SciTegic.value.DoubleValue
5.083

@<SCITEGIC>MOL_PROPERTY
Idih
SciTegic.value.DoubleValue
0.000

@<SCITEGIC>MOL_PROPERTY
Tether
SciTegic.value.DoubleValue
0.000

@<TRIPOS>MOLECULE
guest-3_vm2.mol2 : vm2 ligand conformer 458
          29          28           1
SMALL
USER_CHARGES
 
@<TRIPOS>ATOM
       1    C1      19.561973   18.947864   20.221166 C.3        1 MOL1        -0.2427
       2    H1      18.613131   18.478725   20.509498 H          1 MOL1         0.0958
       3    H2      19.360937   19.600407   19.361768 H          1 MOL1         0.0958
       4    H3      20.249277   18.158439   19.890521 H          1 MOL1         0.0958
       5    C2      20.169736   19.759828   21.387109 C.3        1 MOL1        -0.1412
       6    H4      19.461801   20.535334   21.708878 H          1 MOL1         0.0947
       7    H5      21.056115   20.295561   21.019857 H          1 MOL1         0.0947
       8    C3      20.587951   18.882940   22.594288 C.3        1 MOL1        -0.1437
       9    H6      21.369162   18.183236   22.266729 H          1 MOL1         0.0947
      10    H7      21.066069   19.523254   23.345098 H          1 MOL1         0.0947
      11    C4      19.440100   18.066957   23.250022 C.3        1 MOL1        -0.1437
      12    H8      19.847847   17.494548   24.090121 H          1 MOL1         0.0947
      13    H9      19.095155   17.308286   22.535013 H          1 MOL1         0.0947
      14    C5      18.208488   18.893740   23.713323 C.3        1 MOL1        -0.1437
      15    H10     17.755206   19.362474   22.830089 H          1 MOL1         0.0947
      16    H11     17.439758   18.210048   24.098486 H          1 MOL1         0.0947
      17    C6      18.483817   19.999979   24.768572 C.3        1 MOL1        -0.1437
      18    H12     17.702321   20.764170   24.657039 H          1 MOL1         0.0947
      19    H13     19.423627   20.523595   24.557979 H          1 MOL1         0.0947
      20    C7      18.441935   19.521562   26.244533 C.3        1 MOL1        -0.1477
      21    H14     18.540970   20.394645   26.903073 H          1 MOL1         0.0947
      22    H15     17.452858   19.094741   26.457206 H          1 MOL1         0.0947
      23    C8      19.515812   18.488338   26.634230 C.3        1 MOL1         0.0145
      24    H16     19.376213   17.572699   26.055723 H          1 MOL1         0.0921
      25    H17     19.406900   18.236257   27.692533 H          1 MOL1         0.0921
      26    N1      20.934188   18.976793   26.421756 N.4        1 MOL1        -0.5969
      27    H18     21.130013   19.820827   26.970057 H          1 MOL1         0.3603
      28    H19     21.104541   19.204094   25.437743 H          1 MOL1         0.3603
      29    H20     21.625676   18.270994   26.697907 H          1 MOL1         0.3603
@<TRIPOS>BOND
    1     1     2    1
    2     1     3    1
    3     1     4    1
    4     1     5    1
    5     5     6    1
    6     5     7    1
    7     5     8    1
    8     8     9    1
    9     8    10    1
   10     8    11    1
   11    11    12    1
   12    11    13    1
   13    11    14    1
   14    14    15    1
   15    14    16    1
   16    14    17    1
   17    17    18    1
   18    17    19    1
   19    17    20    1
   20    20    21    1
   21    20    22    1
   22    20    23    1
   23    23    24    1
   24    23    25    1
   25    23    26    1
   26    26    27    1
   27    26    28    1
   28    26    29    1
@<TRIPOS>SUBSTRUCTURE
       1 MOL1            1 RESIDUE      1      MOL     
@<SCITEGIC>MOL_PROPERTY
VM2 Rank
SciTegic.value.IntegerValue
458

@<SCITEGIC>MOL_PROPERTY
Conf_Id
SciTegic.value.IntegerValue
276

@<SCITEGIC>MOL_PROPERTY
Probability
SciTegic.value.DoubleValue
0.00

@<SCITEGIC>MOL_PROPERTY
Sum Probability
SciTegic.value.DoubleValue
100.00

@<SCITEGIC>MOL_PROPERTY
Delta G
SciTegic.value.DoubleValue
6.733

@<SCITEGIC>MOL_PROPERTY
G
SciTegic.value.DoubleValue
64.879

@<SCITEGIC>MOL_PROPERTY
E
SciTegic.value.DoubleValue
26.184

@<SCITEGIC>MOL_PROPERTY
-TS
SciTegic.value.DoubleValue
38.695

@<SCITEGIC>MOL_PROPERTY
U+W
SciTegic.value.DoubleValue
2.040

@<SCITEGIC>MOL_PROPERTY
U
SciTegic.value.DoubleValue
54.528

@<SCITEGIC>MOL_PROPERTY
W
SciTegic.value.DoubleValue
-52.488

@<SCITEGIC>MOL_PROPERTY
W(PB)
SciTegic.value.DoubleValue
-54.836

@<SCITEGIC>MOL_PROPERTY
W(SA)
SciTegic.value.DoubleValue
2.348

@<SCITEGIC>MOL_PROPERTY
Valence
SciTegic.value.DoubleValue
6.910

@<SCITEGIC>MOL_PROPERTY
Coulomb
SciTegic.value.DoubleValue
47.234

@<SCITEGIC>MOL_PROPERTY
VdW
SciTegic.value.DoubleValue
0.383

@<SCITEGIC>MOL_PROPERTY
VdW6
SciTegic.value.DoubleValue
-12.316

@<SCITEGIC>MOL_PROPERTY
VdW12
SciTegic.value.DoubleValue
12.700

@<SCITEGIC>MOL_PROPERTY
Bond
SciTegic.value.DoubleValue
0.411

@<SCITEGIC>MOL_PROPERTY
Angle
SciTegic.value.DoubleValue
2.774

@<SCITEGIC>MOL_PROPERTY
Pdih
SciTegic.value.DoubleValue
3.724

@<SCITEGIC>MOL_PROPERTY
Idih
SciTegic.value.DoubleValue
0.000

@<SCITEGIC>MOL_PROPERTY
Tether
SciTegic.value.DoubleValue
0.000

@<TRIPOS>MOLECULE
guest-3_vm2.mol2 : vm2 ligand conformer 459
          29          28           1
SMALL
USER_CHARGES
 
@<TRIPOS>ATOM
       1    C1      19.967574   17.964983   19.815211 C.3        1 MOL1        -0.2427
       2    H1      20.398866   18.838636   19.309272 H          1 MOL1         0.0958
       3    H2      20.790889   17.308115   20.124907 H          1 MOL1         0.0958
       4    H3      19.357643   17.419004   19.083818 H          1 MOL1         0.0958
       5    C2      19.112709   18.392014   21.027035 C.3        1 MOL1        -0.1412
       6    H4      18.668002   17.500651   21.491315 H          1 MOL1         0.0947
       7    H5      18.278771   19.019229   20.681958 H          1 MOL1         0.0947
       8    C3      19.947983   19.163987   22.072016 C.3        1 MOL1        -0.1437
       9    H6      20.783727   18.535200   22.408269 H          1 MOL1         0.0947
      10    H7      20.390120   20.053756   21.602550 H          1 MOL1         0.0947
      11    C4      19.095252   19.592298   23.287244 C.3        1 MOL1        -0.1437
      12    H8      18.627789   18.709172   23.737973 H          1 MOL1         0.0947
      13    H9      18.269354   20.230931   22.944239 H          1 MOL1         0.0947
      14    C5      19.932711   20.368384   24.333453 C.3        1 MOL1        -0.1437
      15    H10     20.857934   19.830437   24.579065 H          1 MOL1         0.0947
      16    H11     20.252960   21.314473   23.875126 H          1 MOL1         0.0947
      17    C6      19.142933   20.691214   25.627521 C.3        1 MOL1        -0.1437
      18    H12     18.071332   20.785720   25.403505 H          1 MOL1         0.0947
      19    H13     19.457932   21.683336   25.979541 H          1 MOL1         0.0947
      20    C7      19.353233   19.695057   26.799312 C.3        1 MOL1        -0.1477
      21    H14     20.405890   19.696135   27.112044 H          1 MOL1         0.0947
      22    H15     18.785012   20.067748   27.661888 H          1 MOL1         0.0947
      23    C8      18.892910   18.249249   26.524115 C.3        1 MOL1         0.0145
      24    H16     17.948480   18.258337   25.973602 H          1 MOL1         0.0921
      25    H17     18.726184   17.739772   27.477051 H          1 MOL1         0.0921
      26    N1      19.898694   17.420814   25.749092 N.4        1 MOL1        -0.5969
      27    H18     20.105727   17.845154   24.838961 H          1 MOL1         0.3603
      28    H19     19.555721   16.469431   25.575686 H          1 MOL1         0.3603
      29    H20     20.786182   17.332395   26.255189 H          1 MOL1         0.3603
@<TRIPOS>BOND
    1     1     2    1
    2     1     3    1
    3     1     4    1
    4     1     5    1
    5     5     6    1
    6     5     7    1
    7     5     8    1
    8     8     9    1
    9     8    10    1
   10     8    11    1
   11    11    12    1
   12    11    13    1
   13    11    14    1
   14    14    15    1
   15    14    16    1
   16    14    17    1
   17    17    18    1
   18    17    19    1
   19    17    20    1
   20    20    21    1
   21    20    22    1
   22    20    23    1
   23    23    24    1
   24    23    25    1
   25    23    26    1
   26    26    27    1
   27    26    28    1
   28    26    29    1
@<TRIPOS>SUBSTRUCTURE
       1 MOL1            1 RESIDUE      1      MOL     
@<SCITEGIC>MOL_PROPERTY
VM2 Rank
SciTegic.value.IntegerValue
459

@<SCITEGIC>MOL_PROPERTY
Conf_Id
SciTegic.value.IntegerValue
1663

@<SCITEGIC>MOL_PROPERTY
Probability
SciTegic.value.DoubleValue
0.00

@<SCITEGIC>MOL_PROPERTY
Sum Probability
SciTegic.value.DoubleValue
100.00

@<SCITEGIC>MOL_PROPERTY
Delta G
SciTegic.value.DoubleValue
6.757

@<SCITEGIC>MOL_PROPERTY
G
SciTegic.value.DoubleValue
64.903

@<SCITEGIC>MOL_PROPERTY
E
SciTegic.value.DoubleValue
26.926

@<SCITEGIC>MOL_PROPERTY
-TS
SciTegic.value.DoubleValue
37.977

@<SCITEGIC>MOL_PROPERTY
U+W
SciTegic.value.DoubleValue
2.781

@<SCITEGIC>MOL_PROPERTY
U
SciTegic.value.DoubleValue
54.340

@<SCITEGIC>MOL_PROPERTY
W
SciTegic.value.DoubleValue
-51.559

@<SCITEGIC>MOL_PROPERTY
W(PB)
SciTegic.value.DoubleValue
-54.003

@<SCITEGIC>MOL_PROPERTY
W(SA)
SciTegic.value.DoubleValue
2.445

@<SCITEGIC>MOL_PROPERTY
Valence
SciTegic.value.DoubleValue
6.616

@<SCITEGIC>MOL_PROPERTY
Coulomb
SciTegic.value.DoubleValue
47.220

@<SCITEGIC>MOL_PROPERTY
VdW
SciTegic.value.DoubleValue
0.504

@<SCITEGIC>MOL_PROPERTY
VdW6
SciTegic.value.DoubleValue
-10.122

@<SCITEGIC>MOL_PROPERTY
VdW12
SciTegic.value.DoubleValue
10.626

@<SCITEGIC>MOL_PROPERTY
Bond
SciTegic.value.DoubleValue
0.249

@<SCITEGIC>MOL_PROPERTY
Angle
SciTegic.value.DoubleValue
1.458

@<SCITEGIC>MOL_PROPERTY
Pdih
SciTegic.value.DoubleValue
4.909

@<SCITEGIC>MOL_PROPERTY
Idih
SciTegic.value.DoubleValue
0.000

@<SCITEGIC>MOL_PROPERTY
Tether
SciTegic.value.DoubleValue
0.000

@<TRIPOS>MOLECULE
guest-3_vm2.mol2 : vm2 ligand conformer 460
          29          28           1
SMALL
USER_CHARGES
 
@<TRIPOS>ATOM
       1    C1      21.219246   18.282977   21.452765 C.3        1 MOL1        -0.2427
       2    H1      21.212855   18.157297   22.540546 H          1 MOL1         0.0958
       3    H2      21.581261   17.344790   21.012689 H          1 MOL1         0.0958
       4    H3      21.946239   19.067892   21.206904 H          1 MOL1         0.0958
       5    C2      19.819069   18.634449   20.897982 C.3        1 MOL1        -0.1412
       6    H4      19.113203   17.815616   21.095050 H          1 MOL1         0.0947
       7    H5      19.898166   18.708392   19.804299 H          1 MOL1         0.0947
       8    C3      19.257411   19.973050   21.442605 C.3        1 MOL1        -0.1437
       9    H6      20.079304   20.666083   21.669057 H          1 MOL1         0.0947
      10    H7      18.679826   20.452289   20.640054 H          1 MOL1         0.0947
      11    C4      18.321067   19.835959   22.670901 C.3        1 MOL1        -0.1437
      12    H8      17.448709   19.226338   22.397817 H          1 MOL1         0.0947
      13    H9      17.931835   20.833104   22.919004 H          1 MOL1         0.0947
      14    C5      18.997477   19.234554   23.924071 C.3        1 MOL1        -0.1437
      15    H10     19.264963   18.188018   23.729310 H          1 MOL1         0.0947
      16    H11     19.922855   19.787893   24.124718 H          1 MOL1         0.0947
      17    C6      18.069596   19.297396   25.160162 C.3        1 MOL1        -0.1437
      18    H12     17.090203   18.878433   24.890519 H          1 MOL1         0.0947
      19    H13     17.889687   20.346934   25.431292 H          1 MOL1         0.0947
      20    C7      18.598497   18.528487   26.397855 C.3        1 MOL1        -0.1477
      21    H14     17.824490   18.570286   27.175674 H          1 MOL1         0.0947
      22    H15     18.729305   17.464468   26.159906 H          1 MOL1         0.0947
      23    C8      19.899443   19.099418   26.999252 C.3        1 MOL1         0.0145
      24    H16     19.985109   18.770671   28.038508 H          1 MOL1         0.0921
      25    H17     19.864101   20.192102   26.990975 H          1 MOL1         0.0921
      26    N1      21.162194   18.651710   26.289408 N.4        1 MOL1        -0.5969
      27    H18     21.269856   17.632337   26.315508 H          1 MOL1         0.3603
      28    H19     22.002477   19.052435   26.720826 H          1 MOL1         0.3603
      29    H20     21.162930   18.932618   25.304944 H          1 MOL1         0.3603
@<TRIPOS>BOND
    1     1     2    1
    2     1     3    1
    3     1     4    1
    4     1     5    1
    5     5     6    1
    6     5     7    1
    7     5     8    1
    8     8     9    1
    9     8    10    1
   10     8    11    1
   11    11    12    1
   12    11    13    1
   13    11    14    1
   14    14    15    1
   15    14    16    1
   16    14    17    1
   17    17    18    1
   18    17    19    1
   19    17    20    1
   20    20    21    1
   21    20    22    1
   22    20    23    1
   23    23    24    1
   24    23    25    1
   25    23    26    1
   26    26    27    1
   27    26    28    1
   28    26    29    1
@<TRIPOS>SUBSTRUCTURE
       1 MOL1            1 RESIDUE      1      MOL     
@<SCITEGIC>MOL_PROPERTY
VM2 Rank
SciTegic.value.IntegerValue
460

@<SCITEGIC>MOL_PROPERTY
Conf_Id
SciTegic.value.IntegerValue
259

@<SCITEGIC>MOL_PROPERTY
Probability
SciTegic.value.DoubleValue
0.00

@<SCITEGIC>MOL_PROPERTY
Sum Probability
SciTegic.value.DoubleValue
100.00

@<SCITEGIC>MOL_PROPERTY
Delta G
SciTegic.value.DoubleValue
6.782

@<SCITEGIC>MOL_PROPERTY
G
SciTegic.value.DoubleValue
64.928

@<SCITEGIC>MOL_PROPERTY
E
SciTegic.value.DoubleValue
27.252

@<SCITEGIC>MOL_PROPERTY
-TS
SciTegic.value.DoubleValue
37.676

@<SCITEGIC>MOL_PROPERTY
U+W
SciTegic.value.DoubleValue
3.108

@<SCITEGIC>MOL_PROPERTY
U
SciTegic.value.DoubleValue
55.183

@<SCITEGIC>MOL_PROPERTY
W
SciTegic.value.DoubleValue
-52.076

@<SCITEGIC>MOL_PROPERTY
W(PB)
SciTegic.value.DoubleValue
-54.499

@<SCITEGIC>MOL_PROPERTY
W(SA)
SciTegic.value.DoubleValue
2.423

@<SCITEGIC>MOL_PROPERTY
Valence
SciTegic.value.DoubleValue
7.141

@<SCITEGIC>MOL_PROPERTY
Coulomb
SciTegic.value.DoubleValue
47.365

@<SCITEGIC>MOL_PROPERTY
VdW
SciTegic.value.DoubleValue
0.677

@<SCITEGIC>MOL_PROPERTY
VdW6
SciTegic.value.DoubleValue
-10.168

@<SCITEGIC>MOL_PROPERTY
VdW12
SciTegic.value.DoubleValue
10.845

@<SCITEGIC>MOL_PROPERTY
Bond
SciTegic.value.DoubleValue
0.287

@<SCITEGIC>MOL_PROPERTY
Angle
SciTegic.value.DoubleValue
1.759

@<SCITEGIC>MOL_PROPERTY
Pdih
SciTegic.value.DoubleValue
5.095

@<SCITEGIC>MOL_PROPERTY
Idih
SciTegic.value.DoubleValue
0.000

@<SCITEGIC>MOL_PROPERTY
Tether
SciTegic.value.DoubleValue
0.000

@<TRIPOS>MOLECULE
guest-3_vm2.mol2 : vm2 ligand conformer 461
          29          28           1
SMALL
USER_CHARGES
 
@<TRIPOS>ATOM
       1    C1      18.787349   19.207617   19.729124 C.3        1 MOL1        -0.2427
       2    H1      19.690999   18.807381   19.251138 H          1 MOL1         0.0958
       3    H2      18.081562   18.379287   19.873934 H          1 MOL1         0.0958
       4    H3      18.328389   19.924212   19.035667 H          1 MOL1         0.0958
       5    C2      19.125785   19.889083   21.071855 C.3        1 MOL1        -0.1412
       6    H4      18.208656   20.307956   21.509231 H          1 MOL1         0.0947
       7    H5      19.805327   20.733625   20.890663 H          1 MOL1         0.0947
       8    C3      19.774132   18.901470   22.067052 C.3        1 MOL1        -0.1437
       9    H6      19.091800   18.057939   22.233055 H          1 MOL1         0.0947
      10    H7      20.689208   18.485479   21.623462 H          1 MOL1         0.0947
      11    C4      20.116321   19.584945   23.413018 C.3        1 MOL1        -0.1437
      12    H8      19.201276   20.005007   23.847258 H          1 MOL1         0.0947
      13    H9      20.786783   20.432725   23.215110 H          1 MOL1         0.0947
      14    C5      20.810827   18.629428   24.418512 C.3        1 MOL1        -0.1437
      15    H10     21.614525   18.098481   23.889675 H          1 MOL1         0.0947
      16    H11     21.317680   19.207804   25.202233 H          1 MOL1         0.0947
      17    C6      19.865064   17.585053   25.069974 C.3        1 MOL1        -0.1437
      18    H12     20.428672   16.650268   25.195710 H          1 MOL1         0.0947
      19    H13     19.035681   17.337514   24.395428 H          1 MOL1         0.0947
      20    C7      19.302873   17.977658   26.462145 C.3        1 MOL1        -0.1477
      21    H14     18.708002   17.132597   26.833374 H          1 MOL1         0.0947
      22    H15     20.123311   18.104255   27.180989 H          1 MOL1         0.0947
      23    C8      18.399412   19.227006   26.473418 C.3        1 MOL1         0.0145
      24    H16     17.755227   19.194605   27.356266 H          1 MOL1         0.0921
      25    H17     17.760773   19.231756   25.586128 H          1 MOL1         0.0921
      26    N1      19.162237   20.535741   26.529902 N.4        1 MOL1        -0.5969
      27    H18     19.729896   20.606403   27.380943 H          1 MOL1         0.3603
      28    H19     18.531812   21.345196   26.521719 H          1 MOL1         0.3603
      29    H20     19.796993   20.631369   25.731044 H          1 MOL1         0.3603
@<TRIPOS>BOND
    1     1     2    1
    2     1     3    1
    3     1     4    1
    4     1     5    1
    5     5     6    1
    6     5     7    1
    7     5     8    1
    8     8     9    1
    9     8    10    1
   10     8    11    1
   11    11    12    1
   12    11    13    1
   13    11    14    1
   14    14    15    1
   15    14    16    1
   16    14    17    1
   17    17    18    1
   18    17    19    1
   19    17    20    1
   20    20    21    1
   21    20    22    1
   22    20    23    1
   23    23    24    1
   24    23    25    1
   25    23    26    1
   26    26    27    1
   27    26    28    1
   28    26    29    1
@<TRIPOS>SUBSTRUCTURE
       1 MOL1            1 RESIDUE      1      MOL     
@<SCITEGIC>MOL_PROPERTY
VM2 Rank
SciTegic.value.IntegerValue
461

@<SCITEGIC>MOL_PROPERTY
Conf_Id
SciTegic.value.IntegerValue
1222

@<SCITEGIC>MOL_PROPERTY
Probability
SciTegic.value.DoubleValue
0.00

@<SCITEGIC>MOL_PROPERTY
Sum Probability
SciTegic.value.DoubleValue
100.00

@<SCITEGIC>MOL_PROPERTY
Delta G
SciTegic.value.DoubleValue
6.807

@<SCITEGIC>MOL_PROPERTY
G
SciTegic.value.DoubleValue
64.953

@<SCITEGIC>MOL_PROPERTY
E
SciTegic.value.DoubleValue
26.955

@<SCITEGIC>MOL_PROPERTY
-TS
SciTegic.value.DoubleValue
37.998

@<SCITEGIC>MOL_PROPERTY
U+W
SciTegic.value.DoubleValue
2.811

@<SCITEGIC>MOL_PROPERTY
U
SciTegic.value.DoubleValue
55.101

@<SCITEGIC>MOL_PROPERTY
W
SciTegic.value.DoubleValue
-52.290

@<SCITEGIC>MOL_PROPERTY
W(PB)
SciTegic.value.DoubleValue
-54.742

@<SCITEGIC>MOL_PROPERTY
W(SA)
SciTegic.value.DoubleValue
2.452

@<SCITEGIC>MOL_PROPERTY
Valence
SciTegic.value.DoubleValue
7.379

@<SCITEGIC>MOL_PROPERTY
Coulomb
SciTegic.value.DoubleValue
47.020

@<SCITEGIC>MOL_PROPERTY
VdW
SciTegic.value.DoubleValue
0.701

@<SCITEGIC>MOL_PROPERTY
VdW6
SciTegic.value.DoubleValue
-10.390

@<SCITEGIC>MOL_PROPERTY
VdW12
SciTegic.value.DoubleValue
11.091

@<SCITEGIC>MOL_PROPERTY
Bond
SciTegic.value.DoubleValue
0.297

@<SCITEGIC>MOL_PROPERTY
Angle
SciTegic.value.DoubleValue
1.606

@<SCITEGIC>MOL_PROPERTY
Pdih
SciTegic.value.DoubleValue
5.476

@<SCITEGIC>MOL_PROPERTY
Idih
SciTegic.value.DoubleValue
0.000

@<SCITEGIC>MOL_PROPERTY
Tether
SciTegic.value.DoubleValue
0.000

@<TRIPOS>MOLECULE
guest-3_vm2.mol2 : vm2 ligand conformer 462
          29          28           1
SMALL
USER_CHARGES
 
@<TRIPOS>ATOM
       1    C1      21.172425   18.105927   21.597177 C.3        1 MOL1        -0.2427
       2    H1      21.501558   17.096498   21.318355 H          1 MOL1         0.0958
       3    H2      21.774495   18.823710   21.024986 H          1 MOL1         0.0958
       4    H3      21.396551   18.246574   22.659686 H          1 MOL1         0.0958
       5    C2      19.667236   18.286474   21.297596 C.3        1 MOL1        -0.1412
       6    H4      19.081117   17.541234   21.850844 H          1 MOL1         0.0947
       7    H5      19.496545   18.071352   20.233499 H          1 MOL1         0.0947
       8    C3      19.150977   19.716278   21.597826 C.3        1 MOL1        -0.1437
       9    H6      19.754957   20.438048   21.030898 H          1 MOL1         0.0947
      10    H7      18.127642   19.813536   21.209906 H          1 MOL1         0.0947
      11    C4      19.159969   20.119520   23.094748 C.3        1 MOL1        -0.1437
      12    H8      18.874902   21.178191   23.165382 H          1 MOL1         0.0947
      13    H9      20.179570   20.055792   23.492597 H          1 MOL1         0.0947
      14    C5      18.180978   19.284529   23.958736 C.3        1 MOL1        -0.1437
      15    H10     17.190934   19.301668   23.482561 H          1 MOL1         0.0947
      16    H11     18.479227   18.230534   23.979687 H          1 MOL1         0.0947
      17    C6      18.024694   19.818738   25.405253 C.3        1 MOL1        -0.1437
      18    H12     17.269079   19.213078   25.924429 H          1 MOL1         0.0947
      19    H13     17.610267   20.835312   25.359829 H          1 MOL1         0.0947
      20    C7      19.315488   19.851416   26.266196 C.3        1 MOL1        -0.1477
      21    H14     20.074661   20.501663   25.813373 H          1 MOL1         0.0947
      22    H15     19.062154   20.317973   27.227383 H          1 MOL1         0.0947
      23    C8      19.911529   18.461287   26.568167 C.3        1 MOL1         0.0145
      24    H16     19.106728   17.754013   26.785576 H          1 MOL1         0.0921
      25    H17     20.551226   18.529728   27.452207 H          1 MOL1         0.0921
      26    N1      20.760704   17.893830   25.449299 N.4        1 MOL1        -0.5969
      27    H18     21.584081   18.477718   25.269735 H          1 MOL1         0.3603
      28    H19     20.231666   17.830845   24.574040 H          1 MOL1         0.3603
      29    H20     21.102706   16.952466   25.672764 H          1 MOL1         0.3603
@<TRIPOS>BOND
    1     1     2    1
    2     1     3    1
    3     1     4    1
    4     1     5    1
    5     5     6    1
    6     5     7    1
    7     5     8    1
    8     8     9    1
    9     8    10    1
   10     8    11    1
   11    11    12    1
   12    11    13    1
   13    11    14    1
   14    14    15    1
   15    14    16    1
   16    14    17    1
   17    17    18    1
   18    17    19    1
   19    17    20    1
   20    20    21    1
   21    20    22    1
   22    20    23    1
   23    23    24    1
   24    23    25    1
   25    23    26    1
   26    26    27    1
   27    26    28    1
   28    26    29    1
@<TRIPOS>SUBSTRUCTURE
       1 MOL1            1 RESIDUE      1      MOL     
@<SCITEGIC>MOL_PROPERTY
VM2 Rank
SciTegic.value.IntegerValue
462

@<SCITEGIC>MOL_PROPERTY
Conf_Id
SciTegic.value.IntegerValue
1696

@<SCITEGIC>MOL_PROPERTY
Probability
SciTegic.value.DoubleValue
0.00

@<SCITEGIC>MOL_PROPERTY
Sum Probability
SciTegic.value.DoubleValue
100.00

@<SCITEGIC>MOL_PROPERTY
Delta G
SciTegic.value.DoubleValue
6.820

@<SCITEGIC>MOL_PROPERTY
G
SciTegic.value.DoubleValue
64.966

@<SCITEGIC>MOL_PROPERTY
E
SciTegic.value.DoubleValue
26.611

@<SCITEGIC>MOL_PROPERTY
-TS
SciTegic.value.DoubleValue
38.356

@<SCITEGIC>MOL_PROPERTY
U+W
SciTegic.value.DoubleValue
2.466

@<SCITEGIC>MOL_PROPERTY
U
SciTegic.value.DoubleValue
54.078

@<SCITEGIC>MOL_PROPERTY
W
SciTegic.value.DoubleValue
-51.612

@<SCITEGIC>MOL_PROPERTY
W(PB)
SciTegic.value.DoubleValue
-53.953

@<SCITEGIC>MOL_PROPERTY
W(SA)
SciTegic.value.DoubleValue
2.341

@<SCITEGIC>MOL_PROPERTY
Valence
SciTegic.value.DoubleValue
5.808

@<SCITEGIC>MOL_PROPERTY
Coulomb
SciTegic.value.DoubleValue
48.135

@<SCITEGIC>MOL_PROPERTY
VdW
SciTegic.value.DoubleValue
0.136

@<SCITEGIC>MOL_PROPERTY
VdW6
SciTegic.value.DoubleValue
-11.658

@<SCITEGIC>MOL_PROPERTY
VdW12
SciTegic.value.DoubleValue
11.793

@<SCITEGIC>MOL_PROPERTY
Bond
SciTegic.value.DoubleValue
0.321

@<SCITEGIC>MOL_PROPERTY
Angle
SciTegic.value.DoubleValue
2.065

@<SCITEGIC>MOL_PROPERTY
Pdih
SciTegic.value.DoubleValue
3.422

@<SCITEGIC>MOL_PROPERTY
Idih
SciTegic.value.DoubleValue
0.000

@<SCITEGIC>MOL_PROPERTY
Tether
SciTegic.value.DoubleValue
0.000

@<TRIPOS>MOLECULE
guest-3_vm2.mol2 : vm2 ligand conformer 463
          29          28           1
SMALL
USER_CHARGES
 
@<TRIPOS>ATOM
       1    C1      18.908846   19.549668   19.736803 C.3        1 MOL1        -0.2427
       2    H1      18.881763   20.631034   19.924290 H          1 MOL1         0.0958
       3    H2      19.869097   19.308756   19.262332 H          1 MOL1         0.0958
       4    H3      18.110491   19.311377   19.022045 H          1 MOL1         0.0958
       5    C2      18.722665   18.754839   21.046553 C.3        1 MOL1        -0.1412
       6    H4      18.719673   17.678907   20.822450 H          1 MOL1         0.0947
       7    H5      17.740768   18.991422   21.479892 H          1 MOL1         0.0947
       8    C3      19.834662   19.071728   22.070855 C.3        1 MOL1        -0.1437
       9    H6      20.813231   18.834385   21.631246 H          1 MOL1         0.0947
      10    H7      19.835109   20.149250   22.279719 H          1 MOL1         0.0947
      11    C4      19.650024   18.272940   23.383754 C.3        1 MOL1        -0.1437
      12    H8      19.638115   17.200875   23.143020 H          1 MOL1         0.0947
      13    H9      18.669050   18.507497   23.813865 H          1 MOL1         0.0947
      14    C5      20.777448   18.535429   24.416414 C.3        1 MOL1        -0.1437
      15    H10     20.794761   17.736473   25.169413 H          1 MOL1         0.0947
      16    H11     21.743326   18.460784   23.897752 H          1 MOL1         0.0947
      17    C6      20.693424   19.915552   25.121957 C.3        1 MOL1        -0.1437
      18    H12     20.215693   20.657299   24.469463 H          1 MOL1         0.0947
      19    H13     21.718599   20.279367   25.276688 H          1 MOL1         0.0947
      20    C7      19.989985   19.910882   26.505248 C.3        1 MOL1        -0.1477
      21    H14     20.536459   19.266756   27.206925 H          1 MOL1         0.0947
      22    H15     20.056376   20.926296   26.917963 H          1 MOL1         0.0947
      23    C8      18.500790   19.512279   26.479724 C.3        1 MOL1         0.0145
      24    H16     18.014876   19.946561   25.601969 H          1 MOL1         0.0921
      25    H17     18.009028   19.908879   27.372094 H          1 MOL1         0.0921
      26    N1      18.266157   18.014682   26.473692 N.4        1 MOL1        -0.5969
      27    H18     17.266557   17.785471   26.442313 H          1 MOL1         0.3603
      28    H19     18.649938   17.568176   27.313241 H          1 MOL1         0.3603
      29    H20     18.709532   17.571715   25.662870 H          1 MOL1         0.3603
@<TRIPOS>BOND
    1     1     2    1
    2     1     3    1
    3     1     4    1
    4     1     5    1
    5     5     6    1
    6     5     7    1
    7     5     8    1
    8     8     9    1
    9     8    10    1
   10     8    11    1
   11    11    12    1
   12    11    13    1
   13    11    14    1
   14    14    15    1
   15    14    16    1
   16    14    17    1
   17    17    18    1
   18    17    19    1
   19    17    20    1
   20    20    21    1
   21    20    22    1
   22    20    23    1
   23    23    24    1
   24    23    25    1
   25    23    26    1
   26    26    27    1
   27    26    28    1
   28    26    29    1
@<TRIPOS>SUBSTRUCTURE
       1 MOL1            1 RESIDUE      1      MOL     
@<SCITEGIC>MOL_PROPERTY
VM2 Rank
SciTegic.value.IntegerValue
463

@<SCITEGIC>MOL_PROPERTY
Conf_Id
SciTegic.value.IntegerValue
637

@<SCITEGIC>MOL_PROPERTY
Probability
SciTegic.value.DoubleValue
0.00

@<SCITEGIC>MOL_PROPERTY
Sum Probability
SciTegic.value.DoubleValue
100.00

@<SCITEGIC>MOL_PROPERTY
Delta G
SciTegic.value.DoubleValue
6.848

@<SCITEGIC>MOL_PROPERTY
G
SciTegic.value.DoubleValue
64.995

@<SCITEGIC>MOL_PROPERTY
E
SciTegic.value.DoubleValue
26.997

@<SCITEGIC>MOL_PROPERTY
-TS
SciTegic.value.DoubleValue
37.998

@<SCITEGIC>MOL_PROPERTY
U+W
SciTegic.value.DoubleValue
2.852

@<SCITEGIC>MOL_PROPERTY
U
SciTegic.value.DoubleValue
55.101

@<SCITEGIC>MOL_PROPERTY
W
SciTegic.value.DoubleValue
-52.249

@<SCITEGIC>MOL_PROPERTY
W(PB)
SciTegic.value.DoubleValue
-54.683

@<SCITEGIC>MOL_PROPERTY
W(SA)
SciTegic.value.DoubleValue
2.434

@<SCITEGIC>MOL_PROPERTY
Valence
SciTegic.value.DoubleValue
7.379

@<SCITEGIC>MOL_PROPERTY
Coulomb
SciTegic.value.DoubleValue
47.020

@<SCITEGIC>MOL_PROPERTY
VdW
SciTegic.value.DoubleValue
0.701

@<SCITEGIC>MOL_PROPERTY
VdW6
SciTegic.value.DoubleValue
-10.389

@<SCITEGIC>MOL_PROPERTY
VdW12
SciTegic.value.DoubleValue
11.091

@<SCITEGIC>MOL_PROPERTY
Bond
SciTegic.value.DoubleValue
0.297

@<SCITEGIC>MOL_PROPERTY
Angle
SciTegic.value.DoubleValue
1.606

@<SCITEGIC>MOL_PROPERTY
Pdih
SciTegic.value.DoubleValue
5.476

@<SCITEGIC>MOL_PROPERTY
Idih
SciTegic.value.DoubleValue
0.000

@<SCITEGIC>MOL_PROPERTY
Tether
SciTegic.value.DoubleValue
0.000

@<TRIPOS>MOLECULE
guest-3_vm2.mol2 : vm2 ligand conformer 464
          29          28           1
SMALL
USER_CHARGES
 
@<TRIPOS>ATOM
       1    C1      18.619035   19.551630   20.350870 C.3        1 MOL1        -0.2427
       2    H1      19.435720   19.182077   19.717255 H          1 MOL1         0.0958
       3    H2      17.713323   19.607268   19.733231 H          1 MOL1         0.0958
       4    H3      18.865094   20.572403   20.669000 H          1 MOL1         0.0958
       5    C2      18.391259   18.620104   21.562627 C.3        1 MOL1        -0.1412
       6    H4      18.035830   17.645642   21.199587 H          1 MOL1         0.0947
       7    H5      17.587689   19.025377   22.193183 H          1 MOL1         0.0947
       8    C3      19.663894   18.399675   22.414810 C.3        1 MOL1        -0.1437
       9    H6      19.443208   17.649666   23.183662 H          1 MOL1         0.0947
      10    H7      20.452337   17.962136   21.787086 H          1 MOL1         0.0947
      11    C4      20.193831   19.698436   23.074712 C.3        1 MOL1        -0.1437
      12    H8      19.377437   20.259141   23.548447 H          1 MOL1         0.0947
      13    H9      20.586561   20.351480   22.283962 H          1 MOL1         0.0947
      14    C5      21.329441   19.439325   24.096954 C.3        1 MOL1        -0.1437
      15    H10     21.866992   18.515549   23.842170 H          1 MOL1         0.0947
      16    H11     22.068811   20.245259   23.990915 H          1 MOL1         0.0947
      17    C6      20.893209   19.407164   25.586746 C.3        1 MOL1        -0.1437
      18    H12     20.460408   20.375393   25.869571 H          1 MOL1         0.0947
      19    H13     21.805975   19.310096   26.190678 H          1 MOL1         0.0947
      20    C7      19.940889   18.248592   25.984983 C.3        1 MOL1        -0.1477
      21    H14     20.258911   17.322796   25.488147 H          1 MOL1         0.0947
      22    H15     20.043389   18.060257   27.061952 H          1 MOL1         0.0947
      23    C8      18.449802   18.510485   25.686097 C.3        1 MOL1         0.0145
      24    H16     17.871138   17.615458   25.930036 H          1 MOL1         0.0921
      25    H17     18.309282   18.725066   24.625216 H          1 MOL1         0.0921
      26    N1      17.862640   19.662590   26.477201 N.4        1 MOL1        -0.5969
      27    H18     16.867970   19.800899   26.267875 H          1 MOL1         0.3603
      28    H19     18.339868   20.545616   26.271584 H          1 MOL1         0.3603
      29    H20     17.937210   19.505986   27.487686 H          1 MOL1         0.3603
@<TRIPOS>BOND
    1     1     2    1
    2     1     3    1
    3     1     4    1
    4     1     5    1
    5     5     6    1
    6     5     7    1
    7     5     8    1
    8     8     9    1
    9     8    10    1
   10     8    11    1
   11    11    12    1
   12    11    13    1
   13    11    14    1
   14    14    15    1
   15    14    16    1
   16    14    17    1
   17    17    18    1
   18    17    19    1
   19    17    20    1
   20    20    21    1
   21    20    22    1
   22    20    23    1
   23    23    24    1
   24    23    25    1
   25    23    26    1
   26    26    27    1
   27    26    28    1
   28    26    29    1
@<TRIPOS>SUBSTRUCTURE
       1 MOL1            1 RESIDUE      1      MOL     
@<SCITEGIC>MOL_PROPERTY
VM2 Rank
SciTegic.value.IntegerValue
464

@<SCITEGIC>MOL_PROPERTY
Conf_Id
SciTegic.value.IntegerValue
1030

@<SCITEGIC>MOL_PROPERTY
Probability
SciTegic.value.DoubleValue
0.00

@<SCITEGIC>MOL_PROPERTY
Sum Probability
SciTegic.value.DoubleValue
100.00

@<SCITEGIC>MOL_PROPERTY
Delta G
SciTegic.value.DoubleValue
6.872

@<SCITEGIC>MOL_PROPERTY
G
SciTegic.value.DoubleValue
65.018

@<SCITEGIC>MOL_PROPERTY
E
SciTegic.value.DoubleValue
26.643

@<SCITEGIC>MOL_PROPERTY
-TS
SciTegic.value.DoubleValue
38.375

@<SCITEGIC>MOL_PROPERTY
U+W
SciTegic.value.DoubleValue
2.499

@<SCITEGIC>MOL_PROPERTY
U
SciTegic.value.DoubleValue
55.291

@<SCITEGIC>MOL_PROPERTY
W
SciTegic.value.DoubleValue
-52.792

@<SCITEGIC>MOL_PROPERTY
W(PB)
SciTegic.value.DoubleValue
-55.169

@<SCITEGIC>MOL_PROPERTY
W(SA)
SciTegic.value.DoubleValue
2.377

@<SCITEGIC>MOL_PROPERTY
Valence
SciTegic.value.DoubleValue
8.172

@<SCITEGIC>MOL_PROPERTY
Coulomb
SciTegic.value.DoubleValue
46.622

@<SCITEGIC>MOL_PROPERTY
VdW
SciTegic.value.DoubleValue
0.496

@<SCITEGIC>MOL_PROPERTY
VdW6
SciTegic.value.DoubleValue
-11.565

@<SCITEGIC>MOL_PROPERTY
VdW12
SciTegic.value.DoubleValue
12.061

@<SCITEGIC>MOL_PROPERTY
Bond
SciTegic.value.DoubleValue
0.330

@<SCITEGIC>MOL_PROPERTY
Angle
SciTegic.value.DoubleValue
2.093

@<SCITEGIC>MOL_PROPERTY
Pdih
SciTegic.value.DoubleValue
5.750

@<SCITEGIC>MOL_PROPERTY
Idih
SciTegic.value.DoubleValue
0.000

@<SCITEGIC>MOL_PROPERTY
Tether
SciTegic.value.DoubleValue
0.000

@<TRIPOS>MOLECULE
guest-3_vm2.mol2 : vm2 ligand conformer 465
          29          28           1
SMALL
USER_CHARGES
 
@<TRIPOS>ATOM
       1    C1      20.616317   17.611653   22.057515 C.3        1 MOL1        -0.2427
       2    H1      20.597319   16.530591   22.246399 H          1 MOL1         0.0958
       3    H2      21.420906   17.809518   21.337502 H          1 MOL1         0.0958
       4    H3      20.878301   18.109285   22.997071 H          1 MOL1         0.0958
       5    C2      19.253404   18.088404   21.503083 C.3        1 MOL1        -0.1412
       6    H4      18.436831   17.807184   22.181399 H          1 MOL1         0.0947
       7    H5      19.064094   17.543517   20.567620 H          1 MOL1         0.0947
       8    C3      19.206698   19.607944   21.202327 C.3        1 MOL1        -0.1437
       9    H6      20.199935   19.963880   20.895995 H          1 MOL1         0.0947
      10    H7      18.560802   19.755157   20.325683 H          1 MOL1         0.0947
      11    C4      18.646596   20.505111   22.339591 C.3        1 MOL1        -0.1437
      12    H8      17.619138   20.204117   22.586119 H          1 MOL1         0.0947
      13    H9      18.563584   21.524354   21.937587 H          1 MOL1         0.0947
      14    C5      19.509719   20.573598   23.624967 C.3        1 MOL1        -0.1437
      15    H10     20.568447   20.421813   23.376096 H          1 MOL1         0.0947
      16    H11     19.441265   21.590619   24.035285 H          1 MOL1         0.0947
      17    C6      19.053739   19.582864   24.723682 C.3        1 MOL1        -0.1437
      18    H12     19.028932   18.562984   24.325368 H          1 MOL1         0.0947
      19    H13     18.025339   19.824271   25.026139 H          1 MOL1         0.0947
      20    C7      19.978614   19.637206   25.962162 C.3        1 MOL1        -0.1477
      21    H14     21.007204   19.381097   25.675243 H          1 MOL1         0.0947
      22    H15     20.007671   20.664372   26.349467 H          1 MOL1         0.0947
      23    C8      19.512982   18.700861   27.093566 C.3        1 MOL1         0.0145
      24    H16     18.484545   18.944452   27.373479 H          1 MOL1         0.0921
      25    H17     20.149241   18.847301   27.970632 H          1 MOL1         0.0921
      26    N1      19.565932   17.230358   26.728107 N.4        1 MOL1        -0.5969
      27    H18     18.960295   17.016143   25.929750 H          1 MOL1         0.3603
      28    H19     19.261219   16.634340   27.505627 H          1 MOL1         0.3603
      29    H20     20.515308   16.934831   26.478017 H          1 MOL1         0.3603
@<TRIPOS>BOND
    1     1     2    1
    2     1     3    1
    3     1     4    1
    4     1     5    1
    5     5     6    1
    6     5     7    1
    7     5     8    1
    8     8     9    1
    9     8    10    1
   10     8    11    1
   11    11    12    1
   12    11    13    1
   13    11    14    1
   14    14    15    1
   15    14    16    1
   16    14    17    1
   17    17    18    1
   18    17    19    1
   19    17    20    1
   20    20    21    1
   21    20    22    1
   22    20    23    1
   23    23    24    1
   24    23    25    1
   25    23    26    1
   26    26    27    1
   27    26    28    1
   28    26    29    1
@<TRIPOS>SUBSTRUCTURE
       1 MOL1            1 RESIDUE      1      MOL     
@<SCITEGIC>MOL_PROPERTY
VM2 Rank
SciTegic.value.IntegerValue
465

@<SCITEGIC>MOL_PROPERTY
Conf_Id
SciTegic.value.IntegerValue
1327

@<SCITEGIC>MOL_PROPERTY
Probability
SciTegic.value.DoubleValue
0.00

@<SCITEGIC>MOL_PROPERTY
Sum Probability
SciTegic.value.DoubleValue
100.00

@<SCITEGIC>MOL_PROPERTY
Delta G
SciTegic.value.DoubleValue
6.919

@<SCITEGIC>MOL_PROPERTY
G
SciTegic.value.DoubleValue
65.066

@<SCITEGIC>MOL_PROPERTY
E
SciTegic.value.DoubleValue
26.868

@<SCITEGIC>MOL_PROPERTY
-TS
SciTegic.value.DoubleValue
38.197

@<SCITEGIC>MOL_PROPERTY
U+W
SciTegic.value.DoubleValue
2.724

@<SCITEGIC>MOL_PROPERTY
U
SciTegic.value.DoubleValue
55.157

@<SCITEGIC>MOL_PROPERTY
W
SciTegic.value.DoubleValue
-52.433

@<SCITEGIC>MOL_PROPERTY
W(PB)
SciTegic.value.DoubleValue
-54.804

@<SCITEGIC>MOL_PROPERTY
W(SA)
SciTegic.value.DoubleValue
2.371

@<SCITEGIC>MOL_PROPERTY
Valence
SciTegic.value.DoubleValue
8.243

@<SCITEGIC>MOL_PROPERTY
Coulomb
SciTegic.value.DoubleValue
46.333

@<SCITEGIC>MOL_PROPERTY
VdW
SciTegic.value.DoubleValue
0.581

@<SCITEGIC>MOL_PROPERTY
VdW6
SciTegic.value.DoubleValue
-10.567

@<SCITEGIC>MOL_PROPERTY
VdW12
SciTegic.value.DoubleValue
11.148

@<SCITEGIC>MOL_PROPERTY
Bond
SciTegic.value.DoubleValue
0.304

@<SCITEGIC>MOL_PROPERTY
Angle
SciTegic.value.DoubleValue
1.956

@<SCITEGIC>MOL_PROPERTY
Pdih
SciTegic.value.DoubleValue
5.982

@<SCITEGIC>MOL_PROPERTY
Idih
SciTegic.value.DoubleValue
0.000

@<SCITEGIC>MOL_PROPERTY
Tether
SciTegic.value.DoubleValue
0.000

@<TRIPOS>MOLECULE
guest-3_vm2.mol2 : vm2 ligand conformer 466
          29          28           1
SMALL
USER_CHARGES
 
@<TRIPOS>ATOM
       1    C1      21.407118   19.371706   21.549053 C.3        1 MOL1        -0.2427
       2    H1      21.766106   18.490363   21.001804 H          1 MOL1         0.0958
       3    H2      22.113112   20.190784   21.360298 H          1 MOL1         0.0958
       4    H3      21.443401   19.140490   22.618758 H          1 MOL1         0.0958
       5    C2      19.985169   19.765351   21.085665 C.3        1 MOL1        -0.1412
       6    H4      20.029738   19.990410   20.010845 H          1 MOL1         0.0947
       7    H5      19.666719   20.695888   21.575812 H          1 MOL1         0.0947
       8    C3      18.934006   18.648723   21.313801 C.3        1 MOL1        -0.1437
       9    H6      18.224029   18.670679   20.475467 H          1 MOL1         0.0947
      10    H7      19.413185   17.661014   21.269299 H          1 MOL1         0.0947
      11    C4      18.113837   18.784240   22.622695 C.3        1 MOL1        -0.1437
      12    H8      17.366600   17.979016   22.643583 H          1 MOL1         0.0947
      13    H9      17.548194   19.726000   22.602524 H          1 MOL1         0.0947
      14    C5      18.960950   18.721971   23.914635 C.3        1 MOL1        -0.1437
      15    H10     19.592908   17.823467   23.895833 H          1 MOL1         0.0947
      16    H11     19.620073   19.596491   23.945242 H          1 MOL1         0.0947
      17    C6      18.073358   18.708528   25.181647 C.3        1 MOL1        -0.1437
      18    H12     17.318282   17.916886   25.079345 H          1 MOL1         0.0947
      19    H13     17.518083   19.654239   25.250427 H          1 MOL1         0.0947
      20    C7      18.846606   18.466555   26.503167 C.3        1 MOL1        -0.1477
      21    H14     18.110006   18.387643   27.313746 H          1 MOL1         0.0947
      22    H15     19.364518   17.498753   26.471583 H          1 MOL1         0.0947
      23    C8      19.839489   19.585836   26.879433 C.3        1 MOL1         0.0145
      24    H16     20.033210   19.542703   27.954649 H          1 MOL1         0.0921
      25    H17     19.402334   20.561887   26.652493 H          1 MOL1         0.0921
      26    N1      21.183467   19.485091   26.184904 N.4        1 MOL1        -0.5969
      27    H18     21.660574   18.605788   26.410116 H          1 MOL1         0.3603
      28    H19     21.812473   20.246465   26.463327 H          1 MOL1         0.3603
      29    H20     21.087327   19.526988   25.166670 H          1 MOL1         0.3603
@<TRIPOS>BOND
    1     1     2    1
    2     1     3    1
    3     1     4    1
    4     1     5    1
    5     5     6    1
    6     5     7    1
    7     5     8    1
    8     8     9    1
    9     8    10    1
   10     8    11    1
   11    11    12    1
   12    11    13    1
   13    11    14    1
   14    14    15    1
   15    14    16    1
   16    14    17    1
   17    17    18    1
   18    17    19    1
   19    17    20    1
   20    20    21    1
   21    20    22    1
   22    20    23    1
   23    23    24    1
   24    23    25    1
   25    23    26    1
   26    26    27    1
   27    26    28    1
   28    26    29    1
@<TRIPOS>SUBSTRUCTURE
       1 MOL1            1 RESIDUE      1      MOL     
@<SCITEGIC>MOL_PROPERTY
VM2 Rank
SciTegic.value.IntegerValue
466

@<SCITEGIC>MOL_PROPERTY
Conf_Id
SciTegic.value.IntegerValue
967

@<SCITEGIC>MOL_PROPERTY
Probability
SciTegic.value.DoubleValue
0.00

@<SCITEGIC>MOL_PROPERTY
Sum Probability
SciTegic.value.DoubleValue
100.00

@<SCITEGIC>MOL_PROPERTY
Delta G
SciTegic.value.DoubleValue
6.974

@<SCITEGIC>MOL_PROPERTY
G
SciTegic.value.DoubleValue
65.120

@<SCITEGIC>MOL_PROPERTY
E
SciTegic.value.DoubleValue
27.478

@<SCITEGIC>MOL_PROPERTY
-TS
SciTegic.value.DoubleValue
37.642

@<SCITEGIC>MOL_PROPERTY
U+W
SciTegic.value.DoubleValue
3.333

@<SCITEGIC>MOL_PROPERTY
U
SciTegic.value.DoubleValue
55.357

@<SCITEGIC>MOL_PROPERTY
W
SciTegic.value.DoubleValue
-52.023

@<SCITEGIC>MOL_PROPERTY
W(PB)
SciTegic.value.DoubleValue
-54.422

@<SCITEGIC>MOL_PROPERTY
W(SA)
SciTegic.value.DoubleValue
2.399

@<SCITEGIC>MOL_PROPERTY
Valence
SciTegic.value.DoubleValue
7.162

@<SCITEGIC>MOL_PROPERTY
Coulomb
SciTegic.value.DoubleValue
47.546

@<SCITEGIC>MOL_PROPERTY
VdW
SciTegic.value.DoubleValue
0.649

@<SCITEGIC>MOL_PROPERTY
VdW6
SciTegic.value.DoubleValue
-10.234

@<SCITEGIC>MOL_PROPERTY
VdW12
SciTegic.value.DoubleValue
10.883

@<SCITEGIC>MOL_PROPERTY
Bond
SciTegic.value.DoubleValue
0.291

@<SCITEGIC>MOL_PROPERTY
Angle
SciTegic.value.DoubleValue
1.731

@<SCITEGIC>MOL_PROPERTY
Pdih
SciTegic.value.DoubleValue
5.140

@<SCITEGIC>MOL_PROPERTY
Idih
SciTegic.value.DoubleValue
0.000

@<SCITEGIC>MOL_PROPERTY
Tether
SciTegic.value.DoubleValue
0.000

@<TRIPOS>MOLECULE
guest-3_vm2.mol2 : vm2 ligand conformer 467
          29          28           1
SMALL
USER_CHARGES
 
@<TRIPOS>ATOM
       1    C1      21.302348   19.538441   22.100552 C.3        1 MOL1        -0.2427
       2    H1      21.811190   18.905573   21.361977 H          1 MOL1         0.0958
       3    H2      21.967811   20.379947   22.332412 H          1 MOL1         0.0958
       4    H3      21.177809   18.950416   23.015842 H          1 MOL1         0.0958
       5    C2      19.952616   20.052195   21.546931 C.3        1 MOL1        -0.1412
       6    H4      20.163265   20.630705   20.636555 H          1 MOL1         0.0947
       7    H5      19.487742   20.758848   22.247304 H          1 MOL1         0.0947
       8    C3      18.960824   18.917137   21.186897 C.3        1 MOL1        -0.1437
       9    H6      18.379612   19.245841   20.314254 H          1 MOL1         0.0947
      10    H7      19.510190   18.026277   20.852805 H          1 MOL1         0.0947
      11    C4      17.943868   18.531347   22.295482 C.3        1 MOL1        -0.1437
      12    H8      17.241360   17.810601   21.854616 H          1 MOL1         0.0947
      13    H9      17.334149   19.403662   22.568160 H          1 MOL1         0.0947
      14    C5      18.551417   17.882198   23.564874 C.3        1 MOL1        -0.1437
      15    H10     17.850096   17.121827   23.935497 H          1 MOL1         0.0947
      16    H11     19.471416   17.340753   23.307349 H          1 MOL1         0.0947
      17    C6      18.808326   18.893759   24.708286 C.3        1 MOL1        -0.1437
      18    H12     17.854478   19.344605   25.015334 H          1 MOL1         0.0947
      19    H13     19.439066   19.714737   24.351097 H          1 MOL1         0.0947
      20    C7      19.473239   18.218359   25.930542 C.3        1 MOL1        -0.1477
      21    H14     18.841274   17.389569   26.276444 H          1 MOL1         0.0947
      22    H15     20.436242   17.778048   25.639573 H          1 MOL1         0.0947
      23    C8      19.688021   19.192632   27.104550 C.3        1 MOL1         0.0145
      24    H16     20.076182   18.642566   27.966104 H          1 MOL1         0.0921
      25    H17     18.733149   19.642807   27.389031 H          1 MOL1         0.0921
      26    N1      20.663342   20.311932   26.796886 N.4        1 MOL1        -0.5969
      27    H18     21.589351   19.950736   26.545407 H          1 MOL1         0.3603
      28    H19     20.792772   20.935090   27.601590 H          1 MOL1         0.3603
      29    H20     20.340644   20.891987   26.016205 H          1 MOL1         0.3603
@<TRIPOS>BOND
    1     1     2    1
    2     1     3    1
    3     1     4    1
    4     1     5    1
    5     5     6    1
    6     5     7    1
    7     5     8    1
    8     8     9    1
    9     8    10    1
   10     8    11    1
   11    11    12    1
   12    11    13    1
   13    11    14    1
   14    14    15    1
   15    14    16    1
   16    14    17    1
   17    17    18    1
   18    17    19    1
   19    17    20    1
   20    20    21    1
   21    20    22    1
   22    20    23    1
   23    23    24    1
   24    23    25    1
   25    23    26    1
   26    26    27    1
   27    26    28    1
   28    26    29    1
@<TRIPOS>SUBSTRUCTURE
       1 MOL1            1 RESIDUE      1      MOL     
@<SCITEGIC>MOL_PROPERTY
VM2 Rank
SciTegic.value.IntegerValue
467

@<SCITEGIC>MOL_PROPERTY
Conf_Id
SciTegic.value.IntegerValue
1937

@<SCITEGIC>MOL_PROPERTY
Probability
SciTegic.value.DoubleValue
0.00

@<SCITEGIC>MOL_PROPERTY
Sum Probability
SciTegic.value.DoubleValue
100.00

@<SCITEGIC>MOL_PROPERTY
Delta G
SciTegic.value.DoubleValue
6.979

@<SCITEGIC>MOL_PROPERTY
G
SciTegic.value.DoubleValue
65.126

@<SCITEGIC>MOL_PROPERTY
E
SciTegic.value.DoubleValue
26.929

@<SCITEGIC>MOL_PROPERTY
-TS
SciTegic.value.DoubleValue
38.197

@<SCITEGIC>MOL_PROPERTY
U+W
SciTegic.value.DoubleValue
2.784

@<SCITEGIC>MOL_PROPERTY
U
SciTegic.value.DoubleValue
55.157

@<SCITEGIC>MOL_PROPERTY
W
SciTegic.value.DoubleValue
-52.373

@<SCITEGIC>MOL_PROPERTY
W(PB)
SciTegic.value.DoubleValue
-54.750

@<SCITEGIC>MOL_PROPERTY
W(SA)
SciTegic.value.DoubleValue
2.377

@<SCITEGIC>MOL_PROPERTY
Valence
SciTegic.value.DoubleValue
8.243

@<SCITEGIC>MOL_PROPERTY
Coulomb
SciTegic.value.DoubleValue
46.333

@<SCITEGIC>MOL_PROPERTY
VdW
SciTegic.value.DoubleValue
0.581

@<SCITEGIC>MOL_PROPERTY
VdW6
SciTegic.value.DoubleValue
-10.567

@<SCITEGIC>MOL_PROPERTY
VdW12
SciTegic.value.DoubleValue
11.148

@<SCITEGIC>MOL_PROPERTY
Bond
SciTegic.value.DoubleValue
0.304

@<SCITEGIC>MOL_PROPERTY
Angle
SciTegic.value.DoubleValue
1.956

@<SCITEGIC>MOL_PROPERTY
Pdih
SciTegic.value.DoubleValue
5.983

@<SCITEGIC>MOL_PROPERTY
Idih
SciTegic.value.DoubleValue
0.000

@<SCITEGIC>MOL_PROPERTY
Tether
SciTegic.value.DoubleValue
0.000

@<TRIPOS>MOLECULE
guest-3_vm2.mol2 : vm2 ligand conformer 468
          29          28           1
SMALL
USER_CHARGES
 
@<TRIPOS>ATOM
       1    C1      19.541900   20.407060   20.381725 C.3        1 MOL1        -0.2427
       2    H1      20.184071   20.984058   21.057942 H          1 MOL1         0.0958
       3    H2      20.162404   20.031811   19.557623 H          1 MOL1         0.0958
       4    H3      18.804178   21.099632   19.956262 H          1 MOL1         0.0958
       5    C2      18.832368   19.246167   21.115820 C.3        1 MOL1        -0.1412
       6    H4      18.135071   18.766262   20.415058 H          1 MOL1         0.0947
       7    H5      18.216621   19.649374   21.928681 H          1 MOL1         0.0947
       8    C3      19.813459   18.169922   21.648447 C.3        1 MOL1        -0.1437
       9    H6      19.252256   17.269675   21.933964 H          1 MOL1         0.0947
      10    H7      20.463277   17.858671   20.818943 H          1 MOL1         0.0947
      11    C4      20.703914   18.623893   22.837353 C.3        1 MOL1        -0.1437
      12    H8      20.900533   19.702084   22.790772 H          1 MOL1         0.0947
      13    H9      21.685363   18.142127   22.728421 H          1 MOL1         0.0947
      14    C5      20.156241   18.249697   24.238834 C.3        1 MOL1        -0.1437
      15    H10     20.059355   17.157604   24.310693 H          1 MOL1         0.0947
      16    H11     20.911023   18.533369   24.979875 H          1 MOL1         0.0947
      17    C6      18.796976   18.907074   24.584832 C.3        1 MOL1        -0.1437
      18    H12     18.035702   18.498561   23.907739 H          1 MOL1         0.0947
      19    H13     18.834856   19.988715   24.395515 H          1 MOL1         0.0947
      20    C7      18.325237   18.642603   26.037793 C.3        1 MOL1        -0.1477
      21    H14     17.228248   18.690437   26.054232 H          1 MOL1         0.0947
      22    H15     18.586542   17.622699   26.349807 H          1 MOL1         0.0947
      23    C8      18.840619   19.668713   27.069280 C.3        1 MOL1         0.0145
      24    H16     18.344180   19.491218   28.027155 H          1 MOL1         0.0921
      25    H17     18.585158   20.679175   26.739144 H          1 MOL1         0.0921
      26    N1      20.333285   19.622871   27.320915 N.4        1 MOL1        -0.5969
      27    H18     20.863123   19.836362   26.470398 H          1 MOL1         0.3603
      28    H19     20.635400   18.699332   27.647839 H          1 MOL1         0.3603
      29    H20     20.619757   20.303250   28.033366 H          1 MOL1         0.3603
@<TRIPOS>BOND
    1     1     2    1
    2     1     3    1
    3     1     4    1
    4     1     5    1
    5     5     6    1
    6     5     7    1
    7     5     8    1
    8     8     9    1
    9     8    10    1
   10     8    11    1
   11    11    12    1
   12    11    13    1
   13    11    14    1
   14    14    15    1
   15    14    16    1
   16    14    17    1
   17    17    18    1
   18    17    19    1
   19    17    20    1
   20    20    21    1
   21    20    22    1
   22    20    23    1
   23    23    24    1
   24    23    25    1
   25    23    26    1
   26    26    27    1
   27    26    28    1
   28    26    29    1
@<TRIPOS>SUBSTRUCTURE
       1 MOL1            1 RESIDUE      1      MOL     
@<SCITEGIC>MOL_PROPERTY
VM2 Rank
SciTegic.value.IntegerValue
468

@<SCITEGIC>MOL_PROPERTY
Conf_Id
SciTegic.value.IntegerValue
2016

@<SCITEGIC>MOL_PROPERTY
Probability
SciTegic.value.DoubleValue
0.00

@<SCITEGIC>MOL_PROPERTY
Sum Probability
SciTegic.value.DoubleValue
100.00

@<SCITEGIC>MOL_PROPERTY
Delta G
SciTegic.value.DoubleValue
7.009

@<SCITEGIC>MOL_PROPERTY
G
SciTegic.value.DoubleValue
65.156

@<SCITEGIC>MOL_PROPERTY
E
SciTegic.value.DoubleValue
27.645

@<SCITEGIC>MOL_PROPERTY
-TS
SciTegic.value.DoubleValue
37.511

@<SCITEGIC>MOL_PROPERTY
U+W
SciTegic.value.DoubleValue
3.500

@<SCITEGIC>MOL_PROPERTY
U
SciTegic.value.DoubleValue
55.614

@<SCITEGIC>MOL_PROPERTY
W
SciTegic.value.DoubleValue
-52.114

@<SCITEGIC>MOL_PROPERTY
W(PB)
SciTegic.value.DoubleValue
-54.516

@<SCITEGIC>MOL_PROPERTY
W(SA)
SciTegic.value.DoubleValue
2.402

@<SCITEGIC>MOL_PROPERTY
Valence
SciTegic.value.DoubleValue
8.344

@<SCITEGIC>MOL_PROPERTY
Coulomb
SciTegic.value.DoubleValue
46.232

@<SCITEGIC>MOL_PROPERTY
VdW
SciTegic.value.DoubleValue
1.039

@<SCITEGIC>MOL_PROPERTY
VdW6
SciTegic.value.DoubleValue
-10.400

@<SCITEGIC>MOL_PROPERTY
VdW12
SciTegic.value.DoubleValue
11.439

@<SCITEGIC>MOL_PROPERTY
Bond
SciTegic.value.DoubleValue
0.346

@<SCITEGIC>MOL_PROPERTY
Angle
SciTegic.value.DoubleValue
2.025

@<SCITEGIC>MOL_PROPERTY
Pdih
SciTegic.value.DoubleValue
5.972

@<SCITEGIC>MOL_PROPERTY
Idih
SciTegic.value.DoubleValue
0.000

@<SCITEGIC>MOL_PROPERTY
Tether
SciTegic.value.DoubleValue
0.000

@<TRIPOS>MOLECULE
guest-3_vm2.mol2 : vm2 ligand conformer 469
          29          28           1
SMALL
USER_CHARGES
 
@<TRIPOS>ATOM
       1    C1      19.145190   17.582503   20.899658 C.3        1 MOL1        -0.2427
       2    H1      19.704189   17.764931   19.972727 H          1 MOL1         0.0958
       3    H2      18.897384   16.513782   20.935891 H          1 MOL1         0.0958
       4    H3      18.201266   18.138005   20.844887 H          1 MOL1         0.0958
       5    C2      19.976745   17.986374   22.138612 C.3        1 MOL1        -0.1412
       6    H4      20.858826   17.333376   22.193536 H          1 MOL1         0.0947
       7    H5      19.395498   17.789372   23.046745 H          1 MOL1         0.0947
       8    C3      20.456840   19.460456   22.098241 C.3        1 MOL1        -0.1437
       9    H6      21.237297   19.621112   22.853679 H          1 MOL1         0.0947
      10    H7      20.951343   19.629425   21.131739 H          1 MOL1         0.0947
      11    C4      19.338158   20.522238   22.274419 C.3        1 MOL1        -0.1437
      12    H8      18.390478   20.166025   21.852194 H          1 MOL1         0.0947
      13    H9      19.613260   21.396997   21.669185 H          1 MOL1         0.0947
      14    C5      19.111282   21.025073   23.725941 C.3        1 MOL1        -0.1437
      15    H10     20.035979   21.467307   24.121501 H          1 MOL1         0.0947
      16    H11     18.391241   21.853442   23.673238 H          1 MOL1         0.0947
      17    C6      18.550003   19.974469   24.717519 C.3        1 MOL1        -0.1437
      18    H12     17.935998   19.238530   24.181237 H          1 MOL1         0.0947
      19    H13     17.867626   20.483328   25.412580 H          1 MOL1         0.0947
      20    C7      19.645406   19.272340   25.555032 C.3        1 MOL1        -0.1477
      21    H14     20.387444   18.798977   24.902891 H          1 MOL1         0.0947
      22    H15     20.182771   20.019574   26.153986 H          1 MOL1         0.0947
      23    C8      19.040601   18.210545   26.489729 C.3        1 MOL1         0.0145
      24    H16     18.516703   17.454913   25.898152 H          1 MOL1         0.0921
      25    H17     18.319642   18.681027   27.163749 H          1 MOL1         0.0921
      26    N1      20.079774   17.504002   27.335848 N.4        1 MOL1        -0.5969
      27    H18     20.774331   17.016589   26.760235 H          1 MOL1         0.3603
      28    H19     19.655539   16.801520   27.951652 H          1 MOL1         0.3603
      29    H20     20.591071   18.158418   27.937342 H          1 MOL1         0.3603
@<TRIPOS>BOND
    1     1     2    1
    2     1     3    1
    3     1     4    1
    4     1     5    1
    5     5     6    1
    6     5     7    1
    7     5     8    1
    8     8     9    1
    9     8    10    1
   10     8    11    1
   11    11    12    1
   12    11    13    1
   13    11    14    1
   14    14    15    1
   15    14    16    1
   16    14    17    1
   17    17    18    1
   18    17    19    1
   19    17    20    1
   20    20    21    1
   21    20    22    1
   22    20    23    1
   23    23    24    1
   24    23    25    1
   25    23    26    1
   26    26    27    1
   27    26    28    1
   28    26    29    1
@<TRIPOS>SUBSTRUCTURE
       1 MOL1            1 RESIDUE      1      MOL     
@<SCITEGIC>MOL_PROPERTY
VM2 Rank
SciTegic.value.IntegerValue
469

@<SCITEGIC>MOL_PROPERTY
Conf_Id
SciTegic.value.IntegerValue
995

@<SCITEGIC>MOL_PROPERTY
Probability
SciTegic.value.DoubleValue
0.00

@<SCITEGIC>MOL_PROPERTY
Sum Probability
SciTegic.value.DoubleValue
100.00

@<SCITEGIC>MOL_PROPERTY
Delta G
SciTegic.value.DoubleValue
7.031

@<SCITEGIC>MOL_PROPERTY
G
SciTegic.value.DoubleValue
65.178

@<SCITEGIC>MOL_PROPERTY
E
SciTegic.value.DoubleValue
27.068

@<SCITEGIC>MOL_PROPERTY
-TS
SciTegic.value.DoubleValue
38.110

@<SCITEGIC>MOL_PROPERTY
U+W
SciTegic.value.DoubleValue
2.923

@<SCITEGIC>MOL_PROPERTY
U
SciTegic.value.DoubleValue
55.529

@<SCITEGIC>MOL_PROPERTY
W
SciTegic.value.DoubleValue
-52.606

@<SCITEGIC>MOL_PROPERTY
W(PB)
SciTegic.value.DoubleValue
-55.025

@<SCITEGIC>MOL_PROPERTY
W(SA)
SciTegic.value.DoubleValue
2.419

@<SCITEGIC>MOL_PROPERTY
Valence
SciTegic.value.DoubleValue
8.892

@<SCITEGIC>MOL_PROPERTY
Coulomb
SciTegic.value.DoubleValue
46.031

@<SCITEGIC>MOL_PROPERTY
VdW
SciTegic.value.DoubleValue
0.606

@<SCITEGIC>MOL_PROPERTY
VdW6
SciTegic.value.DoubleValue
-10.528

@<SCITEGIC>MOL_PROPERTY
VdW12
SciTegic.value.DoubleValue
11.133

@<SCITEGIC>MOL_PROPERTY
Bond
SciTegic.value.DoubleValue
0.331

@<SCITEGIC>MOL_PROPERTY
Angle
SciTegic.value.DoubleValue
2.235

@<SCITEGIC>MOL_PROPERTY
Pdih
SciTegic.value.DoubleValue
6.326

@<SCITEGIC>MOL_PROPERTY
Idih
SciTegic.value.DoubleValue
0.000

@<SCITEGIC>MOL_PROPERTY
Tether
SciTegic.value.DoubleValue
0.000

@<TRIPOS>MOLECULE
guest-3_vm2.mol2 : vm2 ligand conformer 470
          29          28           1
SMALL
USER_CHARGES
 
@<TRIPOS>ATOM
       1    C1      20.851241   17.659931   21.722185 C.3        1 MOL1        -0.2427
       2    H1      20.137619   16.989681   22.216547 H          1 MOL1         0.0958
       3    H2      21.325700   17.094189   20.909956 H          1 MOL1         0.0958
       4    H3      21.633485   17.925673   22.444712 H          1 MOL1         0.0958
       5    C2      20.156814   18.923326   21.164658 C.3        1 MOL1        -0.1412
       6    H4      19.378131   18.632447   20.445821 H          1 MOL1         0.0947
       7    H5      20.894297   19.509223   20.598473 H          1 MOL1         0.0947
       8    C3      19.545201   19.824433   22.263903 C.3        1 MOL1        -0.1437
       9    H6      20.323047   20.097415   22.986715 H          1 MOL1         0.0947
      10    H7      19.223150   20.766837   21.799880 H          1 MOL1         0.0947
      11    C4      18.326994   19.183458   22.977793 C.3        1 MOL1        -0.1437
      12    H8      18.574218   18.197476   23.389246 H          1 MOL1         0.0947
      13    H9      17.548899   19.004390   22.223039 H          1 MOL1         0.0947
      14    C5      17.733709   20.084236   24.090876 C.3        1 MOL1        -0.1437
      15    H10     17.939774   21.141696   23.875425 H          1 MOL1         0.0947
      16    H11     16.639707   19.987685   24.055533 H          1 MOL1         0.0947
      17    C6      18.180394   19.741321   25.537781 C.3        1 MOL1        -0.1437
      18    H12     17.859846   18.723709   25.795599 H          1 MOL1         0.0947
      19    H13     17.622219   20.401799   26.215646 H          1 MOL1         0.0947
      20    C7      19.691377   19.927774   25.836990 C.3        1 MOL1        -0.1477
      21    H14     20.055143   20.838443   25.343536 H          1 MOL1         0.0947
      22    H15     19.821475   20.098436   26.913921 H          1 MOL1         0.0947
      23    C8      20.577085   18.730851   25.432472 C.3        1 MOL1         0.0145
      24    H16     21.626547   18.984604   25.604711 H          1 MOL1         0.0921
      25    H17     20.451514   18.511782   24.370792 H          1 MOL1         0.0921
      26    N1      20.281184   17.462670   26.208342 N.4        1 MOL1        -0.5969
      27    H18     20.411017   17.595978   27.216568 H          1 MOL1         0.3603
      28    H19     20.895581   16.691155   25.926369 H          1 MOL1         0.3603
      29    H20     19.316567   17.147879   26.066449 H          1 MOL1         0.3603
@<TRIPOS>BOND
    1     1     2    1
    2     1     3    1
    3     1     4    1
    4     1     5    1
    5     5     6    1
    6     5     7    1
    7     5     8    1
    8     8     9    1
    9     8    10    1
   10     8    11    1
   11    11    12    1
   12    11    13    1
   13    11    14    1
   14    14    15    1
   15    14    16    1
   16    14    17    1
   17    17    18    1
   18    17    19    1
   19    17    20    1
   20    20    21    1
   21    20    22    1
   22    20    23    1
   23    23    24    1
   24    23    25    1
   25    23    26    1
   26    26    27    1
   27    26    28    1
   28    26    29    1
@<TRIPOS>SUBSTRUCTURE
       1 MOL1            1 RESIDUE      1      MOL     
@<SCITEGIC>MOL_PROPERTY
VM2 Rank
SciTegic.value.IntegerValue
470

@<SCITEGIC>MOL_PROPERTY
Conf_Id
SciTegic.value.IntegerValue
1972

@<SCITEGIC>MOL_PROPERTY
Probability
SciTegic.value.DoubleValue
0.00

@<SCITEGIC>MOL_PROPERTY
Sum Probability
SciTegic.value.DoubleValue
100.00

@<SCITEGIC>MOL_PROPERTY
Delta G
SciTegic.value.DoubleValue
7.043

@<SCITEGIC>MOL_PROPERTY
G
SciTegic.value.DoubleValue
65.190

@<SCITEGIC>MOL_PROPERTY
E
SciTegic.value.DoubleValue
26.645

@<SCITEGIC>MOL_PROPERTY
-TS
SciTegic.value.DoubleValue
38.544

@<SCITEGIC>MOL_PROPERTY
U+W
SciTegic.value.DoubleValue
2.501

@<SCITEGIC>MOL_PROPERTY
U
SciTegic.value.DoubleValue
55.368

@<SCITEGIC>MOL_PROPERTY
W
SciTegic.value.DoubleValue
-52.868

@<SCITEGIC>MOL_PROPERTY
W(PB)
SciTegic.value.DoubleValue
-55.205

@<SCITEGIC>MOL_PROPERTY
W(SA)
SciTegic.value.DoubleValue
2.337

@<SCITEGIC>MOL_PROPERTY
Valence
SciTegic.value.DoubleValue
8.201

@<SCITEGIC>MOL_PROPERTY
Coulomb
SciTegic.value.DoubleValue
46.965

@<SCITEGIC>MOL_PROPERTY
VdW
SciTegic.value.DoubleValue
0.202

@<SCITEGIC>MOL_PROPERTY
VdW6
SciTegic.value.DoubleValue
-12.074

@<SCITEGIC>MOL_PROPERTY
VdW12
SciTegic.value.DoubleValue
12.276

@<SCITEGIC>MOL_PROPERTY
Bond
SciTegic.value.DoubleValue
0.335

@<SCITEGIC>MOL_PROPERTY
Angle
SciTegic.value.DoubleValue
2.164

@<SCITEGIC>MOL_PROPERTY
Pdih
SciTegic.value.DoubleValue
5.703

@<SCITEGIC>MOL_PROPERTY
Idih
SciTegic.value.DoubleValue
0.000

@<SCITEGIC>MOL_PROPERTY
Tether
SciTegic.value.DoubleValue
0.000

@<TRIPOS>MOLECULE
guest-3_vm2.mol2 : vm2 ligand conformer 471
          29          28           1
SMALL
USER_CHARGES
 
@<TRIPOS>ATOM
       1    C1      20.695695   17.804335   20.840524 C.3        1 MOL1        -0.2427
       2    H1      21.461209   17.606598   21.602092 H          1 MOL1         0.0958
       3    H2      20.416015   16.844831   20.386518 H          1 MOL1         0.0958
       4    H3      21.145293   18.429331   20.057930 H          1 MOL1         0.0958
       5    C2      19.462192   18.493970   21.460274 C.3        1 MOL1        -0.1412
       6    H4      19.011111   17.828180   22.205795 H          1 MOL1         0.0947
       7    H5      18.701989   18.645377   20.681254 H          1 MOL1         0.0947
       8    C3      19.828689   19.857269   22.094299 C.3        1 MOL1        -0.1437
       9    H6      20.666790   19.751342   22.795673 H          1 MOL1         0.0947
      10    H7      20.191571   20.516395   21.293537 H          1 MOL1         0.0947
      11    C4      18.630173   20.547062   22.793389 C.3        1 MOL1        -0.1437
      12    H8      17.685219   20.229861   22.331262 H          1 MOL1         0.0947
      13    H9      18.702522   21.625822   22.597369 H          1 MOL1         0.0947
      14    C5      18.557416   20.363319   24.333298 C.3        1 MOL1        -0.1437
      15    H10     19.456617   20.783289   24.801075 H          1 MOL1         0.0947
      16    H11     17.728289   20.988843   24.691863 H          1 MOL1         0.0947
      17    C6      18.297993   18.914382   24.828221 C.3        1 MOL1        -0.1437
      18    H12     17.661771   18.387083   24.105040 H          1 MOL1         0.0947
      19    H13     17.701659   18.963855   25.748901 H          1 MOL1         0.0947
      20    C7      19.571932   18.074367   25.118251 C.3        1 MOL1        -0.1477
      21    H14     19.270020   17.063587   25.422769 H          1 MOL1         0.0947
      22    H15     20.161367   17.946787   24.204390 H          1 MOL1         0.0947
      23    C8      20.487295   18.667744   26.208803 C.3        1 MOL1         0.0145
      24    H16     20.844768   19.652829   25.899313 H          1 MOL1         0.0921
      25    H17     21.357477   18.019374   26.342419 H          1 MOL1         0.0921
      26    N1      19.812616   18.815552   27.557941 N.4        1 MOL1        -0.5969
      27    H18     19.477426   17.915288   27.916031 H          1 MOL1         0.3603
      28    H19     19.003657   19.442680   27.507281 H          1 MOL1         0.3603
      29    H20     20.450182   19.201249   28.262986 H          1 MOL1         0.3603
@<TRIPOS>BOND
    1     1     2    1
    2     1     3    1
    3     1     4    1
    4     1     5    1
    5     5     6    1
    6     5     7    1
    7     5     8    1
    8     8     9    1
    9     8    10    1
   10     8    11    1
   11    11    12    1
   12    11    13    1
   13    11    14    1
   14    14    15    1
   15    14    16    1
   16    14    17    1
   17    17    18    1
   18    17    19    1
   19    17    20    1
   20    20    21    1
   21    20    22    1
   22    20    23    1
   23    23    24    1
   24    23    25    1
   25    23    26    1
   26    26    27    1
   27    26    28    1
   28    26    29    1
@<TRIPOS>SUBSTRUCTURE
       1 MOL1            1 RESIDUE      1      MOL     
@<SCITEGIC>MOL_PROPERTY
VM2 Rank
SciTegic.value.IntegerValue
471

@<SCITEGIC>MOL_PROPERTY
Conf_Id
SciTegic.value.IntegerValue
2603

@<SCITEGIC>MOL_PROPERTY
Probability
SciTegic.value.DoubleValue
0.00

@<SCITEGIC>MOL_PROPERTY
Sum Probability
SciTegic.value.DoubleValue
100.00

@<SCITEGIC>MOL_PROPERTY
Delta G
SciTegic.value.DoubleValue
7.125

@<SCITEGIC>MOL_PROPERTY
G
SciTegic.value.DoubleValue
65.271

@<SCITEGIC>MOL_PROPERTY
E
SciTegic.value.DoubleValue
27.009

@<SCITEGIC>MOL_PROPERTY
-TS
SciTegic.value.DoubleValue
38.262

@<SCITEGIC>MOL_PROPERTY
U+W
SciTegic.value.DoubleValue
2.865

@<SCITEGIC>MOL_PROPERTY
U
SciTegic.value.DoubleValue
55.319

@<SCITEGIC>MOL_PROPERTY
W
SciTegic.value.DoubleValue
-52.454

@<SCITEGIC>MOL_PROPERTY
W(PB)
SciTegic.value.DoubleValue
-54.845

@<SCITEGIC>MOL_PROPERTY
W(SA)
SciTegic.value.DoubleValue
2.391

@<SCITEGIC>MOL_PROPERTY
Valence
SciTegic.value.DoubleValue
8.750

@<SCITEGIC>MOL_PROPERTY
Coulomb
SciTegic.value.DoubleValue
45.963

@<SCITEGIC>MOL_PROPERTY
VdW
SciTegic.value.DoubleValue
0.605

@<SCITEGIC>MOL_PROPERTY
VdW6
SciTegic.value.DoubleValue
-11.304

@<SCITEGIC>MOL_PROPERTY
VdW12
SciTegic.value.DoubleValue
11.909

@<SCITEGIC>MOL_PROPERTY
Bond
SciTegic.value.DoubleValue
0.354

@<SCITEGIC>MOL_PROPERTY
Angle
SciTegic.value.DoubleValue
2.318

@<SCITEGIC>MOL_PROPERTY
Pdih
SciTegic.value.DoubleValue
6.078

@<SCITEGIC>MOL_PROPERTY
Idih
SciTegic.value.DoubleValue
0.000

@<SCITEGIC>MOL_PROPERTY
Tether
SciTegic.value.DoubleValue
0.000

@<TRIPOS>MOLECULE
guest-3_vm2.mol2 : vm2 ligand conformer 472
          29          28           1
SMALL
USER_CHARGES
 
@<TRIPOS>ATOM
       1    C1      20.919958   17.476292   21.618951 C.3        1 MOL1        -0.2427
       2    H1      21.769588   17.870295   22.191662 H          1 MOL1         0.0958
       3    H2      20.906254   16.385676   21.742746 H          1 MOL1         0.0958
       4    H3      21.093998   17.692664   20.556828 H          1 MOL1         0.0958
       5    C2      19.591537   18.096388   22.100211 C.3        1 MOL1        -0.1412
       6    H4      19.427738   17.826923   23.149304 H          1 MOL1         0.0947
       7    H5      18.759073   17.655921   21.533933 H          1 MOL1         0.0947
       8    C3      19.580353   19.633532   21.921316 C.3        1 MOL1        -0.1437
       9    H6      20.466275   20.088726   22.383326 H          1 MOL1         0.0947
      10    H7      19.660872   19.848723   20.846808 H          1 MOL1         0.0947
      11    C4      18.292267   20.306093   22.460408 C.3        1 MOL1        -0.1437
      12    H8      17.440705   19.616661   22.379124 H          1 MOL1         0.0947
      13    H9      18.050819   21.147268   21.795949 H          1 MOL1         0.0947
      14    C5      18.383427   20.873146   23.903423 C.3        1 MOL1        -0.1437
      15    H10     19.175309   21.632576   23.960121 H          1 MOL1         0.0947
      16    H11     17.446891   21.413782   24.098459 H          1 MOL1         0.0947
      17    C6      18.564885   19.823237   25.029626 C.3        1 MOL1        -0.1437
      18    H12     18.071498   18.884633   24.747389 H          1 MOL1         0.0947
      19    H13     18.035785   20.182414   25.923291 H          1 MOL1         0.0947
      20    C7      20.046406   19.586190   25.419701 C.3        1 MOL1        -0.1477
      21    H14     20.632592   19.245611   24.559441 H          1 MOL1         0.0947
      22    H15     20.490957   20.539045   25.736081 H          1 MOL1         0.0947
      23    C8      20.201021   18.574641   26.571125 C.3        1 MOL1         0.0145
      24    H16     19.611847   18.903125   27.431543 H          1 MOL1         0.0921
      25    H17     21.250519   18.527558   26.874163 H          1 MOL1         0.0921
      26    N1      19.764146   17.168481   26.210238 N.4        1 MOL1        -0.5969
      27    H18     19.887380   16.520197   26.995876 H          1 MOL1         0.3603
      28    H19     20.303909   16.792739   25.423881 H          1 MOL1         0.3603
      29    H20     18.774463   17.135466   25.946661 H          1 MOL1         0.3603
@<TRIPOS>BOND
    1     1     2    1
    2     1     3    1
    3     1     4    1
    4     1     5    1
    5     5     6    1
    6     5     7    1
    7     5     8    1
    8     8     9    1
    9     8    10    1
   10     8    11    1
   11    11    12    1
   12    11    13    1
   13    11    14    1
   14    14    15    1
   15    14    16    1
   16    14    17    1
   17    17    18    1
   18    17    19    1
   19    17    20    1
   20    20    21    1
   21    20    22    1
   22    20    23    1
   23    23    24    1
   24    23    25    1
   25    23    26    1
   26    26    27    1
   27    26    28    1
   28    26    29    1
@<TRIPOS>SUBSTRUCTURE
       1 MOL1            1 RESIDUE      1      MOL     
@<SCITEGIC>MOL_PROPERTY
VM2 Rank
SciTegic.value.IntegerValue
472

@<SCITEGIC>MOL_PROPERTY
Conf_Id
SciTegic.value.IntegerValue
2563

@<SCITEGIC>MOL_PROPERTY
Probability
SciTegic.value.DoubleValue
0.00

@<SCITEGIC>MOL_PROPERTY
Sum Probability
SciTegic.value.DoubleValue
100.00

@<SCITEGIC>MOL_PROPERTY
Delta G
SciTegic.value.DoubleValue
7.165

@<SCITEGIC>MOL_PROPERTY
G
SciTegic.value.DoubleValue
65.311

@<SCITEGIC>MOL_PROPERTY
E
SciTegic.value.DoubleValue
26.981

@<SCITEGIC>MOL_PROPERTY
-TS
SciTegic.value.DoubleValue
38.330

@<SCITEGIC>MOL_PROPERTY
U+W
SciTegic.value.DoubleValue
2.837

@<SCITEGIC>MOL_PROPERTY
U
SciTegic.value.DoubleValue
55.689

@<SCITEGIC>MOL_PROPERTY
W
SciTegic.value.DoubleValue
-52.852

@<SCITEGIC>MOL_PROPERTY
W(PB)
SciTegic.value.DoubleValue
-55.194

@<SCITEGIC>MOL_PROPERTY
W(SA)
SciTegic.value.DoubleValue
2.341

@<SCITEGIC>MOL_PROPERTY
Valence
SciTegic.value.DoubleValue
8.280

@<SCITEGIC>MOL_PROPERTY
Coulomb
SciTegic.value.DoubleValue
47.124

@<SCITEGIC>MOL_PROPERTY
VdW
SciTegic.value.DoubleValue
0.285

@<SCITEGIC>MOL_PROPERTY
VdW6
SciTegic.value.DoubleValue
-11.008

@<SCITEGIC>MOL_PROPERTY
VdW12
SciTegic.value.DoubleValue
11.292

@<SCITEGIC>MOL_PROPERTY
Bond
SciTegic.value.DoubleValue
0.312

@<SCITEGIC>MOL_PROPERTY
Angle
SciTegic.value.DoubleValue
2.003

@<SCITEGIC>MOL_PROPERTY
Pdih
SciTegic.value.DoubleValue
5.965

@<SCITEGIC>MOL_PROPERTY
Idih
SciTegic.value.DoubleValue
0.000

@<SCITEGIC>MOL_PROPERTY
Tether
SciTegic.value.DoubleValue
0.000

@<TRIPOS>MOLECULE
guest-3_vm2.mol2 : vm2 ligand conformer 473
          29          28           1
SMALL
USER_CHARGES
 
@<TRIPOS>ATOM
       1    C1      20.981984   19.687343   21.536519 C.3        1 MOL1        -0.2427
       2    H1      21.684436   20.374281   21.047136 H          1 MOL1         0.0958
       3    H2      21.158041   19.753619   22.617065 H          1 MOL1         0.0958
       4    H3      21.221588   18.668941   21.204464 H          1 MOL1         0.0958
       5    C2      19.526354   20.060704   21.180969 C.3        1 MOL1        -0.1412
       6    H4      19.439342   20.138697   20.088255 H          1 MOL1         0.0947
       7    H5      19.300421   21.060902   21.576220 H          1 MOL1         0.0947
       8    C3      18.465639   19.050400   21.688005 C.3        1 MOL1        -0.1437
       9    H6      17.483904   19.398028   21.337761 H          1 MOL1         0.0947
      10    H7      18.619605   18.071272   21.214041 H          1 MOL1         0.0947
      11    C4      18.403691   18.900116   23.230073 C.3        1 MOL1        -0.1437
      12    H8      17.356588   18.737175   23.520025 H          1 MOL1         0.0947
      13    H9      18.702986   19.843361   23.698986 H          1 MOL1         0.0947
      14    C5      19.240097   17.707157   23.762342 C.3        1 MOL1        -0.1437
      15    H10     18.840096   16.788915   23.310562 H          1 MOL1         0.0947
      16    H11     20.282259   17.771356   23.428133 H          1 MOL1         0.0947
      17    C6      19.193979   17.544543   25.303878 C.3        1 MOL1        -0.1437
      18    H12     19.313329   16.476613   25.533334 H          1 MOL1         0.0947
      19    H13     18.202570   17.817161   25.689419 H          1 MOL1         0.0947
      20    C7      20.309811   18.306712   26.067068 C.3        1 MOL1        -0.1477
      21    H14     20.267575   18.031925   27.129377 H          1 MOL1         0.0947
      22    H15     21.289700   17.966861   25.706436 H          1 MOL1         0.0947
      23    C8      20.248352   19.841507   25.951780 C.3        1 MOL1         0.0145
      24    H16     20.336520   20.138412   24.904192 H          1 MOL1         0.0921
      25    H17     21.088421   20.279054   26.497933 H          1 MOL1         0.0921
      26    N1      18.974094   20.439518   26.514367 N.4        1 MOL1        -0.5969
      27    H18     18.144977   20.079627   26.031778 H          1 MOL1         0.3603
      28    H19     18.960048   21.461365   26.425115 H          1 MOL1         0.3603
      29    H20     18.862616   20.223809   27.510485 H          1 MOL1         0.3603
@<TRIPOS>BOND
    1     1     2    1
    2     1     3    1
    3     1     4    1
    4     1     5    1
    5     5     6    1
    6     5     7    1
    7     5     8    1
    8     8     9    1
    9     8    10    1
   10     8    11    1
   11    11    12    1
   12    11    13    1
   13    11    14    1
   14    14    15    1
   15    14    16    1
   16    14    17    1
   17    17    18    1
   18    17    19    1
   19    17    20    1
   20    20    21    1
   21    20    22    1
   22    20    23    1
   23    23    24    1
   24    23    25    1
   25    23    26    1
   26    26    27    1
   27    26    28    1
   28    26    29    1
@<TRIPOS>SUBSTRUCTURE
       1 MOL1            1 RESIDUE      1      MOL     
@<SCITEGIC>MOL_PROPERTY
VM2 Rank
SciTegic.value.IntegerValue
473

@<SCITEGIC>MOL_PROPERTY
Conf_Id
SciTegic.value.IntegerValue
2653

@<SCITEGIC>MOL_PROPERTY
Probability
SciTegic.value.DoubleValue
0.00

@<SCITEGIC>MOL_PROPERTY
Sum Probability
SciTegic.value.DoubleValue
100.00

@<SCITEGIC>MOL_PROPERTY
Delta G
SciTegic.value.DoubleValue
7.170

@<SCITEGIC>MOL_PROPERTY
G
SciTegic.value.DoubleValue
65.316

@<SCITEGIC>MOL_PROPERTY
E
SciTegic.value.DoubleValue
27.004

@<SCITEGIC>MOL_PROPERTY
-TS
SciTegic.value.DoubleValue
38.312

@<SCITEGIC>MOL_PROPERTY
U+W
SciTegic.value.DoubleValue
2.860

@<SCITEGIC>MOL_PROPERTY
U
SciTegic.value.DoubleValue
55.529

@<SCITEGIC>MOL_PROPERTY
W
SciTegic.value.DoubleValue
-52.669

@<SCITEGIC>MOL_PROPERTY
W(PB)
SciTegic.value.DoubleValue
-55.020

@<SCITEGIC>MOL_PROPERTY
W(SA)
SciTegic.value.DoubleValue
2.351

@<SCITEGIC>MOL_PROPERTY
Valence
SciTegic.value.DoubleValue
8.223

@<SCITEGIC>MOL_PROPERTY
Coulomb
SciTegic.value.DoubleValue
46.889

@<SCITEGIC>MOL_PROPERTY
VdW
SciTegic.value.DoubleValue
0.417

@<SCITEGIC>MOL_PROPERTY
VdW6
SciTegic.value.DoubleValue
-11.433

@<SCITEGIC>MOL_PROPERTY
VdW12
SciTegic.value.DoubleValue
11.850

@<SCITEGIC>MOL_PROPERTY
Bond
SciTegic.value.DoubleValue
0.338

@<SCITEGIC>MOL_PROPERTY
Angle
SciTegic.value.DoubleValue
2.106

@<SCITEGIC>MOL_PROPERTY
Pdih
SciTegic.value.DoubleValue
5.779

@<SCITEGIC>MOL_PROPERTY
Idih
SciTegic.value.DoubleValue
0.000

@<SCITEGIC>MOL_PROPERTY
Tether
SciTegic.value.DoubleValue
0.000

@<TRIPOS>MOLECULE
guest-3_vm2.mol2 : vm2 ligand conformer 474
          29          28           1
SMALL
USER_CHARGES
 
@<TRIPOS>ATOM
       1    C1      21.386496   19.536139   21.509029 C.3        1 MOL1        -0.2427
       2    H1      21.228975   20.463263   22.073700 H          1 MOL1         0.0958
       3    H2      21.951134   18.837360   22.139169 H          1 MOL1         0.0958
       4    H3      22.012406   19.782473   20.641535 H          1 MOL1         0.0958
       5    C2      20.048543   18.914492   21.047648 C.3        1 MOL1        -0.1412
       6    H4      20.264302   18.049867   20.404470 H          1 MOL1         0.0947
       7    H5      19.501785   19.633655   20.421859 H          1 MOL1         0.0947
       8    C3      19.151050   18.450579   22.219522 C.3        1 MOL1        -0.1437
       9    H6      18.296507   17.896749   21.806932 H          1 MOL1         0.0947
      10    H7      19.711151   17.736078   22.834001 H          1 MOL1         0.0947
      11    C4      18.617708   19.623403   23.081965 C.3        1 MOL1        -0.1437
      12    H8      18.100638   20.331987   22.420450 H          1 MOL1         0.0947
      13    H9      19.447094   20.185513   23.519667 H          1 MOL1         0.0947
      14    C5      17.619205   19.182767   24.185066 C.3        1 MOL1        -0.1437
      15    H10     17.179749   20.074072   24.653475 H          1 MOL1         0.0947
      16    H11     16.782088   18.666922   23.694710 H          1 MOL1         0.0947
      17    C6      18.184053   18.250565   25.292732 C.3        1 MOL1        -0.1437
      18    H12     18.821435   17.467721   24.865903 H          1 MOL1         0.0947
      19    H13     17.333398   17.711985   25.732730 H          1 MOL1         0.0947
      20    C7      18.913585   18.970834   26.458851 C.3        1 MOL1        -0.1477
      21    H14     18.220554   19.673297   26.940425 H          1 MOL1         0.0947
      22    H15     19.168531   18.227127   27.225458 H          1 MOL1         0.0947
      23    C8      20.196715   19.732651   26.074750 C.3        1 MOL1         0.0145
      24    H16     20.662603   20.132768   26.979335 H          1 MOL1         0.0921
      25    H17     19.946574   20.575809   25.427358 H          1 MOL1         0.0921
      26    N1      21.226646   18.876570   25.365437 N.4        1 MOL1        -0.5969
      27    H18     20.856012   18.509811   24.482973 H          1 MOL1         0.3603
      28    H19     21.511536   18.075297   25.938502 H          1 MOL1         0.3603
      29    H20     22.076302   19.408019   25.145804 H          1 MOL1         0.3603
@<TRIPOS>BOND
    1     1     2    1
    2     1     3    1
    3     1     4    1
    4     1     5    1
    5     5     6    1
    6     5     7    1
    7     5     8    1
    8     8     9    1
    9     8    10    1
   10     8    11    1
   11    11    12    1
   12    11    13    1
   13    11    14    1
   14    14    15    1
   15    14    16    1
   16    14    17    1
   17    17    18    1
   18    17    19    1
   19    17    20    1
   20    20    21    1
   21    20    22    1
   22    20    23    1
   23    23    24    1
   24    23    25    1
   25    23    26    1
   26    26    27    1
   27    26    28    1
   28    26    29    1
@<TRIPOS>SUBSTRUCTURE
       1 MOL1            1 RESIDUE      1      MOL     
@<SCITEGIC>MOL_PROPERTY
VM2 Rank
SciTegic.value.IntegerValue
474

@<SCITEGIC>MOL_PROPERTY
Conf_Id
SciTegic.value.IntegerValue
2928

@<SCITEGIC>MOL_PROPERTY
Probability
SciTegic.value.DoubleValue
0.00

@<SCITEGIC>MOL_PROPERTY
Sum Probability
SciTegic.value.DoubleValue
100.00

@<SCITEGIC>MOL_PROPERTY
Delta G
SciTegic.value.DoubleValue
7.196

@<SCITEGIC>MOL_PROPERTY
G
SciTegic.value.DoubleValue
65.342

@<SCITEGIC>MOL_PROPERTY
E
SciTegic.value.DoubleValue
26.912

@<SCITEGIC>MOL_PROPERTY
-TS
SciTegic.value.DoubleValue
38.430

@<SCITEGIC>MOL_PROPERTY
U+W
SciTegic.value.DoubleValue
2.767

@<SCITEGIC>MOL_PROPERTY
U
SciTegic.value.DoubleValue
54.377

@<SCITEGIC>MOL_PROPERTY
W
SciTegic.value.DoubleValue
-51.610

@<SCITEGIC>MOL_PROPERTY
W(PB)
SciTegic.value.DoubleValue
-53.922

@<SCITEGIC>MOL_PROPERTY
W(SA)
SciTegic.value.DoubleValue
2.311

@<SCITEGIC>MOL_PROPERTY
Valence
SciTegic.value.DoubleValue
6.450

@<SCITEGIC>MOL_PROPERTY
Coulomb
SciTegic.value.DoubleValue
47.649

@<SCITEGIC>MOL_PROPERTY
VdW
SciTegic.value.DoubleValue
0.278

@<SCITEGIC>MOL_PROPERTY
VdW6
SciTegic.value.DoubleValue
-11.848

@<SCITEGIC>MOL_PROPERTY
VdW12
SciTegic.value.DoubleValue
12.127

@<SCITEGIC>MOL_PROPERTY
Bond
SciTegic.value.DoubleValue
0.365

@<SCITEGIC>MOL_PROPERTY
Angle
SciTegic.value.DoubleValue
2.433

@<SCITEGIC>MOL_PROPERTY
Pdih
SciTegic.value.DoubleValue
3.651

@<SCITEGIC>MOL_PROPERTY
Idih
SciTegic.value.DoubleValue
0.000

@<SCITEGIC>MOL_PROPERTY
Tether
SciTegic.value.DoubleValue
0.000

@<TRIPOS>MOLECULE
guest-3_vm2.mol2 : vm2 ligand conformer 475
          29          28           1
SMALL
USER_CHARGES
 
@<TRIPOS>ATOM
       1    C1      21.629471   19.468309   21.663471 C.3        1 MOL1        -0.2427
       2    H1      22.306252   20.316225   21.830688 H          1 MOL1         0.0958
       3    H2      22.030823   18.603693   22.207957 H          1 MOL1         0.0958
       4    H3      21.642614   19.233086   20.591227 H          1 MOL1         0.0958
       5    C2      20.201413   19.808612   22.138527 C.3        1 MOL1        -0.1412
       6    H4      19.842614   20.698057   21.602031 H          1 MOL1         0.0947
       7    H5      20.229956   20.079034   23.199703 H          1 MOL1         0.0947
       8    C3      19.223983   18.632953   21.898958 C.3        1 MOL1        -0.1437
       9    H6      19.165596   18.458125   20.815729 H          1 MOL1         0.0947
      10    H7      19.616356   17.702490   22.329998 H          1 MOL1         0.0947
      11    C4      17.793198   18.904884   22.429084 C.3        1 MOL1        -0.1437
      12    H8      17.083962   18.432661   21.735276 H          1 MOL1         0.0947
      13    H9      17.570057   19.979843   22.387219 H          1 MOL1         0.0947
      14    C5      17.485171   18.351142   23.847053 C.3        1 MOL1        -0.1437
      15    H10     16.415031   18.516646   24.033694 H          1 MOL1         0.0947
      16    H11     17.618223   17.260690   23.862419 H          1 MOL1         0.0947
      17    C6      18.273259   19.004572   25.011321 C.3        1 MOL1        -0.1437
      18    H12     17.623619   19.025514   25.897391 H          1 MOL1         0.0947
      19    H13     18.488018   20.054033   24.773466 H          1 MOL1         0.0947
      20    C7      19.565588   18.236447   25.389642 C.3        1 MOL1        -0.1477
      21    H14     19.303483   17.205485   25.661810 H          1 MOL1         0.0947
      22    H15     20.247208   18.163647   24.535387 H          1 MOL1         0.0947
      23    C8      20.308322   18.876206   26.577906 C.3        1 MOL1         0.0145
      24    H16     21.146988   18.237429   26.867902 H          1 MOL1         0.0921
      25    H17     19.631985   18.960364   27.432793 H          1 MOL1         0.0921
      26    N1      20.863594   20.254876   26.279037 N.4        1 MOL1        -0.5969
      27    H18     21.530516   20.235576   25.500753 H          1 MOL1         0.3603
      28    H19     21.357563   20.647788   27.087926 H          1 MOL1         0.3603
      29    H20     20.121349   20.916271   26.030715 H          1 MOL1         0.3603
@<TRIPOS>BOND
    1     1     2    1
    2     1     3    1
    3     1     4    1
    4     1     5    1
    5     5     6    1
    6     5     7    1
    7     5     8    1
    8     8     9    1
    9     8    10    1
   10     8    11    1
   11    11    12    1
   12    11    13    1
   13    11    14    1
   14    14    15    1
   15    14    16    1
   16    14    17    1
   17    17    18    1
   18    17    19    1
   19    17    20    1
   20    20    21    1
   21    20    22    1
   22    20    23    1
   23    23    24    1
   24    23    25    1
   25    23    26    1
   26    26    27    1
   27    26    28    1
   28    26    29    1
@<TRIPOS>SUBSTRUCTURE
       1 MOL1            1 RESIDUE      1      MOL     
@<SCITEGIC>MOL_PROPERTY
VM2 Rank
SciTegic.value.IntegerValue
475

@<SCITEGIC>MOL_PROPERTY
Conf_Id
SciTegic.value.IntegerValue
2891

@<SCITEGIC>MOL_PROPERTY
Probability
SciTegic.value.DoubleValue
0.00

@<SCITEGIC>MOL_PROPERTY
Sum Probability
SciTegic.value.DoubleValue
100.00

@<SCITEGIC>MOL_PROPERTY
Delta G
SciTegic.value.DoubleValue
7.218

@<SCITEGIC>MOL_PROPERTY
G
SciTegic.value.DoubleValue
65.365

@<SCITEGIC>MOL_PROPERTY
E
SciTegic.value.DoubleValue
27.035

@<SCITEGIC>MOL_PROPERTY
-TS
SciTegic.value.DoubleValue
38.330

@<SCITEGIC>MOL_PROPERTY
U+W
SciTegic.value.DoubleValue
2.890

@<SCITEGIC>MOL_PROPERTY
U
SciTegic.value.DoubleValue
55.689

@<SCITEGIC>MOL_PROPERTY
W
SciTegic.value.DoubleValue
-52.799

@<SCITEGIC>MOL_PROPERTY
W(PB)
SciTegic.value.DoubleValue
-55.155

@<SCITEGIC>MOL_PROPERTY
W(SA)
SciTegic.value.DoubleValue
2.356

@<SCITEGIC>MOL_PROPERTY
Valence
SciTegic.value.DoubleValue
8.280

@<SCITEGIC>MOL_PROPERTY
Coulomb
SciTegic.value.DoubleValue
47.124

@<SCITEGIC>MOL_PROPERTY
VdW
SciTegic.value.DoubleValue
0.284

@<SCITEGIC>MOL_PROPERTY
VdW6
SciTegic.value.DoubleValue
-11.007

@<SCITEGIC>MOL_PROPERTY
VdW12
SciTegic.value.DoubleValue
11.292

@<SCITEGIC>MOL_PROPERTY
Bond
SciTegic.value.DoubleValue
0.312

@<SCITEGIC>MOL_PROPERTY
Angle
SciTegic.value.DoubleValue
2.003

@<SCITEGIC>MOL_PROPERTY
Pdih
SciTegic.value.DoubleValue
5.965

@<SCITEGIC>MOL_PROPERTY
Idih
SciTegic.value.DoubleValue
0.000

@<SCITEGIC>MOL_PROPERTY
Tether
SciTegic.value.DoubleValue
0.000

@<TRIPOS>MOLECULE
guest-3_vm2.mol2 : vm2 ligand conformer 476
          29          28           1
SMALL
USER_CHARGES
 
@<TRIPOS>ATOM
       1    C1      21.198818   18.205053   21.080905 C.3        1 MOL1        -0.2427
       2    H1      22.267660   18.449605   21.028386 H          1 MOL1         0.0958
       3    H2      21.100726   17.222975   21.561605 H          1 MOL1         0.0958
       4    H3      20.821214   18.122193   20.053408 H          1 MOL1         0.0958
       5    C2      20.430444   19.286748   21.868731 C.3        1 MOL1        -0.1412
       6    H4      20.573746   20.262028   21.383070 H          1 MOL1         0.0947
       7    H5      20.861374   19.370036   22.874158 H          1 MOL1         0.0947
       8    C3      18.919319   18.965384   21.951667 C.3        1 MOL1        -0.1437
       9    H6      18.522200   18.882791   20.930597 H          1 MOL1         0.0947
      10    H7      18.762575   17.982251   22.413364 H          1 MOL1         0.0947
      11    C4      18.101730   20.043336   22.705912 C.3        1 MOL1        -0.1437
      12    H8      17.032284   19.819220   22.591152 H          1 MOL1         0.0947
      13    H9      18.255637   21.012742   22.212250 H          1 MOL1         0.0947
      14    C5      18.420786   20.196053   24.217522 C.3        1 MOL1        -0.1437
      15    H10     19.465695   20.493399   24.354871 H          1 MOL1         0.0947
      16    H11     17.825534   21.040486   24.591538 H          1 MOL1         0.0947
      17    C6      18.067425   18.949215   25.074702 C.3        1 MOL1        -0.1437
      18    H12     17.240030   18.409497   24.593911 H          1 MOL1         0.0947
      19    H13     17.670908   19.278241   26.045291 H          1 MOL1         0.0947
      20    C7      19.239508   17.963445   25.327689 C.3        1 MOL1        -0.1477
      21    H14     18.815555   16.965361   25.500149 H          1 MOL1         0.0947
      22    H15     19.878740   17.868021   24.443193 H          1 MOL1         0.0947
      23    C8      20.096219   18.315900   26.561987 C.3        1 MOL1         0.0145
      24    H16     20.821181   17.516266   26.736544 H          1 MOL1         0.0921
      25    H17     19.453029   18.386883   27.443204 H          1 MOL1         0.0921
      26    N1      20.869751   19.612867   26.445885 N.4        1 MOL1        -0.5969
      27    H18     20.241349   20.411183   26.311350 H          1 MOL1         0.3603
      28    H19     21.522110   19.596892   25.655545 H          1 MOL1         0.3603
      29    H20     21.422550   19.801953   27.289280 H          1 MOL1         0.3603
@<TRIPOS>BOND
    1     1     2    1
    2     1     3    1
    3     1     4    1
    4     1     5    1
    5     5     6    1
    6     5     7    1
    7     5     8    1
    8     8     9    1
    9     8    10    1
   10     8    11    1
   11    11    12    1
   12    11    13    1
   13    11    14    1
   14    14    15    1
   15    14    16    1
   16    14    17    1
   17    17    18    1
   18    17    19    1
   19    17    20    1
   20    20    21    1
   21    20    22    1
   22    20    23    1
   23    23    24    1
   24    23    25    1
   25    23    26    1
   26    26    27    1
   27    26    28    1
   28    26    29    1
@<TRIPOS>SUBSTRUCTURE
       1 MOL1            1 RESIDUE      1      MOL     
@<SCITEGIC>MOL_PROPERTY
VM2 Rank
SciTegic.value.IntegerValue
476

@<SCITEGIC>MOL_PROPERTY
Conf_Id
SciTegic.value.IntegerValue
306

@<SCITEGIC>MOL_PROPERTY
Probability
SciTegic.value.DoubleValue
0.00

@<SCITEGIC>MOL_PROPERTY
Sum Probability
SciTegic.value.DoubleValue
100.00

@<SCITEGIC>MOL_PROPERTY
Delta G
SciTegic.value.DoubleValue
7.259

@<SCITEGIC>MOL_PROPERTY
G
SciTegic.value.DoubleValue
65.405

@<SCITEGIC>MOL_PROPERTY
E
SciTegic.value.DoubleValue
27.159

@<SCITEGIC>MOL_PROPERTY
-TS
SciTegic.value.DoubleValue
38.246

@<SCITEGIC>MOL_PROPERTY
U+W
SciTegic.value.DoubleValue
3.015

@<SCITEGIC>MOL_PROPERTY
U
SciTegic.value.DoubleValue
55.771

@<SCITEGIC>MOL_PROPERTY
W
SciTegic.value.DoubleValue
-52.757

@<SCITEGIC>MOL_PROPERTY
W(PB)
SciTegic.value.DoubleValue
-55.129

@<SCITEGIC>MOL_PROPERTY
W(SA)
SciTegic.value.DoubleValue
2.372

@<SCITEGIC>MOL_PROPERTY
Valence
SciTegic.value.DoubleValue
8.098

@<SCITEGIC>MOL_PROPERTY
Coulomb
SciTegic.value.DoubleValue
47.193

@<SCITEGIC>MOL_PROPERTY
VdW
SciTegic.value.DoubleValue
0.480

@<SCITEGIC>MOL_PROPERTY
VdW6
SciTegic.value.DoubleValue
-11.255

@<SCITEGIC>MOL_PROPERTY
VdW12
SciTegic.value.DoubleValue
11.735

@<SCITEGIC>MOL_PROPERTY
Bond
SciTegic.value.DoubleValue
0.348

@<SCITEGIC>MOL_PROPERTY
Angle
SciTegic.value.DoubleValue
2.031

@<SCITEGIC>MOL_PROPERTY
Pdih
SciTegic.value.DoubleValue
5.719

@<SCITEGIC>MOL_PROPERTY
Idih
SciTegic.value.DoubleValue
0.000

@<SCITEGIC>MOL_PROPERTY
Tether
SciTegic.value.DoubleValue
0.000

@<TRIPOS>MOLECULE
guest-3_vm2.mol2 : vm2 ligand conformer 477
          29          28           1
SMALL
USER_CHARGES
 
@<TRIPOS>ATOM
       1    C1      19.671108   19.715081   19.820052 C.3        1 MOL1        -0.2427
       2    H1      20.721959   19.727153   19.502613 H          1 MOL1         0.0958
       3    H2      19.069746   19.344642   18.979725 H          1 MOL1         0.0958
       4    H3      19.363642   20.748871   20.024915 H          1 MOL1         0.0958
       5    C2      19.476927   18.822483   21.064075 C.3        1 MOL1        -0.1412
       6    H4      19.765343   17.790323   20.821071 H          1 MOL1         0.0947
       7    H5      18.410298   18.804736   21.324237 H          1 MOL1         0.0947
       8    C3      20.309610   19.329630   22.264918 C.3        1 MOL1        -0.1437
       9    H6      21.356280   19.438033   21.948747 H          1 MOL1         0.0947
      10    H7      19.977813   20.337593   22.544236 H          1 MOL1         0.0947
      11    C4      20.274475   18.388522   23.498364 C.3        1 MOL1        -0.1437
      12    H8      20.927047   18.813955   24.268875 H          1 MOL1         0.0947
      13    H9      20.731296   17.430125   23.215468 H          1 MOL1         0.0947
      14    C5      18.863907   18.104788   24.088007 C.3        1 MOL1        -0.1437
      15    H10     18.234204   17.671730   23.300374 H          1 MOL1         0.0947
      16    H11     18.931415   17.317909   24.850683 H          1 MOL1         0.0947
      17    C6      18.136511   19.340625   24.683243 C.3        1 MOL1        -0.1437
      18    H12     17.061075   19.222254   24.491835 H          1 MOL1         0.0947
      19    H13     18.423840   20.256509   24.153218 H          1 MOL1         0.0947
      20    C7      18.311161   19.546342   26.211307 C.3        1 MOL1        -0.1477
      21    H14     17.718893   20.424746   26.500126 H          1 MOL1         0.0947
      22    H15     17.876757   18.700059   26.759922 H          1 MOL1         0.0947
      23    C8      19.760824   19.783703   26.678307 C.3        1 MOL1         0.0145
      24    H16     19.746910   20.337133   27.621151 H          1 MOL1         0.0921
      25    H17     20.296696   20.384297   25.938497 H          1 MOL1         0.0921
      26    N1      20.539477   18.506825   26.926726 N.4        1 MOL1        -0.5969
      27    H18     20.108379   17.937899   27.662910 H          1 MOL1         0.3603
      28    H19     21.503003   18.699245   27.222166 H          1 MOL1         0.3603
      29    H20     20.586184   17.927858   26.082581 H          1 MOL1         0.3603
@<TRIPOS>BOND
    1     1     2    1
    2     1     3    1
    3     1     4    1
    4     1     5    1
    5     5     6    1
    6     5     7    1
    7     5     8    1
    8     8     9    1
    9     8    10    1
   10     8    11    1
   11    11    12    1
   12    11    13    1
   13    11    14    1
   14    14    15    1
   15    14    16    1
   16    14    17    1
   17    17    18    1
   18    17    19    1
   19    17    20    1
   20    20    21    1
   21    20    22    1
   22    20    23    1
   23    23    24    1
   24    23    25    1
   25    23    26    1
   26    26    27    1
   27    26    28    1
   28    26    29    1
@<TRIPOS>SUBSTRUCTURE
       1 MOL1            1 RESIDUE      1      MOL     
@<SCITEGIC>MOL_PROPERTY
VM2 Rank
SciTegic.value.IntegerValue
477

@<SCITEGIC>MOL_PROPERTY
Conf_Id
SciTegic.value.IntegerValue
1296

@<SCITEGIC>MOL_PROPERTY
Probability
SciTegic.value.DoubleValue
0.00

@<SCITEGIC>MOL_PROPERTY
Sum Probability
SciTegic.value.DoubleValue
100.00

@<SCITEGIC>MOL_PROPERTY
Delta G
SciTegic.value.DoubleValue
7.334

@<SCITEGIC>MOL_PROPERTY
G
SciTegic.value.DoubleValue
65.481

@<SCITEGIC>MOL_PROPERTY
E
SciTegic.value.DoubleValue
27.578

@<SCITEGIC>MOL_PROPERTY
-TS
SciTegic.value.DoubleValue
37.903

@<SCITEGIC>MOL_PROPERTY
U+W
SciTegic.value.DoubleValue
3.433

@<SCITEGIC>MOL_PROPERTY
U
SciTegic.value.DoubleValue
55.796

@<SCITEGIC>MOL_PROPERTY
W
SciTegic.value.DoubleValue
-52.362

@<SCITEGIC>MOL_PROPERTY
W(PB)
SciTegic.value.DoubleValue
-54.762

@<SCITEGIC>MOL_PROPERTY
W(SA)
SciTegic.value.DoubleValue
2.399

@<SCITEGIC>MOL_PROPERTY
Valence
SciTegic.value.DoubleValue
7.989

@<SCITEGIC>MOL_PROPERTY
Coulomb
SciTegic.value.DoubleValue
47.017

@<SCITEGIC>MOL_PROPERTY
VdW
SciTegic.value.DoubleValue
0.789

@<SCITEGIC>MOL_PROPERTY
VdW6
SciTegic.value.DoubleValue
-11.175

@<SCITEGIC>MOL_PROPERTY
VdW12
SciTegic.value.DoubleValue
11.964

@<SCITEGIC>MOL_PROPERTY
Bond
SciTegic.value.DoubleValue
0.372

@<SCITEGIC>MOL_PROPERTY
Angle
SciTegic.value.DoubleValue
2.357

@<SCITEGIC>MOL_PROPERTY
Pdih
SciTegic.value.DoubleValue
5.260

@<SCITEGIC>MOL_PROPERTY
Idih
SciTegic.value.DoubleValue
0.000

@<SCITEGIC>MOL_PROPERTY
Tether
SciTegic.value.DoubleValue
0.000

@<TRIPOS>MOLECULE
guest-3_vm2.mol2 : vm2 ligand conformer 478
          29          28           1
SMALL
USER_CHARGES
 
@<TRIPOS>ATOM
       1    C1      19.273493   18.594423   19.795497 C.3        1 MOL1        -0.2427
       2    H1      18.381150   17.977473   19.963784 H          1 MOL1         0.0958
       3    H2      19.050967   19.293640   18.979048 H          1 MOL1         0.0958
       4    H3      20.086788   17.936272   19.462944 H          1 MOL1         0.0958
       5    C2      19.667212   19.360173   21.076371 C.3        1 MOL1        -0.1412
       6    H4      18.845998   20.034883   21.352183 H          1 MOL1         0.0947
       7    H5      20.544218   19.989400   20.870162 H          1 MOL1         0.0947
       8    C3      19.978555   18.395023   22.244331 C.3        1 MOL1        -0.1437
       9    H6      19.082566   17.810453   22.488425 H          1 MOL1         0.0947
      10    H7      20.727958   17.664700   21.909281 H          1 MOL1         0.0947
      11    C4      20.526565   19.098769   23.514266 C.3        1 MOL1        -0.1437
      12    H8      21.488752   19.565979   23.262968 H          1 MOL1         0.0947
      13    H9      20.754939   18.327443   24.258193 H          1 MOL1         0.0947
      14    C5      19.601265   20.183769   24.134341 C.3        1 MOL1        -0.1437
      15    H10     20.138372   20.721490   24.926670 H          1 MOL1         0.0947
      16    H11     19.396080   20.947495   23.373383 H          1 MOL1         0.0947
      17    C6      18.249600   19.659490   24.690072 C.3        1 MOL1        -0.1437
      18    H12     17.903380   18.789217   24.119910 H          1 MOL1         0.0947
      19    H13     17.491661   20.436281   24.518799 H          1 MOL1         0.0947
      20    C7      18.234070   19.328945   26.206085 C.3        1 MOL1        -0.1477
      21    H14     18.421718   20.237176   26.794121 H          1 MOL1         0.0947
      22    H15     17.216848   19.008821   26.467944 H          1 MOL1         0.0947
      23    C8      19.204043   18.213398   26.642725 C.3        1 MOL1         0.0145
      24    H16     19.252873   17.439683   25.871900 H          1 MOL1         0.0921
      25    H17     18.831246   17.754943   27.562656 H          1 MOL1         0.0921
      26    N1      20.609196   18.704010   26.931311 N.4        1 MOL1        -0.5969
      27    H18     20.621861   19.387322   27.695781 H          1 MOL1         0.3603
      28    H19     21.022115   19.157701   26.110562 H          1 MOL1         0.3603
      29    H20     21.232315   17.936280   27.205180 H          1 MOL1         0.3603
@<TRIPOS>BOND
    1     1     2    1
    2     1     3    1
    3     1     4    1
    4     1     5    1
    5     5     6    1
    6     5     7    1
    7     5     8    1
    8     8     9    1
    9     8    10    1
   10     8    11    1
   11    11    12    1
   12    11    13    1
   13    11    14    1
   14    14    15    1
   15    14    16    1
   16    14    17    1
   17    17    18    1
   18    17    19    1
   19    17    20    1
   20    20    21    1
   21    20    22    1
   22    20    23    1
   23    23    24    1
   24    23    25    1
   25    23    26    1
   26    26    27    1
   27    26    28    1
   28    26    29    1
@<TRIPOS>SUBSTRUCTURE
       1 MOL1            1 RESIDUE      1      MOL     
@<SCITEGIC>MOL_PROPERTY
VM2 Rank
SciTegic.value.IntegerValue
478

@<SCITEGIC>MOL_PROPERTY
Conf_Id
SciTegic.value.IntegerValue
2332

@<SCITEGIC>MOL_PROPERTY
Probability
SciTegic.value.DoubleValue
0.00

@<SCITEGIC>MOL_PROPERTY
Sum Probability
SciTegic.value.DoubleValue
100.00

@<SCITEGIC>MOL_PROPERTY
Delta G
SciTegic.value.DoubleValue
7.395

@<SCITEGIC>MOL_PROPERTY
G
SciTegic.value.DoubleValue
65.541

@<SCITEGIC>MOL_PROPERTY
E
SciTegic.value.DoubleValue
27.638

@<SCITEGIC>MOL_PROPERTY
-TS
SciTegic.value.DoubleValue
37.904

@<SCITEGIC>MOL_PROPERTY
U+W
SciTegic.value.DoubleValue
3.493

@<SCITEGIC>MOL_PROPERTY
U
SciTegic.value.DoubleValue
55.796

@<SCITEGIC>MOL_PROPERTY
W
SciTegic.value.DoubleValue
-52.302

@<SCITEGIC>MOL_PROPERTY
W(PB)
SciTegic.value.DoubleValue
-54.725

@<SCITEGIC>MOL_PROPERTY
W(SA)
SciTegic.value.DoubleValue
2.422

@<SCITEGIC>MOL_PROPERTY
Valence
SciTegic.value.DoubleValue
7.989

@<SCITEGIC>MOL_PROPERTY
Coulomb
SciTegic.value.DoubleValue
47.017

@<SCITEGIC>MOL_PROPERTY
VdW
SciTegic.value.DoubleValue
0.789

@<SCITEGIC>MOL_PROPERTY
VdW6
SciTegic.value.DoubleValue
-11.176

@<SCITEGIC>MOL_PROPERTY
VdW12
SciTegic.value.DoubleValue
11.965

@<SCITEGIC>MOL_PROPERTY
Bond
SciTegic.value.DoubleValue
0.372

@<SCITEGIC>MOL_PROPERTY
Angle
SciTegic.value.DoubleValue
2.358

@<SCITEGIC>MOL_PROPERTY
Pdih
SciTegic.value.DoubleValue
5.259

@<SCITEGIC>MOL_PROPERTY
Idih
SciTegic.value.DoubleValue
0.000

@<SCITEGIC>MOL_PROPERTY
Tether
SciTegic.value.DoubleValue
0.000

@<TRIPOS>MOLECULE
guest-3_vm2.mol2 : vm2 ligand conformer 479
          29          28           1
SMALL
USER_CHARGES
 
@<TRIPOS>ATOM
       1    C1      18.673645   18.854718   20.180623 C.3        1 MOL1        -0.2427
       2    H1      17.887502   19.352980   20.761328 H          1 MOL1         0.0958
       3    H2      19.284927   19.626450   19.695036 H          1 MOL1         0.0958
       4    H3      18.181362   18.270860   19.392153 H          1 MOL1         0.0958
       5    C2      19.541760   17.937015   21.070849 C.3        1 MOL1        -0.1412
       6    H4      20.230583   17.370062   20.429080 H          1 MOL1         0.0947
       7    H5      18.903096   17.193842   21.568306 H          1 MOL1         0.0947
       8    C3      20.368935   18.708547   22.127120 C.3        1 MOL1        -0.1437
       9    H6      21.031815   17.996469   22.637360 H          1 MOL1         0.0947
      10    H7      21.024187   19.432178   21.622762 H          1 MOL1         0.0947
      11    C4      19.498425   19.438766   23.177381 C.3        1 MOL1        -0.1437
      12    H8      18.784094   18.733434   23.617230 H          1 MOL1         0.0947
      13    H9      18.896979   20.213973   22.684475 H          1 MOL1         0.0947
      14    C5      20.362676   20.106961   24.275152 C.3        1 MOL1        -0.1437
      15    H10     21.095247   19.401259   24.688673 H          1 MOL1         0.0947
      16    H11     20.953362   20.903316   23.801227 H          1 MOL1         0.0947
      17    C6      19.520567   20.731811   25.416670 C.3        1 MOL1        -0.1437
      18    H12     18.538563   21.044408   25.035382 H          1 MOL1         0.0947
      19    H13     20.018337   21.656796   25.739255 H          1 MOL1         0.0947
      20    C7      19.340837   19.839147   26.673842 C.3        1 MOL1        -0.1477
      21    H14     20.316554   19.632825   27.133509 H          1 MOL1         0.0947
      22    H15     18.776625   20.417475   27.417485 H          1 MOL1         0.0947
      23    C8      18.585631   18.515486   26.438112 C.3        1 MOL1         0.0145
      24    H16     17.745594   18.682772   25.758808 H          1 MOL1         0.0921
      25    H17     18.186462   18.157181   27.390858 H          1 MOL1         0.0921
      26    N1      19.451524   17.405550   25.875250 N.4        1 MOL1        -0.5969
      27    H18     20.223577   17.170201   26.507792 H          1 MOL1         0.3603
      28    H19     19.863424   17.676661   24.976271 H          1 MOL1         0.3603
      29    H20     18.915198   16.544293   25.722311 H          1 MOL1         0.3603
@<TRIPOS>BOND
    1     1     2    1
    2     1     3    1
    3     1     4    1
    4     1     5    1
    5     5     6    1
    6     5     7    1
    7     5     8    1
    8     8     9    1
    9     8    10    1
   10     8    11    1
   11    11    12    1
   12    11    13    1
   13    11    14    1
   14    14    15    1
   15    14    16    1
   16    14    17    1
   17    17    18    1
   18    17    19    1
   19    17    20    1
   20    20    21    1
   21    20    22    1
   22    20    23    1
   23    23    24    1
   24    23    25    1
   25    23    26    1
   26    26    27    1
   27    26    28    1
   28    26    29    1
@<TRIPOS>SUBSTRUCTURE
       1 MOL1            1 RESIDUE      1      MOL     
@<SCITEGIC>MOL_PROPERTY
VM2 Rank
SciTegic.value.IntegerValue
479

@<SCITEGIC>MOL_PROPERTY
Conf_Id
SciTegic.value.IntegerValue
2011

@<SCITEGIC>MOL_PROPERTY
Probability
SciTegic.value.DoubleValue
0.00

@<SCITEGIC>MOL_PROPERTY
Sum Probability
SciTegic.value.DoubleValue
100.00

@<SCITEGIC>MOL_PROPERTY
Delta G
SciTegic.value.DoubleValue
7.414

@<SCITEGIC>MOL_PROPERTY
G
SciTegic.value.DoubleValue
65.560

@<SCITEGIC>MOL_PROPERTY
E
SciTegic.value.DoubleValue
27.466

@<SCITEGIC>MOL_PROPERTY
-TS
SciTegic.value.DoubleValue
38.095

@<SCITEGIC>MOL_PROPERTY
U+W
SciTegic.value.DoubleValue
3.321

@<SCITEGIC>MOL_PROPERTY
U
SciTegic.value.DoubleValue
54.941

@<SCITEGIC>MOL_PROPERTY
W
SciTegic.value.DoubleValue
-51.620

@<SCITEGIC>MOL_PROPERTY
W(PB)
SciTegic.value.DoubleValue
-54.027

@<SCITEGIC>MOL_PROPERTY
W(SA)
SciTegic.value.DoubleValue
2.408

@<SCITEGIC>MOL_PROPERTY
Valence
SciTegic.value.DoubleValue
7.115

@<SCITEGIC>MOL_PROPERTY
Coulomb
SciTegic.value.DoubleValue
47.184

@<SCITEGIC>MOL_PROPERTY
VdW
SciTegic.value.DoubleValue
0.642

@<SCITEGIC>MOL_PROPERTY
VdW6
SciTegic.value.DoubleValue
-10.766

@<SCITEGIC>MOL_PROPERTY
VdW12
SciTegic.value.DoubleValue
11.407

@<SCITEGIC>MOL_PROPERTY
Bond
SciTegic.value.DoubleValue
0.284

@<SCITEGIC>MOL_PROPERTY
Angle
SciTegic.value.DoubleValue
1.697

@<SCITEGIC>MOL_PROPERTY
Pdih
SciTegic.value.DoubleValue
5.134

@<SCITEGIC>MOL_PROPERTY
Idih
SciTegic.value.DoubleValue
0.000

@<SCITEGIC>MOL_PROPERTY
Tether
SciTegic.value.DoubleValue
0.000

@<TRIPOS>MOLECULE
guest-3_vm2.mol2 : vm2 ligand conformer 480
          29          28           1
SMALL
USER_CHARGES
 
@<TRIPOS>ATOM
       1    C1      20.108637   17.451740   21.034733 C.3        1 MOL1        -0.2427
       2    H1      20.834489   17.309181   21.844755 H          1 MOL1         0.0958
       3    H2      19.185595   16.921037   21.301877 H          1 MOL1         0.0958
       4    H3      20.520960   16.976348   20.135348 H          1 MOL1         0.0958
       5    C2      19.832899   18.950329   20.775795 C.3        1 MOL1        -0.1412
       6    H4      19.202187   19.044518   19.880770 H          1 MOL1         0.0947
       7    H5      20.775504   19.465135   20.543086 H          1 MOL1         0.0947
       8    C3      19.126555   19.658040   21.957132 C.3        1 MOL1        -0.1437
       9    H6      18.869620   20.680011   21.646388 H          1 MOL1         0.0947
      10    H7      18.175482   19.150436   22.163076 H          1 MOL1         0.0947
      11    C4      19.992853   19.721674   23.240799 C.3        1 MOL1        -0.1437
      12    H8      20.962565   20.171817   22.987491 H          1 MOL1         0.0947
      13    H9      20.201299   18.705840   23.593174 H          1 MOL1         0.0947
      14    C5      19.339218   20.558861   24.371573 C.3        1 MOL1        -0.1437
      15    H10     20.091939   20.833986   25.122124 H          1 MOL1         0.0947
      16    H11     19.001123   21.512363   23.942702 H          1 MOL1         0.0947
      17    C6      18.135658   19.869146   25.068261 C.3        1 MOL1        -0.1437
      18    H12     17.619899   19.193568   24.374276 H          1 MOL1         0.0947
      19    H13     17.400449   20.645770   25.320430 H          1 MOL1         0.0947
      20    C7      18.473741   19.109143   26.378403 C.3        1 MOL1        -0.1477
      21    H14     18.870350   19.805214   27.129441 H          1 MOL1         0.0947
      22    H15     17.533015   18.724856   26.794522 H          1 MOL1         0.0947
      23    C8      19.434700   17.914933   26.212306 C.3        1 MOL1         0.0145
      24    H16     19.204200   17.378040   25.288277 H          1 MOL1         0.0921
      25    H17     19.296882   17.225797   27.049887 H          1 MOL1         0.0921
      26    N1      20.899738   18.304135   26.195998 N.4        1 MOL1        -0.5969
      27    H18     21.509496   17.488556   26.070633 H          1 MOL1         0.3603
      28    H19     21.180617   18.756577   27.072304 H          1 MOL1         0.3603
      29    H20     21.102145   18.960427   25.435374 H          1 MOL1         0.3603
@<TRIPOS>BOND
    1     1     2    1
    2     1     3    1
    3     1     4    1
    4     1     5    1
    5     5     6    1
    6     5     7    1
    7     5     8    1
    8     8     9    1
    9     8    10    1
   10     8    11    1
   11    11    12    1
   12    11    13    1
   13    11    14    1
   14    14    15    1
   15    14    16    1
   16    14    17    1
   17    17    18    1
   18    17    19    1
   19    17    20    1
   20    20    21    1
   21    20    22    1
   22    20    23    1
   23    23    24    1
   24    23    25    1
   25    23    26    1
   26    26    27    1
   27    26    28    1
   28    26    29    1
@<TRIPOS>SUBSTRUCTURE
       1 MOL1            1 RESIDUE      1      MOL     
@<SCITEGIC>MOL_PROPERTY
VM2 Rank
SciTegic.value.IntegerValue
480

@<SCITEGIC>MOL_PROPERTY
Conf_Id
SciTegic.value.IntegerValue
1977

@<SCITEGIC>MOL_PROPERTY
Probability
SciTegic.value.DoubleValue
0.00

@<SCITEGIC>MOL_PROPERTY
Sum Probability
SciTegic.value.DoubleValue
100.00

@<SCITEGIC>MOL_PROPERTY
Delta G
SciTegic.value.DoubleValue
7.453

@<SCITEGIC>MOL_PROPERTY
G
SciTegic.value.DoubleValue
65.600

@<SCITEGIC>MOL_PROPERTY
E
SciTegic.value.DoubleValue
27.506

@<SCITEGIC>MOL_PROPERTY
-TS
SciTegic.value.DoubleValue
38.094

@<SCITEGIC>MOL_PROPERTY
U+W
SciTegic.value.DoubleValue
3.361

@<SCITEGIC>MOL_PROPERTY
U
SciTegic.value.DoubleValue
55.776

@<SCITEGIC>MOL_PROPERTY
W
SciTegic.value.DoubleValue
-52.415

@<SCITEGIC>MOL_PROPERTY
W(PB)
SciTegic.value.DoubleValue
-54.787

@<SCITEGIC>MOL_PROPERTY
W(SA)
SciTegic.value.DoubleValue
2.373

@<SCITEGIC>MOL_PROPERTY
Valence
SciTegic.value.DoubleValue
7.842

@<SCITEGIC>MOL_PROPERTY
Coulomb
SciTegic.value.DoubleValue
47.177

@<SCITEGIC>MOL_PROPERTY
VdW
SciTegic.value.DoubleValue
0.757

@<SCITEGIC>MOL_PROPERTY
VdW6
SciTegic.value.DoubleValue
-11.138

@<SCITEGIC>MOL_PROPERTY
VdW12
SciTegic.value.DoubleValue
11.895

@<SCITEGIC>MOL_PROPERTY
Bond
SciTegic.value.DoubleValue
0.338

@<SCITEGIC>MOL_PROPERTY
Angle
SciTegic.value.DoubleValue
1.835

@<SCITEGIC>MOL_PROPERTY
Pdih
SciTegic.value.DoubleValue
5.669

@<SCITEGIC>MOL_PROPERTY
Idih
SciTegic.value.DoubleValue
0.000

@<SCITEGIC>MOL_PROPERTY
Tether
SciTegic.value.DoubleValue
0.000

@<TRIPOS>MOLECULE
guest-3_vm2.mol2 : vm2 ligand conformer 481
          29          28           1
SMALL
USER_CHARGES
 
@<TRIPOS>ATOM
       1    C1      20.616783   18.936607   19.844278 C.3        1 MOL1        -0.2427
       2    H1      21.567086   18.480409   20.150930 H          1 MOL1         0.0958
       3    H2      20.237837   18.377072   18.979202 H          1 MOL1         0.0958
       4    H3      20.820541   19.964653   19.517426 H          1 MOL1         0.0958
       5    C2      19.592877   18.913733   20.998821 C.3        1 MOL1        -0.1412
       6    H4      19.384881   17.870153   21.270375 H          1 MOL1         0.0947
       7    H5      18.644584   19.348608   20.653390 H          1 MOL1         0.0947
       8    C3      20.106745   19.693704   22.231663 C.3        1 MOL1        -0.1437
       9    H6      21.030664   19.229039   22.601824 H          1 MOL1         0.0947
      10    H7      20.376808   20.712884   21.922102 H          1 MOL1         0.0947
      11    C4      19.070882   19.786620   23.378646 C.3        1 MOL1        -0.1437
      12    H8      18.161622   20.279756   23.007790 H          1 MOL1         0.0947
      13    H9      19.466971   20.449586   24.156863 H          1 MOL1         0.0947
      14    C5      18.693071   18.409245   23.982685 C.3        1 MOL1        -0.1437
      15    H10     18.093859   17.862252   23.242385 H          1 MOL1         0.0947
      16    H11     19.585860   17.794178   24.156621 H          1 MOL1         0.0947
      17    C6      17.860832   18.524700   25.285376 C.3        1 MOL1        -0.1437
      18    H12     17.121759   17.711544   25.289669 H          1 MOL1         0.0947
      19    H13     17.274552   19.454063   25.279110 H          1 MOL1         0.0947
      20    C7      18.673439   18.418890   26.603797 C.3        1 MOL1        -0.1477
      21    H14     17.962179   18.453626   27.439684 H          1 MOL1         0.0947
      22    H15     19.162823   17.437966   26.668416 H          1 MOL1         0.0947
      23    C8      19.713195   19.535577   26.826722 C.3        1 MOL1         0.0145
      24    H16     19.957519   19.589807   27.891058 H          1 MOL1         0.0921
      25    H17     19.294056   20.498937   26.524499 H          1 MOL1         0.0921
      26    N1      21.016176   19.318924   26.083012 N.4        1 MOL1        -0.5969
      27    H18     21.481691   18.454553   26.379245 H          1 MOL1         0.3603
      28    H19     21.678085   20.086679   26.242059 H          1 MOL1         0.3603
      29    H20     20.857686   19.251142   25.072270 H          1 MOL1         0.3603
@<TRIPOS>BOND
    1     1     2    1
    2     1     3    1
    3     1     4    1
    4     1     5    1
    5     5     6    1
    6     5     7    1
    7     5     8    1
    8     8     9    1
    9     8    10    1
   10     8    11    1
   11    11    12    1
   12    11    13    1
   13    11    14    1
   14    14    15    1
   15    14    16    1
   16    14    17    1
   17    17    18    1
   18    17    19    1
   19    17    20    1
   20    20    21    1
   21    20    22    1
   22    20    23    1
   23    23    24    1
   24    23    25    1
   25    23    26    1
   26    26    27    1
   27    26    28    1
   28    26    29    1
@<TRIPOS>SUBSTRUCTURE
       1 MOL1            1 RESIDUE      1      MOL     
@<SCITEGIC>MOL_PROPERTY
VM2 Rank
SciTegic.value.IntegerValue
481

@<SCITEGIC>MOL_PROPERTY
Conf_Id
SciTegic.value.IntegerValue
953

@<SCITEGIC>MOL_PROPERTY
Probability
SciTegic.value.DoubleValue
0.00

@<SCITEGIC>MOL_PROPERTY
Sum Probability
SciTegic.value.DoubleValue
100.00

@<SCITEGIC>MOL_PROPERTY
Delta G
SciTegic.value.DoubleValue
7.461

@<SCITEGIC>MOL_PROPERTY
G
SciTegic.value.DoubleValue
65.608

@<SCITEGIC>MOL_PROPERTY
E
SciTegic.value.DoubleValue
27.462

@<SCITEGIC>MOL_PROPERTY
-TS
SciTegic.value.DoubleValue
38.146

@<SCITEGIC>MOL_PROPERTY
U+W
SciTegic.value.DoubleValue
3.317

@<SCITEGIC>MOL_PROPERTY
U
SciTegic.value.DoubleValue
54.961

@<SCITEGIC>MOL_PROPERTY
W
SciTegic.value.DoubleValue
-51.644

@<SCITEGIC>MOL_PROPERTY
W(PB)
SciTegic.value.DoubleValue
-54.083

@<SCITEGIC>MOL_PROPERTY
W(SA)
SciTegic.value.DoubleValue
2.439

@<SCITEGIC>MOL_PROPERTY
Valence
SciTegic.value.DoubleValue
7.165

@<SCITEGIC>MOL_PROPERTY
Coulomb
SciTegic.value.DoubleValue
47.155

@<SCITEGIC>MOL_PROPERTY
VdW
SciTegic.value.DoubleValue
0.641

@<SCITEGIC>MOL_PROPERTY
VdW6
SciTegic.value.DoubleValue
-10.820

@<SCITEGIC>MOL_PROPERTY
VdW12
SciTegic.value.DoubleValue
11.462

@<SCITEGIC>MOL_PROPERTY
Bond
SciTegic.value.DoubleValue
0.290

@<SCITEGIC>MOL_PROPERTY
Angle
SciTegic.value.DoubleValue
1.665

@<SCITEGIC>MOL_PROPERTY
Pdih
SciTegic.value.DoubleValue
5.210

@<SCITEGIC>MOL_PROPERTY
Idih
SciTegic.value.DoubleValue
0.000

@<SCITEGIC>MOL_PROPERTY
Tether
SciTegic.value.DoubleValue
0.000

@<TRIPOS>MOLECULE
guest-3_vm2.mol2 : vm2 ligand conformer 482
          29          28           1
SMALL
USER_CHARGES
 
@<TRIPOS>ATOM
       1    C1      21.100282   19.107568   21.351581 C.3        1 MOL1        -0.2427
       2    H1      21.881350   19.293586   20.603147 H          1 MOL1         0.0958
       3    H2      21.467631   19.475210   22.317687 H          1 MOL1         0.0958
       4    H3      20.964922   18.021493   21.415301 H          1 MOL1         0.0958
       5    C2      19.788207   19.811977   20.944744 C.3        1 MOL1        -0.1412
       6    H4      19.400035   19.352338   20.025148 H          1 MOL1         0.0947
       7    H5      20.016591   20.855887   20.688298 H          1 MOL1         0.0947
       8    C3      18.683580   19.808418   22.032710 C.3        1 MOL1        -0.1437
       9    H6      19.011548   20.375548   22.910924 H          1 MOL1         0.0947
      10    H7      17.833416   20.375202   21.628784 H          1 MOL1         0.0947
      11    C4      18.160343   18.404172   22.439564 C.3        1 MOL1        -0.1437
      12    H8      18.161895   17.746935   21.559288 H          1 MOL1         0.0947
      13    H9      17.104728   18.501374   22.728540 H          1 MOL1         0.0947
      14    C5      18.907549   17.703899   23.607633 C.3        1 MOL1        -0.1437
      15    H10     18.453932   16.711565   23.737171 H          1 MOL1         0.0947
      16    H11     19.953755   17.507493   23.347733 H          1 MOL1         0.0947
      17    C6      18.819405   18.450744   24.964743 C.3        1 MOL1        -0.1437
      18    H12     18.567348   17.720200   25.744995 H          1 MOL1         0.0947
      19    H13     17.992409   19.173995   24.948316 H          1 MOL1         0.0947
      20    C7      20.141302   19.158460   25.355085 C.3        1 MOL1        -0.1477
      21    H14     20.944228   18.417037   25.462199 H          1 MOL1         0.0947
      22    H15     20.454388   19.838565   24.554633 H          1 MOL1         0.0947
      23    C8      20.017254   19.970590   26.658410 C.3        1 MOL1         0.0145
      24    H16     19.215516   20.707149   26.558043 H          1 MOL1         0.0921
      25    H17     20.952264   20.506756   26.842285 H          1 MOL1         0.0921
      26    N1      19.726078   19.122173   27.880529 N.4        1 MOL1        -0.5969
      27    H18     20.458603   18.423109   28.041582 H          1 MOL1         0.3603
      28    H19     18.839401   18.616690   27.788209 H          1 MOL1         0.3603
      29    H20     19.661102   19.690614   28.732101 H          1 MOL1         0.3603
@<TRIPOS>BOND
    1     1     2    1
    2     1     3    1
    3     1     4    1
    4     1     5    1
    5     5     6    1
    6     5     7    1
    7     5     8    1
    8     8     9    1
    9     8    10    1
   10     8    11    1
   11    11    12    1
   12    11    13    1
   13    11    14    1
   14    14    15    1
   15    14    16    1
   16    14    17    1
   17    17    18    1
   18    17    19    1
   19    17    20    1
   20    20    21    1
   21    20    22    1
   22    20    23    1
   23    23    24    1
   24    23    25    1
   25    23    26    1
   26    26    27    1
   27    26    28    1
   28    26    29    1
@<TRIPOS>SUBSTRUCTURE
       1 MOL1            1 RESIDUE      1      MOL     
@<SCITEGIC>MOL_PROPERTY
VM2 Rank
SciTegic.value.IntegerValue
482

@<SCITEGIC>MOL_PROPERTY
Conf_Id
SciTegic.value.IntegerValue
1038

@<SCITEGIC>MOL_PROPERTY
Probability
SciTegic.value.DoubleValue
0.00

@<SCITEGIC>MOL_PROPERTY
Sum Probability
SciTegic.value.DoubleValue
100.00

@<SCITEGIC>MOL_PROPERTY
Delta G
SciTegic.value.DoubleValue
7.499

@<SCITEGIC>MOL_PROPERTY
G
SciTegic.value.DoubleValue
65.646

@<SCITEGIC>MOL_PROPERTY
E
SciTegic.value.DoubleValue
27.534

@<SCITEGIC>MOL_PROPERTY
-TS
SciTegic.value.DoubleValue
38.111

@<SCITEGIC>MOL_PROPERTY
U+W
SciTegic.value.DoubleValue
3.390

@<SCITEGIC>MOL_PROPERTY
U
SciTegic.value.DoubleValue
55.720

@<SCITEGIC>MOL_PROPERTY
W
SciTegic.value.DoubleValue
-52.330

@<SCITEGIC>MOL_PROPERTY
W(PB)
SciTegic.value.DoubleValue
-54.710

@<SCITEGIC>MOL_PROPERTY
W(SA)
SciTegic.value.DoubleValue
2.380

@<SCITEGIC>MOL_PROPERTY
Valence
SciTegic.value.DoubleValue
9.315

@<SCITEGIC>MOL_PROPERTY
Coulomb
SciTegic.value.DoubleValue
45.595

@<SCITEGIC>MOL_PROPERTY
VdW
SciTegic.value.DoubleValue
0.809

@<SCITEGIC>MOL_PROPERTY
VdW6
SciTegic.value.DoubleValue
-10.833

@<SCITEGIC>MOL_PROPERTY
VdW12
SciTegic.value.DoubleValue
11.642

@<SCITEGIC>MOL_PROPERTY
Bond
SciTegic.value.DoubleValue
0.364

@<SCITEGIC>MOL_PROPERTY
Angle
SciTegic.value.DoubleValue
2.376

@<SCITEGIC>MOL_PROPERTY
Pdih
SciTegic.value.DoubleValue
6.575

@<SCITEGIC>MOL_PROPERTY
Idih
SciTegic.value.DoubleValue
0.000

@<SCITEGIC>MOL_PROPERTY
Tether
SciTegic.value.DoubleValue
0.000

@<TRIPOS>MOLECULE
guest-3_vm2.mol2 : vm2 ligand conformer 483
          29          28           1
SMALL
USER_CHARGES
 
@<TRIPOS>ATOM
       1    C1      19.799621   17.836910   20.284119 C.3        1 MOL1        -0.2427
       2    H1      20.262529   17.136630   20.990312 H          1 MOL1         0.0958
       3    H2      19.332099   17.242003   19.488868 H          1 MOL1         0.0958
       4    H3      20.593849   18.442008   19.827958 H          1 MOL1         0.0958
       5    C2      18.748364   18.732160   20.978349 C.3        1 MOL1        -0.1412
       6    H4      17.983689   18.102843   21.454730 H          1 MOL1         0.0947
       7    H5      18.226517   19.323235   20.212809 H          1 MOL1         0.0947
       8    C3      19.355231   19.699489   22.023212 C.3        1 MOL1        -0.1437
       9    H6      20.102672   20.340728   21.536189 H          1 MOL1         0.0947
      10    H7      18.559266   20.368873   22.373602 H          1 MOL1         0.0947
      11    C4      19.999248   18.974263   23.232148 C.3        1 MOL1        -0.1437
      12    H8      20.844103   18.369651   22.877312 H          1 MOL1         0.0947
      13    H9      19.272121   18.276444   23.664110 H          1 MOL1         0.0947
      14    C5      20.524445   19.955112   24.312927 C.3        1 MOL1        -0.1437
      15    H10     21.258680   19.452232   24.956090 H          1 MOL1         0.0947
      16    H11     21.085226   20.754652   23.809138 H          1 MOL1         0.0947
      17    C6      19.415296   20.595508   25.190047 C.3        1 MOL1        -0.1437
      18    H12     18.474161   20.673428   24.630967 H          1 MOL1         0.0947
      19    H13     19.712411   21.630353   25.409343 H          1 MOL1         0.0947
      20    C7      19.155363   19.890080   26.547683 C.3        1 MOL1        -0.1477
      21    H14     20.061545   19.913470   27.167490 H          1 MOL1         0.0947
      22    H15     18.405246   20.478517   27.092540 H          1 MOL1         0.0947
      23    C8      18.629934   18.444306   26.442423 C.3        1 MOL1         0.0145
      24    H16     17.907077   18.370352   25.625614 H          1 MOL1         0.0921
      25    H17     18.120164   18.180359   27.372965 H          1 MOL1         0.0921
      26    N1      19.716499   17.410172   26.224092 N.4        1 MOL1        -0.5969
      27    H18     20.244464   17.600919   25.366677 H          1 MOL1         0.3603
      28    H19     19.330723   16.462753   26.144755 H          1 MOL1         0.3603
      29    H20     20.387488   17.396897   26.999393 H          1 MOL1         0.3603
@<TRIPOS>BOND
    1     1     2    1
    2     1     3    1
    3     1     4    1
    4     1     5    1
    5     5     6    1
    6     5     7    1
    7     5     8    1
    8     8     9    1
    9     8    10    1
   10     8    11    1
   11    11    12    1
   12    11    13    1
   13    11    14    1
   14    14    15    1
   15    14    16    1
   16    14    17    1
   17    17    18    1
   18    17    19    1
   19    17    20    1
   20    20    21    1
   21    20    22    1
   22    20    23    1
   23    23    24    1
   24    23    25    1
   25    23    26    1
   26    26    27    1
   27    26    28    1
   28    26    29    1
@<TRIPOS>SUBSTRUCTURE
       1 MOL1            1 RESIDUE      1      MOL     
@<SCITEGIC>MOL_PROPERTY
VM2 Rank
SciTegic.value.IntegerValue
483

@<SCITEGIC>MOL_PROPERTY
Conf_Id
SciTegic.value.IntegerValue
804

@<SCITEGIC>MOL_PROPERTY
Probability
SciTegic.value.DoubleValue
0.00

@<SCITEGIC>MOL_PROPERTY
Sum Probability
SciTegic.value.DoubleValue
100.00

@<SCITEGIC>MOL_PROPERTY
Delta G
SciTegic.value.DoubleValue
7.600

@<SCITEGIC>MOL_PROPERTY
G
SciTegic.value.DoubleValue
65.746

@<SCITEGIC>MOL_PROPERTY
E
SciTegic.value.DoubleValue
27.618

@<SCITEGIC>MOL_PROPERTY
-TS
SciTegic.value.DoubleValue
38.129

@<SCITEGIC>MOL_PROPERTY
U+W
SciTegic.value.DoubleValue
3.473

@<SCITEGIC>MOL_PROPERTY
U
SciTegic.value.DoubleValue
55.775

@<SCITEGIC>MOL_PROPERTY
W
SciTegic.value.DoubleValue
-52.302

@<SCITEGIC>MOL_PROPERTY
W(PB)
SciTegic.value.DoubleValue
-54.712

@<SCITEGIC>MOL_PROPERTY
W(SA)
SciTegic.value.DoubleValue
2.410

@<SCITEGIC>MOL_PROPERTY
Valence
SciTegic.value.DoubleValue
7.940

@<SCITEGIC>MOL_PROPERTY
Coulomb
SciTegic.value.DoubleValue
46.996

@<SCITEGIC>MOL_PROPERTY
VdW
SciTegic.value.DoubleValue
0.839

@<SCITEGIC>MOL_PROPERTY
VdW6
SciTegic.value.DoubleValue
-11.015

@<SCITEGIC>MOL_PROPERTY
VdW12
SciTegic.value.DoubleValue
11.854

@<SCITEGIC>MOL_PROPERTY
Bond
SciTegic.value.DoubleValue
0.334

@<SCITEGIC>MOL_PROPERTY
Angle
SciTegic.value.DoubleValue
1.815

@<SCITEGIC>MOL_PROPERTY
Pdih
SciTegic.value.DoubleValue
5.790

@<SCITEGIC>MOL_PROPERTY
Idih
SciTegic.value.DoubleValue
0.000

@<SCITEGIC>MOL_PROPERTY
Tether
SciTegic.value.DoubleValue
0.000

@<TRIPOS>MOLECULE
guest-3_vm2.mol2 : vm2 ligand conformer 484
          29          28           1
SMALL
USER_CHARGES
 
@<TRIPOS>ATOM
       1    C1      21.224175   18.327223   22.123486 C.3        1 MOL1        -0.2427
       2    H1      21.909978   17.724942   21.513745 H          1 MOL1         0.0958
       3    H2      21.834137   18.974449   22.766500 H          1 MOL1         0.0958
       4    H3      20.663666   17.636911   22.761191 H          1 MOL1         0.0958
       5    C2      20.294514   19.163855   21.216259 C.3        1 MOL1        -0.1412
       6    H4      19.707008   18.502399   20.564637 H          1 MOL1         0.0947
       7    H5      20.930924   19.757439   20.545039 H          1 MOL1         0.0947
       8    C3      19.357838   20.136051   21.981224 C.3        1 MOL1        -0.1437
       9    H6      19.846276   20.534622   22.877552 H          1 MOL1         0.0947
      10    H7      19.202516   21.010256   21.333940 H          1 MOL1         0.0947
      11    C4      17.949963   19.571249   22.308777 C.3        1 MOL1        -0.1437
      12    H8      17.506698   19.188658   21.379165 H          1 MOL1         0.0947
      13    H9      17.303384   20.405292   22.614288 H          1 MOL1         0.0947
      14    C5      17.858017   18.461146   23.389155 C.3        1 MOL1        -0.1437
      15    H10     16.828614   18.077985   23.359323 H          1 MOL1         0.0947
      16    H11     18.485143   17.600822   23.129289 H          1 MOL1         0.0947
      17    C6      18.127077   18.935146   24.842475 C.3        1 MOL1        -0.1437
      18    H12     17.485584   18.349972   25.516175 H          1 MOL1         0.0947
      19    H13     17.814381   19.981527   24.962681 H          1 MOL1         0.0947
      20    C7      19.590190   18.758245   25.309778 C.3        1 MOL1        -0.1477
      21    H14     19.889750   17.708376   25.193759 H          1 MOL1         0.0947
      22    H15     20.265664   19.357045   24.691293 H          1 MOL1         0.0947
      23    C8      19.761089   19.174605   26.781024 C.3        1 MOL1         0.0145
      24    H16     19.107555   18.567979   27.413732 H          1 MOL1         0.0921
      25    H17     19.479659   20.224214   26.901641 H          1 MOL1         0.0921
      26    N1      21.181136   19.010480   27.282822 N.4        1 MOL1        -0.5969
      27    H18     21.272338   19.292464   28.265094 H          1 MOL1         0.3603
      28    H19     21.844217   19.579168   26.745960 H          1 MOL1         0.3603
      29    H20     21.497694   18.037140   27.221018 H          1 MOL1         0.3603
@<TRIPOS>BOND
    1     1     2    1
    2     1     3    1
    3     1     4    1
    4     1     5    1
    5     5     6    1
    6     5     7    1
    7     5     8    1
    8     8     9    1
    9     8    10    1
   10     8    11    1
   11    11    12    1
   12    11    13    1
   13    11    14    1
   14    14    15    1
   15    14    16    1
   16    14    17    1
   17    17    18    1
   18    17    19    1
   19    17    20    1
   20    20    21    1
   21    20    22    1
   22    20    23    1
   23    23    24    1
   24    23    25    1
   25    23    26    1
   26    26    27    1
   27    26    28    1
   28    26    29    1
@<TRIPOS>SUBSTRUCTURE
       1 MOL1            1 RESIDUE      1      MOL     
@<SCITEGIC>MOL_PROPERTY
VM2 Rank
SciTegic.value.IntegerValue
484

@<SCITEGIC>MOL_PROPERTY
Conf_Id
SciTegic.value.IntegerValue
1042

@<SCITEGIC>MOL_PROPERTY
Probability
SciTegic.value.DoubleValue
0.00

@<SCITEGIC>MOL_PROPERTY
Sum Probability
SciTegic.value.DoubleValue
100.00

@<SCITEGIC>MOL_PROPERTY
Delta G
SciTegic.value.DoubleValue
7.625

@<SCITEGIC>MOL_PROPERTY
G
SciTegic.value.DoubleValue
65.772

@<SCITEGIC>MOL_PROPERTY
E
SciTegic.value.DoubleValue
27.590

@<SCITEGIC>MOL_PROPERTY
-TS
SciTegic.value.DoubleValue
38.181

@<SCITEGIC>MOL_PROPERTY
U+W
SciTegic.value.DoubleValue
3.446

@<SCITEGIC>MOL_PROPERTY
U
SciTegic.value.DoubleValue
56.007

@<SCITEGIC>MOL_PROPERTY
W
SciTegic.value.DoubleValue
-52.561

@<SCITEGIC>MOL_PROPERTY
W(PB)
SciTegic.value.DoubleValue
-54.916

@<SCITEGIC>MOL_PROPERTY
W(SA)
SciTegic.value.DoubleValue
2.355

@<SCITEGIC>MOL_PROPERTY
Valence
SciTegic.value.DoubleValue
9.527

@<SCITEGIC>MOL_PROPERTY
Coulomb
SciTegic.value.DoubleValue
46.202

@<SCITEGIC>MOL_PROPERTY
VdW
SciTegic.value.DoubleValue
0.278

@<SCITEGIC>MOL_PROPERTY
VdW6
SciTegic.value.DoubleValue
-10.642

@<SCITEGIC>MOL_PROPERTY
VdW12
SciTegic.value.DoubleValue
10.921

@<SCITEGIC>MOL_PROPERTY
Bond
SciTegic.value.DoubleValue
0.339

@<SCITEGIC>MOL_PROPERTY
Angle
SciTegic.value.DoubleValue
3.123

@<SCITEGIC>MOL_PROPERTY
Pdih
SciTegic.value.DoubleValue
6.065

@<SCITEGIC>MOL_PROPERTY
Idih
SciTegic.value.DoubleValue
0.000

@<SCITEGIC>MOL_PROPERTY
Tether
SciTegic.value.DoubleValue
0.000

@<TRIPOS>MOLECULE
guest-3_vm2.mol2 : vm2 ligand conformer 485
          29          28           1
SMALL
USER_CHARGES
 
@<TRIPOS>ATOM
       1    C1      20.551919   19.950658   20.331596 C.3        1 MOL1        -0.2427
       2    H1      20.576335   20.738144   19.567275 H          1 MOL1         0.0958
       3    H2      21.342889   20.172733   21.058529 H          1 MOL1         0.0958
       4    H3      20.792230   18.998698   19.840631 H          1 MOL1         0.0958
       5    C2      19.161692   19.893444   21.004329 C.3        1 MOL1        -0.1412
       6    H4      18.394813   19.795506   20.223274 H          1 MOL1         0.0947
       7    H5      18.959300   20.844712   21.516023 H          1 MOL1         0.0947
       8    C3      19.006619   18.719668   22.001300 C.3        1 MOL1        -0.1437
       9    H6      17.961875   18.689970   22.336022 H          1 MOL1         0.0947
      10    H7      19.188119   17.770451   21.478720 H          1 MOL1         0.0947
      11    C4      19.946740   18.826671   23.228880 C.3        1 MOL1        -0.1437
      12    H8      19.817613   19.809126   23.698310 H          1 MOL1         0.0947
      13    H9      20.988548   18.775343   22.886469 H          1 MOL1         0.0947
      14    C5      19.719132   17.692702   24.262459 C.3        1 MOL1        -0.1437
      15    H10     19.655969   16.739385   23.719558 H          1 MOL1         0.0947
      16    H11     20.596829   17.592886   24.914633 H          1 MOL1         0.0947
      17    C6      18.442511   17.862648   25.129068 C.3        1 MOL1        -0.1437
      18    H12     18.016189   16.865032   25.303093 H          1 MOL1         0.0947
      19    H13     17.671606   18.418776   24.580612 H          1 MOL1         0.0947
      20    C7      18.667399   18.519400   26.517044 C.3        1 MOL1        -0.1477
      21    H14     17.706584   18.516028   27.048670 H          1 MOL1         0.0947
      22    H15     19.346320   17.904460   27.122673 H          1 MOL1         0.0947
      23    C8      19.174741   19.974863   26.476421 C.3        1 MOL1         0.0145
      24    H16     18.933176   20.464429   27.423739 H          1 MOL1         0.0921
      25    H17     18.672623   20.520961   25.673414 H          1 MOL1         0.0921
      26    N1      20.673247   20.097945   26.283903 N.4        1 MOL1        -0.5969
      27    H18     21.190840   19.653787   27.049616 H          1 MOL1         0.3603
      28    H19     20.973705   21.078314   26.247524 H          1 MOL1         0.3603
      29    H20     20.974121   19.650688   25.412278 H          1 MOL1         0.3603
@<TRIPOS>BOND
    1     1     2    1
    2     1     3    1
    3     1     4    1
    4     1     5    1
    5     5     6    1
    6     5     7    1
    7     5     8    1
    8     8     9    1
    9     8    10    1
   10     8    11    1
   11    11    12    1
   12    11    13    1
   13    11    14    1
   14    14    15    1
   15    14    16    1
   16    14    17    1
   17    17    18    1
   18    17    19    1
   19    17    20    1
   20    20    21    1
   21    20    22    1
   22    20    23    1
   23    23    24    1
   24    23    25    1
   25    23    26    1
   26    26    27    1
   27    26    28    1
   28    26    29    1
@<TRIPOS>SUBSTRUCTURE
       1 MOL1            1 RESIDUE      1      MOL     
@<SCITEGIC>MOL_PROPERTY
VM2 Rank
SciTegic.value.IntegerValue
485

@<SCITEGIC>MOL_PROPERTY
Conf_Id
SciTegic.value.IntegerValue
806

@<SCITEGIC>MOL_PROPERTY
Probability
SciTegic.value.DoubleValue
0.00

@<SCITEGIC>MOL_PROPERTY
Sum Probability
SciTegic.value.DoubleValue
100.00

@<SCITEGIC>MOL_PROPERTY
Delta G
SciTegic.value.DoubleValue
7.637

@<SCITEGIC>MOL_PROPERTY
G
SciTegic.value.DoubleValue
65.783

@<SCITEGIC>MOL_PROPERTY
E
SciTegic.value.DoubleValue
27.654

@<SCITEGIC>MOL_PROPERTY
-TS
SciTegic.value.DoubleValue
38.129

@<SCITEGIC>MOL_PROPERTY
U+W
SciTegic.value.DoubleValue
3.510

@<SCITEGIC>MOL_PROPERTY
U
SciTegic.value.DoubleValue
55.775

@<SCITEGIC>MOL_PROPERTY
W
SciTegic.value.DoubleValue
-52.265

@<SCITEGIC>MOL_PROPERTY
W(PB)
SciTegic.value.DoubleValue
-54.678

@<SCITEGIC>MOL_PROPERTY
W(SA)
SciTegic.value.DoubleValue
2.413

@<SCITEGIC>MOL_PROPERTY
Valence
SciTegic.value.DoubleValue
7.939

@<SCITEGIC>MOL_PROPERTY
Coulomb
SciTegic.value.DoubleValue
46.996

@<SCITEGIC>MOL_PROPERTY
VdW
SciTegic.value.DoubleValue
0.840

@<SCITEGIC>MOL_PROPERTY
VdW6
SciTegic.value.DoubleValue
-11.015

@<SCITEGIC>MOL_PROPERTY
VdW12
SciTegic.value.DoubleValue
11.855

@<SCITEGIC>MOL_PROPERTY
Bond
SciTegic.value.DoubleValue
0.334

@<SCITEGIC>MOL_PROPERTY
Angle
SciTegic.value.DoubleValue
1.815

@<SCITEGIC>MOL_PROPERTY
Pdih
SciTegic.value.DoubleValue
5.790

@<SCITEGIC>MOL_PROPERTY
Idih
SciTegic.value.DoubleValue
0.000

@<SCITEGIC>MOL_PROPERTY
Tether
SciTegic.value.DoubleValue
0.000

@<TRIPOS>MOLECULE
guest-3_vm2.mol2 : vm2 ligand conformer 486
          29          28           1
SMALL
USER_CHARGES
 
@<TRIPOS>ATOM
       1    C1      19.762977   17.302262   21.083746 C.3        1 MOL1        -0.2427
       2    H1      20.724433   16.987900   21.509961 H          1 MOL1         0.0958
       3    H2      18.967240   17.028823   21.787510 H          1 MOL1         0.0958
       4    H3      19.600200   16.726045   20.163734 H          1 MOL1         0.0958
       5    C2      19.758164   18.817627   20.778935 C.3        1 MOL1        -0.1412
       6    H4      18.776544   19.112675   20.382557 H          1 MOL1         0.0947
       7    H5      20.485545   19.019527   19.980229 H          1 MOL1         0.0947
       8    C3      20.112827   19.692309   22.005153 C.3        1 MOL1        -0.1437
       9    H6      21.098143   19.397098   22.390752 H          1 MOL1         0.0947
      10    H7      20.211708   20.735443   21.674145 H          1 MOL1         0.0947
      11    C4      19.059582   19.621873   23.136274 C.3        1 MOL1        -0.1437
      12    H8      18.953924   18.590549   23.488076 H          1 MOL1         0.0947
      13    H9      18.077000   19.907854   22.736160 H          1 MOL1         0.0947
      14    C5      19.419068   20.561376   24.313581 C.3        1 MOL1        -0.1437
      15    H10     20.465675   20.431001   24.619238 H          1 MOL1         0.0947
      16    H11     19.341724   21.597458   23.955501 H          1 MOL1         0.0947
      17    C6      18.482030   20.390464   25.536294 C.3        1 MOL1        -0.1437
      18    H12     17.486997   20.059822   25.207593 H          1 MOL1         0.0947
      19    H13     18.328437   21.380337   25.987944 H          1 MOL1         0.0947
      20    C7      19.012297   19.449034   26.651097 C.3        1 MOL1        -0.1477
      21    H14     19.945627   19.848007   27.070134 H          1 MOL1         0.0947
      22    H15     18.285731   19.462326   27.474336 H          1 MOL1         0.0947
      23    C8      19.216765   17.979380   26.230476 C.3        1 MOL1         0.0145
      24    H16     18.389166   17.656717   25.593253 H          1 MOL1         0.0921
      25    H17     19.223106   17.349660   27.124262 H          1 MOL1         0.0921
      26    N1      20.520290   17.723675   25.499445 N.4        1 MOL1        -0.5969
      27    H18     21.332045   17.957473   26.080832 H          1 MOL1         0.3603
      28    H19     20.582097   18.287075   24.644791 H          1 MOL1         0.3603
      29    H20     20.618090   16.738839   25.228645 H          1 MOL1         0.3603
@<TRIPOS>BOND
    1     1     2    1
    2     1     3    1
    3     1     4    1
    4     1     5    1
    5     5     6    1
    6     5     7    1
    7     5     8    1
    8     8     9    1
    9     8    10    1
   10     8    11    1
   11    11    12    1
   12    11    13    1
   13    11    14    1
   14    14    15    1
   15    14    16    1
   16    14    17    1
   17    17    18    1
   18    17    19    1
   19    17    20    1
   20    20    21    1
   21    20    22    1
   22    20    23    1
   23    23    24    1
   24    23    25    1
   25    23    26    1
   26    26    27    1
   27    26    28    1
   28    26    29    1
@<TRIPOS>SUBSTRUCTURE
       1 MOL1            1 RESIDUE      1      MOL     
@<SCITEGIC>MOL_PROPERTY
VM2 Rank
SciTegic.value.IntegerValue
486

@<SCITEGIC>MOL_PROPERTY
Conf_Id
SciTegic.value.IntegerValue
2902

@<SCITEGIC>MOL_PROPERTY
Probability
SciTegic.value.DoubleValue
0.00

@<SCITEGIC>MOL_PROPERTY
Sum Probability
SciTegic.value.DoubleValue
100.00

@<SCITEGIC>MOL_PROPERTY
Delta G
SciTegic.value.DoubleValue
7.758

@<SCITEGIC>MOL_PROPERTY
G
SciTegic.value.DoubleValue
65.904

@<SCITEGIC>MOL_PROPERTY
E
SciTegic.value.DoubleValue
27.794

@<SCITEGIC>MOL_PROPERTY
-TS
SciTegic.value.DoubleValue
38.110

@<SCITEGIC>MOL_PROPERTY
U+W
SciTegic.value.DoubleValue
3.649

@<SCITEGIC>MOL_PROPERTY
U
SciTegic.value.DoubleValue
55.068

@<SCITEGIC>MOL_PROPERTY
W
SciTegic.value.DoubleValue
-51.418

@<SCITEGIC>MOL_PROPERTY
W(PB)
SciTegic.value.DoubleValue
-53.815

@<SCITEGIC>MOL_PROPERTY
W(SA)
SciTegic.value.DoubleValue
2.396

@<SCITEGIC>MOL_PROPERTY
Valence
SciTegic.value.DoubleValue
7.106

@<SCITEGIC>MOL_PROPERTY
Coulomb
SciTegic.value.DoubleValue
47.421

@<SCITEGIC>MOL_PROPERTY
VdW
SciTegic.value.DoubleValue
0.541

@<SCITEGIC>MOL_PROPERTY
VdW6
SciTegic.value.DoubleValue
-10.987

@<SCITEGIC>MOL_PROPERTY
VdW12
SciTegic.value.DoubleValue
11.528

@<SCITEGIC>MOL_PROPERTY
Bond
SciTegic.value.DoubleValue
0.285

@<SCITEGIC>MOL_PROPERTY
Angle
SciTegic.value.DoubleValue
1.678

@<SCITEGIC>MOL_PROPERTY
Pdih
SciTegic.value.DoubleValue
5.143

@<SCITEGIC>MOL_PROPERTY
Idih
SciTegic.value.DoubleValue
0.000

@<SCITEGIC>MOL_PROPERTY
Tether
SciTegic.value.DoubleValue
0.000

@<TRIPOS>MOLECULE
guest-3_vm2.mol2 : vm2 ligand conformer 487
          29          28           1
SMALL
USER_CHARGES
 
@<TRIPOS>ATOM
       1    C1      21.192232   19.656456   21.237560 C.3        1 MOL1        -0.2427
       2    H1      22.262145   19.832094   21.408768 H          1 MOL1         0.0958
       3    H2      21.075394   19.276061   20.214520 H          1 MOL1         0.0958
       4    H3      20.684267   20.626234   21.301676 H          1 MOL1         0.0958
       5    C2      20.637747   18.649552   22.271021 C.3        1 MOL1        -0.1412
       6    H4      20.774030   19.053088   23.280385 H          1 MOL1         0.0947
       7    H5      21.241547   17.732692   22.223044 H          1 MOL1         0.0947
       8    C3      19.153176   18.276691   22.024432 C.3        1 MOL1        -0.1437
       9    H6      19.047820   17.978233   20.972282 H          1 MOL1         0.0947
      10    H7      18.889453   17.383396   22.605885 H          1 MOL1         0.0947
      11    C4      18.135439   19.409676   22.323821 C.3        1 MOL1        -0.1437
      12    H8      17.312918   19.316548   21.601349 H          1 MOL1         0.0947
      13    H9      18.578471   20.394592   22.131442 H          1 MOL1         0.0947
      14    C5      17.502933   19.385701   23.741668 C.3        1 MOL1        -0.1437
      15    H10     16.722047   20.158530   23.760938 H          1 MOL1         0.0947
      16    H11     16.976095   18.435372   23.903874 H          1 MOL1         0.0947
      17    C6      18.475973   19.669446   24.914490 C.3        1 MOL1        -0.1437
      18    H12     17.929578   20.226466   25.688288 H          1 MOL1         0.0947
      19    H13     19.280912   20.335286   24.578269 H          1 MOL1         0.0947
      20    C7      19.044667   18.383922   25.567576 C.3        1 MOL1        -0.1477
      21    H14     18.211528   17.762683   25.922018 H          1 MOL1         0.0947
      22    H15     19.589299   17.777140   24.836076 H          1 MOL1         0.0947
      23    C8      19.964976   18.686198   26.765505 C.3        1 MOL1         0.0145
      24    H16     20.254228   17.748075   27.246918 H          1 MOL1         0.0921
      25    H17     19.427057   19.293778   27.498198 H          1 MOL1         0.0921
      26    N1      21.236859   19.420358   26.388926 N.4        1 MOL1        -0.5969
      27    H18     21.804737   18.882670   25.726290 H          1 MOL1         0.3603
      28    H19     21.825773   19.602853   27.209024 H          1 MOL1         0.3603
      29    H20     21.036528   20.327194   25.955777 H          1 MOL1         0.3603
@<TRIPOS>BOND
    1     1     2    1
    2     1     3    1
    3     1     4    1
    4     1     5    1
    5     5     6    1
    6     5     7    1
    7     5     8    1
    8     8     9    1
    9     8    10    1
   10     8    11    1
   11    11    12    1
   12    11    13    1
   13    11    14    1
   14    14    15    1
   15    14    16    1
   16    14    17    1
   17    17    18    1
   18    17    19    1
   19    17    20    1
   20    20    21    1
   21    20    22    1
   22    20    23    1
   23    23    24    1
   24    23    25    1
   25    23    26    1
   26    26    27    1
   27    26    28    1
   28    26    29    1
@<TRIPOS>SUBSTRUCTURE
       1 MOL1            1 RESIDUE      1      MOL     
@<SCITEGIC>MOL_PROPERTY
VM2 Rank
SciTegic.value.IntegerValue
487

@<SCITEGIC>MOL_PROPERTY
Conf_Id
SciTegic.value.IntegerValue
283

@<SCITEGIC>MOL_PROPERTY
Probability
SciTegic.value.DoubleValue
0.00

@<SCITEGIC>MOL_PROPERTY
Sum Probability
SciTegic.value.DoubleValue
100.00

@<SCITEGIC>MOL_PROPERTY
Delta G
SciTegic.value.DoubleValue
7.919

@<SCITEGIC>MOL_PROPERTY
G
SciTegic.value.DoubleValue
66.065

@<SCITEGIC>MOL_PROPERTY
E
SciTegic.value.DoubleValue
27.756

@<SCITEGIC>MOL_PROPERTY
-TS
SciTegic.value.DoubleValue
38.309

@<SCITEGIC>MOL_PROPERTY
U+W
SciTegic.value.DoubleValue
3.612

@<SCITEGIC>MOL_PROPERTY
U
SciTegic.value.DoubleValue
56.580

@<SCITEGIC>MOL_PROPERTY
W
SciTegic.value.DoubleValue
-52.968

@<SCITEGIC>MOL_PROPERTY
W(PB)
SciTegic.value.DoubleValue
-55.317

@<SCITEGIC>MOL_PROPERTY
W(SA)
SciTegic.value.DoubleValue
2.349

@<SCITEGIC>MOL_PROPERTY
Valence
SciTegic.value.DoubleValue
8.991

@<SCITEGIC>MOL_PROPERTY
Coulomb
SciTegic.value.DoubleValue
47.063

@<SCITEGIC>MOL_PROPERTY
VdW
SciTegic.value.DoubleValue
0.525

@<SCITEGIC>MOL_PROPERTY
VdW6
SciTegic.value.DoubleValue
-11.279

@<SCITEGIC>MOL_PROPERTY
VdW12
SciTegic.value.DoubleValue
11.804

@<SCITEGIC>MOL_PROPERTY
Bond
SciTegic.value.DoubleValue
0.353

@<SCITEGIC>MOL_PROPERTY
Angle
SciTegic.value.DoubleValue
2.265

@<SCITEGIC>MOL_PROPERTY
Pdih
SciTegic.value.DoubleValue
6.373

@<SCITEGIC>MOL_PROPERTY
Idih
SciTegic.value.DoubleValue
0.000

@<SCITEGIC>MOL_PROPERTY
Tether
SciTegic.value.DoubleValue
0.000

@<TRIPOS>MOLECULE
guest-3_vm2.mol2 : vm2 ligand conformer 488
          29          28           1
SMALL
USER_CHARGES
 
@<TRIPOS>ATOM
       1    C1      21.412329   19.170208   21.045258 C.3        1 MOL1        -0.2427
       2    H1      21.478692   20.206906   20.690203 H          1 MOL1         0.0958
       3    H2      22.422848   18.845062   21.324758 H          1 MOL1         0.0958
       4    H3      21.075384   18.543223   20.209421 H          1 MOL1         0.0958
       5    C2      20.450921   19.054835   22.246986 C.3        1 MOL1        -0.1412
       6    H4      20.826204   19.674593   23.071744 H          1 MOL1         0.0947
       7    H5      20.447107   18.013396   22.589602 H          1 MOL1         0.0947
       8    C3      19.016484   19.489078   21.871964 C.3        1 MOL1        -0.1437
       9    H6      19.066130   20.458628   21.357374 H          1 MOL1         0.0947
      10    H7      18.600064   18.780467   21.142925 H          1 MOL1         0.0947
      11    C4      18.039634   19.635257   23.068043 C.3        1 MOL1        -0.1437
      12    H8      17.099433   20.031572   22.660307 H          1 MOL1         0.0947
      13    H9      18.390829   20.408337   23.759500 H          1 MOL1         0.0947
      14    C5      17.694972   18.321208   23.820946 C.3        1 MOL1        -0.1437
      15    H10     16.692444   18.436197   24.255797 H          1 MOL1         0.0947
      16    H11     17.602947   17.502170   23.094579 H          1 MOL1         0.0947
      17    C6      18.651349   17.885631   24.966119 C.3        1 MOL1        -0.1437
      18    H12     19.637225   17.611767   24.578967 H          1 MOL1         0.0947
      19    H13     18.244928   16.954368   25.384285 H          1 MOL1         0.0947
      20    C7      18.782408   18.904170   26.130192 C.3        1 MOL1        -0.1477
      21    H14     17.850751   19.476539   26.230634 H          1 MOL1         0.0947
      22    H15     18.899641   18.355896   27.074444 H          1 MOL1         0.0947
      23    C8      19.971520   19.877166   25.990159 C.3        1 MOL1         0.0145
      24    H16     19.918086   20.627495   26.783645 H          1 MOL1         0.0921
      25    H17     19.927477   20.395108   25.030467 H          1 MOL1         0.0921
      26    N1      21.324383   19.200447   26.095332 N.4        1 MOL1        -0.5969
      27    H18     21.441091   18.726564   26.997092 H          1 MOL1         0.3603
      28    H19     22.094249   19.873051   26.009482 H          1 MOL1         0.3603
      29    H20     21.454806   18.495121   25.363965 H          1 MOL1         0.3603
@<TRIPOS>BOND
    1     1     2    1
    2     1     3    1
    3     1     4    1
    4     1     5    1
    5     5     6    1
    6     5     7    1
    7     5     8    1
    8     8     9    1
    9     8    10    1
   10     8    11    1
   11    11    12    1
   12    11    13    1
   13    11    14    1
   14    14    15    1
   15    14    16    1
   16    14    17    1
   17    17    18    1
   18    17    19    1
   19    17    20    1
   20    20    21    1
   21    20    22    1
   22    20    23    1
   23    23    24    1
   24    23    25    1
   25    23    26    1
   26    26    27    1
   27    26    28    1
   28    26    29    1
@<TRIPOS>SUBSTRUCTURE
       1 MOL1            1 RESIDUE      1      MOL     
@<SCITEGIC>MOL_PROPERTY
VM2 Rank
SciTegic.value.IntegerValue
488

@<SCITEGIC>MOL_PROPERTY
Conf_Id
SciTegic.value.IntegerValue
1298

@<SCITEGIC>MOL_PROPERTY
Probability
SciTegic.value.DoubleValue
0.00

@<SCITEGIC>MOL_PROPERTY
Sum Probability
SciTegic.value.DoubleValue
100.00

@<SCITEGIC>MOL_PROPERTY
Delta G
SciTegic.value.DoubleValue
7.943

@<SCITEGIC>MOL_PROPERTY
G
SciTegic.value.DoubleValue
66.090

@<SCITEGIC>MOL_PROPERTY
E
SciTegic.value.DoubleValue
27.929

@<SCITEGIC>MOL_PROPERTY
-TS
SciTegic.value.DoubleValue
38.161

@<SCITEGIC>MOL_PROPERTY
U+W
SciTegic.value.DoubleValue
3.784

@<SCITEGIC>MOL_PROPERTY
U
SciTegic.value.DoubleValue
56.781

@<SCITEGIC>MOL_PROPERTY
W
SciTegic.value.DoubleValue
-52.997

@<SCITEGIC>MOL_PROPERTY
W(PB)
SciTegic.value.DoubleValue
-55.352

@<SCITEGIC>MOL_PROPERTY
W(SA)
SciTegic.value.DoubleValue
2.355

@<SCITEGIC>MOL_PROPERTY
Valence
SciTegic.value.DoubleValue
8.937

@<SCITEGIC>MOL_PROPERTY
Coulomb
SciTegic.value.DoubleValue
47.536

@<SCITEGIC>MOL_PROPERTY
VdW
SciTegic.value.DoubleValue
0.309

@<SCITEGIC>MOL_PROPERTY
VdW6
SciTegic.value.DoubleValue
-11.432

@<SCITEGIC>MOL_PROPERTY
VdW12
SciTegic.value.DoubleValue
11.740

@<SCITEGIC>MOL_PROPERTY
Bond
SciTegic.value.DoubleValue
0.370

@<SCITEGIC>MOL_PROPERTY
Angle
SciTegic.value.DoubleValue
3.008

@<SCITEGIC>MOL_PROPERTY
Pdih
SciTegic.value.DoubleValue
5.559

@<SCITEGIC>MOL_PROPERTY
Idih
SciTegic.value.DoubleValue
0.000

@<SCITEGIC>MOL_PROPERTY
Tether
SciTegic.value.DoubleValue
0.000

@<TRIPOS>MOLECULE
guest-3_vm2.mol2 : vm2 ligand conformer 489
          29          28           1
SMALL
USER_CHARGES
 
@<TRIPOS>ATOM
       1    C1      20.484010   17.984715   20.278941 C.3        1 MOL1        -0.2427
       2    H1      21.340009   17.299105   20.231248 H          1 MOL1         0.0958
       3    H2      19.645262   17.513474   19.750064 H          1 MOL1         0.0958
       4    H3      20.756191   18.901609   19.739947 H          1 MOL1         0.0958
       5    C2      20.113440   18.292894   21.744882 C.3        1 MOL1        -0.1412
       6    H4      20.988521   18.725349   22.247177 H          1 MOL1         0.0947
       7    H5      19.875621   17.352305   22.260154 H          1 MOL1         0.0947
       8    C3      18.907851   19.258455   21.833829 C.3        1 MOL1        -0.1437
       9    H6      19.150100   20.203922   21.329046 H          1 MOL1         0.0947
      10    H7      18.064305   18.822654   21.280666 H          1 MOL1         0.0947
      11    C4      18.446664   19.547670   23.282935 C.3        1 MOL1        -0.1437
      12    H8      18.225523   18.603822   23.794542 H          1 MOL1         0.0947
      13    H9      17.491140   20.088414   23.237265 H          1 MOL1         0.0947
      14    C5      19.454098   20.405891   24.092054 C.3        1 MOL1        -0.1437
      15    H10     20.460463   19.970348   24.084123 H          1 MOL1         0.0947
      16    H11     19.548895   21.377351   23.587255 H          1 MOL1         0.0947
      17    C6      19.000916   20.656715   25.553286 C.3        1 MOL1        -0.1437
      18    H12     17.904133   20.641772   25.618143 H          1 MOL1         0.0947
      19    H13     19.297054   21.677932   25.830559 H          1 MOL1         0.0947
      20    C7      19.606027   19.695450   26.611145 C.3        1 MOL1        -0.1477
      21    H14     20.697937   19.807705   26.643295 H          1 MOL1         0.0947
      22    H15     19.243930   20.012332   27.598208 H          1 MOL1         0.0947
      23    C8      19.240074   18.208437   26.432282 C.3        1 MOL1         0.0145
      24    H16     18.189723   18.116434   26.143442 H          1 MOL1         0.0921
      25    H17     19.378231   17.688555   27.384173 H          1 MOL1         0.0921
      26    N1      20.090920   17.487774   25.405646 N.4        1 MOL1        -0.5969
      27    H18     19.810779   16.506066   25.301237 H          1 MOL1         0.3603
      28    H19     21.082446   17.491068   25.667961 H          1 MOL1         0.3603
      29    H20     20.013548   17.934199   24.485676 H          1 MOL1         0.3603
@<TRIPOS>BOND
    1     1     2    1
    2     1     3    1
    3     1     4    1
    4     1     5    1
    5     5     6    1
    6     5     7    1
    7     5     8    1
    8     8     9    1
    9     8    10    1
   10     8    11    1
   11    11    12    1
   12    11    13    1
   13    11    14    1
   14    14    15    1
   15    14    16    1
   16    14    17    1
   17    17    18    1
   18    17    19    1
   19    17    20    1
   20    20    21    1
   21    20    22    1
   22    20    23    1
   23    23    24    1
   24    23    25    1
   25    23    26    1
   26    26    27    1
   27    26    28    1
   28    26    29    1
@<TRIPOS>SUBSTRUCTURE
       1 MOL1            1 RESIDUE      1      MOL     
@<SCITEGIC>MOL_PROPERTY
VM2 Rank
SciTegic.value.IntegerValue
489

@<SCITEGIC>MOL_PROPERTY
Conf_Id
SciTegic.value.IntegerValue
659

@<SCITEGIC>MOL_PROPERTY
Probability
SciTegic.value.DoubleValue
0.00

@<SCITEGIC>MOL_PROPERTY
Sum Probability
SciTegic.value.DoubleValue
100.00

@<SCITEGIC>MOL_PROPERTY
Delta G
SciTegic.value.DoubleValue
8.416

@<SCITEGIC>MOL_PROPERTY
G
SciTegic.value.DoubleValue
66.563

@<SCITEGIC>MOL_PROPERTY
E
SciTegic.value.DoubleValue
28.295

@<SCITEGIC>MOL_PROPERTY
-TS
SciTegic.value.DoubleValue
38.267

@<SCITEGIC>MOL_PROPERTY
U+W
SciTegic.value.DoubleValue
4.151

@<SCITEGIC>MOL_PROPERTY
U
SciTegic.value.DoubleValue
55.609

@<SCITEGIC>MOL_PROPERTY
W
SciTegic.value.DoubleValue
-51.458

@<SCITEGIC>MOL_PROPERTY
W(PB)
SciTegic.value.DoubleValue
-53.817

@<SCITEGIC>MOL_PROPERTY
W(SA)
SciTegic.value.DoubleValue
2.359

@<SCITEGIC>MOL_PROPERTY
Valence
SciTegic.value.DoubleValue
7.220

@<SCITEGIC>MOL_PROPERTY
Coulomb
SciTegic.value.DoubleValue
48.045

@<SCITEGIC>MOL_PROPERTY
VdW
SciTegic.value.DoubleValue
0.343

@<SCITEGIC>MOL_PROPERTY
VdW6
SciTegic.value.DoubleValue
-11.199

@<SCITEGIC>MOL_PROPERTY
VdW12
SciTegic.value.DoubleValue
11.542

@<SCITEGIC>MOL_PROPERTY
Bond
SciTegic.value.DoubleValue
0.291

@<SCITEGIC>MOL_PROPERTY
Angle
SciTegic.value.DoubleValue
1.803

@<SCITEGIC>MOL_PROPERTY
Pdih
SciTegic.value.DoubleValue
5.126

@<SCITEGIC>MOL_PROPERTY
Idih
SciTegic.value.DoubleValue
0.000

@<SCITEGIC>MOL_PROPERTY
Tether
SciTegic.value.DoubleValue
0.000

@<TRIPOS>MOLECULE
guest-3_vm2.mol2 : vm2 ligand conformer 490
          29          28           1
SMALL
USER_CHARGES
 
@<TRIPOS>ATOM
       1    C1      20.922091   17.846793   22.380661 C.3        1 MOL1        -0.2427
       2    H1      20.900364   18.308703   23.371851 H          1 MOL1         0.0958
       3    H2      21.003321   16.759832   22.510023 H          1 MOL1         0.0958
       4    H3      21.832659   18.191468   21.873453 H          1 MOL1         0.0958
       5    C2      19.667180   18.205152   21.552738 C.3        1 MOL1        -0.1412
       6    H4      18.770706   17.735007   21.978345 H          1 MOL1         0.0947
       7    H5      19.786782   17.766823   20.552034 H          1 MOL1         0.0947
       8    C3      19.456145   19.732342   21.403046 C.3        1 MOL1        -0.1437
       9    H6      20.422649   20.253850   21.435550 H          1 MOL1         0.0947
      10    H7      19.057205   19.919279   20.396443 H          1 MOL1         0.0947
      11    C4      18.470266   20.375836   22.415382 C.3        1 MOL1        -0.1437
      12    H8      17.473991   19.925955   22.306163 H          1 MOL1         0.0947
      13    H9      18.347531   21.427826   22.122771 H          1 MOL1         0.0947
      14    C5      18.911986   20.348162   23.901818 C.3        1 MOL1        -0.1437
      15    H10     20.006673   20.381666   23.969787 H          1 MOL1         0.0947
      16    H11     18.555000   21.271070   24.379380 H          1 MOL1         0.0947
      17    C6      18.333387   19.148101   24.695583 C.3        1 MOL1        -0.1437
      18    H12     18.671929   18.198177   24.267349 H          1 MOL1         0.0947
      19    H13     17.239332   19.152267   24.595414 H          1 MOL1         0.0947
      20    C7      18.682364   19.199184   26.203784 C.3        1 MOL1        -0.1477
      21    H14     18.341399   20.155757   26.621572 H          1 MOL1         0.0947
      22    H15     18.123213   18.417957   26.735649 H          1 MOL1         0.0947
      23    C8      20.185720   19.033285   26.500923 C.3        1 MOL1         0.0145
      24    H16     20.367093   19.216834   27.563414 H          1 MOL1         0.0921
      25    H17     20.762151   19.762854   25.926604 H          1 MOL1         0.0921
      26    N1      20.714861   17.649145   26.181065 N.4        1 MOL1        -0.5969
      27    H18     21.718429   17.570503   26.379747 H          1 MOL1         0.3603
      28    H19     20.578798   17.410184   25.194375 H          1 MOL1         0.3603
      29    H20     20.243191   16.927255   26.736092 H          1 MOL1         0.3603
@<TRIPOS>BOND
    1     1     2    1
    2     1     3    1
    3     1     4    1
    4     1     5    1
    5     5     6    1
    6     5     7    1
    7     5     8    1
    8     8     9    1
    9     8    10    1
   10     8    11    1
   11    11    12    1
   12    11    13    1
   13    11    14    1
   14    14    15    1
   15    14    16    1
   16    14    17    1
   17    17    18    1
   18    17    19    1
   19    17    20    1
   20    20    21    1
   21    20    22    1
   22    20    23    1
   23    23    24    1
   24    23    25    1
   25    23    26    1
   26    26    27    1
   27    26    28    1
   28    26    29    1
@<TRIPOS>SUBSTRUCTURE
       1 MOL1            1 RESIDUE      1      MOL     
@<SCITEGIC>MOL_PROPERTY
VM2 Rank
SciTegic.value.IntegerValue
490

@<SCITEGIC>MOL_PROPERTY
Conf_Id
SciTegic.value.IntegerValue
1659

@<SCITEGIC>MOL_PROPERTY
Probability
SciTegic.value.DoubleValue
0.00

@<SCITEGIC>MOL_PROPERTY
Sum Probability
SciTegic.value.DoubleValue
100.00

@<SCITEGIC>MOL_PROPERTY
Delta G
SciTegic.value.DoubleValue
8.682

@<SCITEGIC>MOL_PROPERTY
G
SciTegic.value.DoubleValue
66.828

@<SCITEGIC>MOL_PROPERTY
E
SciTegic.value.DoubleValue
28.314

@<SCITEGIC>MOL_PROPERTY
-TS
SciTegic.value.DoubleValue
38.514

@<SCITEGIC>MOL_PROPERTY
U+W
SciTegic.value.DoubleValue
4.169

@<SCITEGIC>MOL_PROPERTY
U
SciTegic.value.DoubleValue
56.468

@<SCITEGIC>MOL_PROPERTY
W
SciTegic.value.DoubleValue
-52.299

@<SCITEGIC>MOL_PROPERTY
W(PB)
SciTegic.value.DoubleValue
-54.625

@<SCITEGIC>MOL_PROPERTY
W(SA)
SciTegic.value.DoubleValue
2.327

@<SCITEGIC>MOL_PROPERTY
Valence
SciTegic.value.DoubleValue
8.838

@<SCITEGIC>MOL_PROPERTY
Coulomb
SciTegic.value.DoubleValue
47.456

@<SCITEGIC>MOL_PROPERTY
VdW
SciTegic.value.DoubleValue
0.174

@<SCITEGIC>MOL_PROPERTY
VdW6
SciTegic.value.DoubleValue
-11.720

@<SCITEGIC>MOL_PROPERTY
VdW12
SciTegic.value.DoubleValue
11.894

@<SCITEGIC>MOL_PROPERTY
Bond
SciTegic.value.DoubleValue
0.333

@<SCITEGIC>MOL_PROPERTY
Angle
SciTegic.value.DoubleValue
2.145

@<SCITEGIC>MOL_PROPERTY
Pdih
SciTegic.value.DoubleValue
6.360

@<SCITEGIC>MOL_PROPERTY
Idih
SciTegic.value.DoubleValue
0.000

@<SCITEGIC>MOL_PROPERTY
Tether
SciTegic.value.DoubleValue
0.000

@<TRIPOS>MOLECULE
guest-3_vm2.mol2 : vm2 ligand conformer 491
          29          28           1
SMALL
USER_CHARGES
 
@<TRIPOS>ATOM
       1    C1      20.243801   18.814374   20.576022 C.3        1 MOL1        -0.2427
       2    H1      21.020078   18.205866   21.057537 H          1 MOL1         0.0958
       3    H2      20.318632   18.657487   19.492229 H          1 MOL1         0.0958
       4    H3      20.459156   19.872241   20.771527 H          1 MOL1         0.0958
       5    C2      18.837900   18.424189   21.082476 C.3        1 MOL1        -0.1412
       6    H4      18.618183   17.397922   20.756658 H          1 MOL1         0.0947
       7    H5      18.085638   19.064104   20.600535 H          1 MOL1         0.0947
       8    C3      18.674644   18.499527   22.621921 C.3        1 MOL1        -0.1437
       9    H6      17.666904   18.136881   22.866887 H          1 MOL1         0.0947
      10    H7      19.370827   17.800235   23.102473 H          1 MOL1         0.0947
      11    C4      18.834545   19.925782   23.214718 C.3        1 MOL1        -0.1437
      12    H8      18.139612   20.059015   24.054323 H          1 MOL1         0.0947
      13    H9      18.516202   20.659833   22.461810 H          1 MOL1         0.0947
      14    C5      20.274314   20.265872   23.683720 C.3        1 MOL1        -0.1437
      15    H10     21.014853   19.693242   23.111546 H          1 MOL1         0.0947
      16    H11     20.466855   21.319907   23.440704 H          1 MOL1         0.0947
      17    C6      20.539684   20.083885   25.202319 C.3        1 MOL1        -0.1437
      18    H12     19.857567   20.719493   25.781546 H          1 MOL1         0.0947
      19    H13     21.545435   20.476700   25.405895 H          1 MOL1         0.0947
      20    C7      20.495033   18.621122   25.718279 C.3        1 MOL1        -0.1477
      21    H14     20.996438   17.961329   24.998243 H          1 MOL1         0.0947
      22    H15     21.081177   18.554147   26.644437 H          1 MOL1         0.0947
      23    C8      19.078677   18.083739   26.009253 C.3        1 MOL1         0.0145
      24    H16     19.145073   17.031371   26.298284 H          1 MOL1         0.0921
      25    H17     18.458989   18.149671   25.113658 H          1 MOL1         0.0921
      26    N1      18.365402   18.819511   27.126292 N.4        1 MOL1        -0.5969
      27    H18     18.240403   19.812386   26.906459 H          1 MOL1         0.3603
      28    H19     18.886053   18.767526   28.007976 H          1 MOL1         0.3603
      29    H20     17.433376   18.429976   27.304978 H          1 MOL1         0.3603
@<TRIPOS>BOND
    1     1     2    1
    2     1     3    1
    3     1     4    1
    4     1     5    1
    5     5     6    1
    6     5     7    1
    7     5     8    1
    8     8     9    1
    9     8    10    1
   10     8    11    1
   11    11    12    1
   12    11    13    1
   13    11    14    1
   14    14    15    1
   15    14    16    1
   16    14    17    1
   17    17    18    1
   18    17    19    1
   19    17    20    1
   20    20    21    1
   21    20    22    1
   22    20    23    1
   23    23    24    1
   24    23    25    1
   25    23    26    1
   26    26    27    1
   27    26    28    1
   28    26    29    1
@<TRIPOS>SUBSTRUCTURE
       1 MOL1            1 RESIDUE      1      MOL     
@<SCITEGIC>MOL_PROPERTY
VM2 Rank
SciTegic.value.IntegerValue
491

@<SCITEGIC>MOL_PROPERTY
Conf_Id
SciTegic.value.IntegerValue
312

@<SCITEGIC>MOL_PROPERTY
Probability
SciTegic.value.DoubleValue
0.00

@<SCITEGIC>MOL_PROPERTY
Sum Probability
SciTegic.value.DoubleValue
100.00

@<SCITEGIC>MOL_PROPERTY
Delta G
SciTegic.value.DoubleValue
9.018

@<SCITEGIC>MOL_PROPERTY
G
SciTegic.value.DoubleValue
67.164

@<SCITEGIC>MOL_PROPERTY
E
SciTegic.value.DoubleValue
28.603

@<SCITEGIC>MOL_PROPERTY
-TS
SciTegic.value.DoubleValue
38.561

@<SCITEGIC>MOL_PROPERTY
U+W
SciTegic.value.DoubleValue
4.459

@<SCITEGIC>MOL_PROPERTY
U
SciTegic.value.DoubleValue
57.201

@<SCITEGIC>MOL_PROPERTY
W
SciTegic.value.DoubleValue
-52.742

@<SCITEGIC>MOL_PROPERTY
W(PB)
SciTegic.value.DoubleValue
-55.087

@<SCITEGIC>MOL_PROPERTY
W(SA)
SciTegic.value.DoubleValue
2.344

@<SCITEGIC>MOL_PROPERTY
Valence
SciTegic.value.DoubleValue
10.126

@<SCITEGIC>MOL_PROPERTY
Coulomb
SciTegic.value.DoubleValue
46.546

@<SCITEGIC>MOL_PROPERTY
VdW
SciTegic.value.DoubleValue
0.529

@<SCITEGIC>MOL_PROPERTY
VdW6
SciTegic.value.DoubleValue
-12.293

@<SCITEGIC>MOL_PROPERTY
VdW12
SciTegic.value.DoubleValue
12.823

@<SCITEGIC>MOL_PROPERTY
Bond
SciTegic.value.DoubleValue
0.377

@<SCITEGIC>MOL_PROPERTY
Angle
SciTegic.value.DoubleValue
2.399

@<SCITEGIC>MOL_PROPERTY
Pdih
SciTegic.value.DoubleValue
7.350

@<SCITEGIC>MOL_PROPERTY
Idih
SciTegic.value.DoubleValue
0.000

@<SCITEGIC>MOL_PROPERTY
Tether
SciTegic.value.DoubleValue
0.000

@<TRIPOS>MOLECULE
guest-3_vm2.mol2 : vm2 ligand conformer 492
          29          28           1
SMALL
USER_CHARGES
 
@<TRIPOS>ATOM
       1    C1      21.214786   18.518824   21.648427 C.3        1 MOL1        -0.2427
       2    H1      20.770850   17.599191   21.245576 H          1 MOL1         0.0958
       3    H2      22.205116   18.639012   21.190235 H          1 MOL1         0.0958
       4    H3      21.374497   18.388672   22.722562 H          1 MOL1         0.0958
       5    C2      20.331493   19.748029   21.339905 C.3        1 MOL1        -0.1412
       6    H4      20.425624   19.969196   20.267429 H          1 MOL1         0.0947
       7    H5      20.721689   20.631906   21.863194 H          1 MOL1         0.0947
       8    C3      18.824254   19.562455   21.654642 C.3        1 MOL1        -0.1437
       9    H6      18.289072   20.390454   21.169347 H          1 MOL1         0.0947
      10    H7      18.444577   18.648974   21.176801 H          1 MOL1         0.0947
      11    C4      18.445373   19.585081   23.158187 C.3        1 MOL1        -0.1437
      12    H8      17.400305   19.915379   23.236433 H          1 MOL1         0.0947
      13    H9      19.037942   20.348301   23.676643 H          1 MOL1         0.0947
      14    C5      18.558253   18.208606   23.862085 C.3        1 MOL1        -0.1437
      15    H10     17.987011   17.470040   23.283033 H          1 MOL1         0.0947
      16    H11     19.588702   17.843466   23.864727 H          1 MOL1         0.0947
      17    C6      18.007474   18.211384   25.310841 C.3        1 MOL1        -0.1437
      18    H12     18.087062   17.193381   25.716658 H          1 MOL1         0.0947
      19    H13     16.932329   18.435657   25.279292 H          1 MOL1         0.0947
      20    C7      18.688253   19.195610   26.299413 C.3        1 MOL1        -0.1477
      21    H14     18.517981   20.236288   25.995186 H          1 MOL1         0.0947
      22    H15     18.191779   19.087278   27.272815 H          1 MOL1         0.0947
      23    C8      20.194847   18.941455   26.510781 C.3        1 MOL1         0.0145
      24    H16     20.387528   17.865568   26.534462 H          1 MOL1         0.0921
      25    H17     20.500142   19.362896   27.472351 H          1 MOL1         0.0921
      26    N1      21.079267   19.566557   25.450719 N.4        1 MOL1        -0.5969
      27    H18     21.020778   20.590242   25.468655 H          1 MOL1         0.3603
      28    H19     20.805219   19.261972   24.511184 H          1 MOL1         0.3603
      29    H20     22.066443   19.320434   25.585107 H          1 MOL1         0.3603
@<TRIPOS>BOND
    1     1     2    1
    2     1     3    1
    3     1     4    1
    4     1     5    1
    5     5     6    1
    6     5     7    1
    7     5     8    1
    8     8     9    1
    9     8    10    1
   10     8    11    1
   11    11    12    1
   12    11    13    1
   13    11    14    1
   14    14    15    1
   15    14    16    1
   16    14    17    1
   17    17    18    1
   18    17    19    1
   19    17    20    1
   20    20    21    1
   21    20    22    1
   22    20    23    1
   23    23    24    1
   24    23    25    1
   25    23    26    1
   26    26    27    1
   27    26    28    1
   28    26    29    1
@<TRIPOS>SUBSTRUCTURE
       1 MOL1            1 RESIDUE      1      MOL     
@<SCITEGIC>MOL_PROPERTY
VM2 Rank
SciTegic.value.IntegerValue
492

@<SCITEGIC>MOL_PROPERTY
Conf_Id
SciTegic.value.IntegerValue
1014

@<SCITEGIC>MOL_PROPERTY
Probability
SciTegic.value.DoubleValue
0.00

@<SCITEGIC>MOL_PROPERTY
Sum Probability
SciTegic.value.DoubleValue
100.00

@<SCITEGIC>MOL_PROPERTY
Delta G
SciTegic.value.DoubleValue
9.485

@<SCITEGIC>MOL_PROPERTY
G
SciTegic.value.DoubleValue
67.631

@<SCITEGIC>MOL_PROPERTY
E
SciTegic.value.DoubleValue
29.260

@<SCITEGIC>MOL_PROPERTY
-TS
SciTegic.value.DoubleValue
38.371

@<SCITEGIC>MOL_PROPERTY
U+W
SciTegic.value.DoubleValue
5.115

@<SCITEGIC>MOL_PROPERTY
U
SciTegic.value.DoubleValue
56.224

@<SCITEGIC>MOL_PROPERTY
W
SciTegic.value.DoubleValue
-51.109

@<SCITEGIC>MOL_PROPERTY
W(PB)
SciTegic.value.DoubleValue
-53.448

@<SCITEGIC>MOL_PROPERTY
W(SA)
SciTegic.value.DoubleValue
2.340

@<SCITEGIC>MOL_PROPERTY
Valence
SciTegic.value.DoubleValue
7.966

@<SCITEGIC>MOL_PROPERTY
Coulomb
SciTegic.value.DoubleValue
48.139

@<SCITEGIC>MOL_PROPERTY
VdW
SciTegic.value.DoubleValue
0.119

@<SCITEGIC>MOL_PROPERTY
VdW6
SciTegic.value.DoubleValue
-11.917

@<SCITEGIC>MOL_PROPERTY
VdW12
SciTegic.value.DoubleValue
12.036

@<SCITEGIC>MOL_PROPERTY
Bond
SciTegic.value.DoubleValue
0.344

@<SCITEGIC>MOL_PROPERTY
Angle
SciTegic.value.DoubleValue
2.693

@<SCITEGIC>MOL_PROPERTY
Pdih
SciTegic.value.DoubleValue
4.929

@<SCITEGIC>MOL_PROPERTY
Idih
SciTegic.value.DoubleValue
0.000

@<SCITEGIC>MOL_PROPERTY
Tether
SciTegic.value.DoubleValue
0.000

@<TRIPOS>MOLECULE
guest-3_vm2.mol2 : vm2 ligand conformer 493
          29          28           1
SMALL
USER_CHARGES
 
@<TRIPOS>ATOM
       1    C1      18.455861   19.644861   20.414121 C.3        1 MOL1        -0.2427
       2    H1      18.685669   18.915047   19.626862 H          1 MOL1         0.0958
       3    H2      17.423948   19.988166   20.264783 H          1 MOL1         0.0958
       4    H3      19.120696   20.508769   20.284301 H          1 MOL1         0.0958
       5    C2      18.625218   19.021055   21.815350 C.3        1 MOL1        -0.1412
       6    H4      17.922644   18.183207   21.925789 H          1 MOL1         0.0947
       7    H5      18.348948   19.761736   22.576124 H          1 MOL1         0.0947
       8    C3      20.070656   18.518405   22.045578 C.3        1 MOL1        -0.1437
       9    H6      20.290235   17.745711   21.295815 H          1 MOL1         0.0947
      10    H7      20.789802   19.328545   21.862428 H          1 MOL1         0.0947
      11    C4      20.286251   17.914957   23.458282 C.3        1 MOL1        -0.1437
      12    H8      20.844874   16.975656   23.343743 H          1 MOL1         0.0947
      13    H9      19.322390   17.625962   23.889753 H          1 MOL1         0.0947
      14    C5      21.095754   18.821792   24.427159 C.3        1 MOL1        -0.1437
      15    H10     21.310946   18.278554   25.356947 H          1 MOL1         0.0947
      16    H11     22.077063   19.002937   23.966968 H          1 MOL1         0.0947
      17    C6      20.463065   20.198752   24.764496 C.3        1 MOL1        -0.1437
      18    H12     19.961849   20.620539   23.886151 H          1 MOL1         0.0947
      19    H13     21.283181   20.896694   24.982541 H          1 MOL1         0.0947
      20    C7      19.508218   20.227670   25.987452 C.3        1 MOL1        -0.1477
      21    H14     20.068718   20.015418   26.907608 H          1 MOL1         0.0947
      22    H15     19.136570   21.255180   26.096353 H          1 MOL1         0.0947
      23    C8      18.286957   19.292820   25.895667 C.3        1 MOL1         0.0145
      24    H16     17.950294   19.218332   24.858402 H          1 MOL1         0.0921
      25    H17     17.470262   19.710582   26.490587 H          1 MOL1         0.0921
      26    N1      18.552020   17.897688   26.426895 N.4        1 MOL1        -0.5969
      27    H18     19.322025   17.446371   25.923461 H          1 MOL1         0.3603
      28    H19     17.728330   17.292503   26.338016 H          1 MOL1         0.3603
      29    H20     18.806301   17.913294   27.420171 H          1 MOL1         0.3603
@<TRIPOS>BOND
    1     1     2    1
    2     1     3    1
    3     1     4    1
    4     1     5    1
    5     5     6    1
    6     5     7    1
    7     5     8    1
    8     8     9    1
    9     8    10    1
   10     8    11    1
   11    11    12    1
   12    11    13    1
   13    11    14    1
   14    14    15    1
   15    14    16    1
   16    14    17    1
   17    17    18    1
   18    17    19    1
   19    17    20    1
   20    20    21    1
   21    20    22    1
   22    20    23    1
   23    23    24    1
   24    23    25    1
   25    23    26    1
   26    26    27    1
   27    26    28    1
   28    26    29    1
@<TRIPOS>SUBSTRUCTURE
       1 MOL1            1 RESIDUE      1      MOL     
@<SCITEGIC>MOL_PROPERTY
VM2 Rank
SciTegic.value.IntegerValue
493

@<SCITEGIC>MOL_PROPERTY
Conf_Id
SciTegic.value.IntegerValue
2317

@<SCITEGIC>MOL_PROPERTY
Probability
SciTegic.value.DoubleValue
0.00

@<SCITEGIC>MOL_PROPERTY
Sum Probability
SciTegic.value.DoubleValue
100.00

@<SCITEGIC>MOL_PROPERTY
Delta G
SciTegic.value.DoubleValue
9.757

@<SCITEGIC>MOL_PROPERTY
G
SciTegic.value.DoubleValue
67.903

@<SCITEGIC>MOL_PROPERTY
E
SciTegic.value.DoubleValue
29.778

@<SCITEGIC>MOL_PROPERTY
-TS
SciTegic.value.DoubleValue
38.126

@<SCITEGIC>MOL_PROPERTY
U+W
SciTegic.value.DoubleValue
5.633

@<SCITEGIC>MOL_PROPERTY
U
SciTegic.value.DoubleValue
58.317

@<SCITEGIC>MOL_PROPERTY
W
SciTegic.value.DoubleValue
-52.684

@<SCITEGIC>MOL_PROPERTY
W(PB)
SciTegic.value.DoubleValue
-55.071

@<SCITEGIC>MOL_PROPERTY
W(SA)
SciTegic.value.DoubleValue
2.387

@<SCITEGIC>MOL_PROPERTY
Valence
SciTegic.value.DoubleValue
10.368

@<SCITEGIC>MOL_PROPERTY
Coulomb
SciTegic.value.DoubleValue
47.476

@<SCITEGIC>MOL_PROPERTY
VdW
SciTegic.value.DoubleValue
0.473

@<SCITEGIC>MOL_PROPERTY
VdW6
SciTegic.value.DoubleValue
-11.674

@<SCITEGIC>MOL_PROPERTY
VdW12
SciTegic.value.DoubleValue
12.147

@<SCITEGIC>MOL_PROPERTY
Bond
SciTegic.value.DoubleValue
0.367

@<SCITEGIC>MOL_PROPERTY
Angle
SciTegic.value.DoubleValue
2.612

@<SCITEGIC>MOL_PROPERTY
Pdih
SciTegic.value.DoubleValue
7.389

@<SCITEGIC>MOL_PROPERTY
Idih
SciTegic.value.DoubleValue
0.000

@<SCITEGIC>MOL_PROPERTY
Tether
SciTegic.value.DoubleValue
0.000

@<TRIPOS>MOLECULE
guest-3_vm2.mol2 : vm2 ligand conformer 494
          29          28           1
SMALL
USER_CHARGES
 
@<TRIPOS>ATOM
       1    C1      21.092030   18.356661   21.560934 C.3        1 MOL1        -0.2427
       2    H1      22.000948   18.729714   22.050590 H          1 MOL1         0.0958
       3    H2      20.673578   17.559858   22.186489 H          1 MOL1         0.0958
       4    H3      21.388732   17.908916   20.603657 H          1 MOL1         0.0958
       5    C2      20.078575   19.501666   21.332423 C.3        1 MOL1        -0.1412
       6    H4      19.209975   19.130749   20.770759 H          1 MOL1         0.0947
       7    H5      20.552646   20.256142   20.689086 H          1 MOL1         0.0947
       8    C3      19.625350   20.182252   22.650277 C.3        1 MOL1        -0.1437
       9    H6      20.341623   19.964989   23.449748 H          1 MOL1         0.0947
      10    H7      19.675244   21.270230   22.505336 H          1 MOL1         0.0947
      11    C4      18.174188   19.836518   23.084643 C.3        1 MOL1        -0.1437
      12    H8      17.503630   20.124976   22.263381 H          1 MOL1         0.0947
      13    H9      17.878573   20.468473   23.932716 H          1 MOL1         0.0947
      14    C5      17.905555   18.347167   23.429135 C.3        1 MOL1        -0.1437
      15    H10     16.861248   18.130148   23.165406 H          1 MOL1         0.0947
      16    H11     18.500868   17.686780   22.788852 H          1 MOL1         0.0947
      17    C6      18.086314   17.949851   24.919182 C.3        1 MOL1        -0.1437
      18    H12     17.813660   16.889342   25.010530 H          1 MOL1         0.0947
      19    H13     17.362106   18.493604   25.541592 H          1 MOL1         0.0947
      20    C7      19.511973   18.127337   25.495345 C.3        1 MOL1        -0.1477
      21    H14     19.666396   17.380635   26.285581 H          1 MOL1         0.0947
      22    H15     20.262020   17.917209   24.722214 H          1 MOL1         0.0947
      23    C8      19.734727   19.522895   26.109076 C.3        1 MOL1         0.0145
      24    H16     19.030046   19.677781   26.930504 H          1 MOL1         0.0921
      25    H17     19.557050   20.296317   25.359114 H          1 MOL1         0.0921
      26    N1      21.135288   19.713653   26.653984 N.4        1 MOL1        -0.5969
      27    H18     21.352092   19.035419   27.391831 H          1 MOL1         0.3603
      28    H19     21.261776   20.647097   27.060465 H          1 MOL1         0.3603
      29    H20     21.847748   19.604799   25.924959 H          1 MOL1         0.3603
@<TRIPOS>BOND
    1     1     2    1
    2     1     3    1
    3     1     4    1
    4     1     5    1
    5     5     6    1
    6     5     7    1
    7     5     8    1
    8     8     9    1
    9     8    10    1
   10     8    11    1
   11    11    12    1
   12    11    13    1
   13    11    14    1
   14    14    15    1
   15    14    16    1
   16    14    17    1
   17    17    18    1
   18    17    19    1
   19    17    20    1
   20    20    21    1
   21    20    22    1
   22    20    23    1
   23    23    24    1
   24    23    25    1
   25    23    26    1
   26    26    27    1
   27    26    28    1
   28    26    29    1
@<TRIPOS>SUBSTRUCTURE
       1 MOL1            1 RESIDUE      1      MOL     
@<SCITEGIC>MOL_PROPERTY
VM2 Rank
SciTegic.value.IntegerValue
494

@<SCITEGIC>MOL_PROPERTY
Conf_Id
SciTegic.value.IntegerValue
1315

@<SCITEGIC>MOL_PROPERTY
Probability
SciTegic.value.DoubleValue
0.00

@<SCITEGIC>MOL_PROPERTY
Sum Probability
SciTegic.value.DoubleValue
100.00

@<SCITEGIC>MOL_PROPERTY
Delta G
SciTegic.value.DoubleValue
9.868

@<SCITEGIC>MOL_PROPERTY
G
SciTegic.value.DoubleValue
68.014

@<SCITEGIC>MOL_PROPERTY
E
SciTegic.value.DoubleValue
29.601

@<SCITEGIC>MOL_PROPERTY
-TS
SciTegic.value.DoubleValue
38.413

@<SCITEGIC>MOL_PROPERTY
U+W
SciTegic.value.DoubleValue
5.457

@<SCITEGIC>MOL_PROPERTY
U
SciTegic.value.DoubleValue
58.517

@<SCITEGIC>MOL_PROPERTY
W
SciTegic.value.DoubleValue
-53.061

@<SCITEGIC>MOL_PROPERTY
W(PB)
SciTegic.value.DoubleValue
-55.417

@<SCITEGIC>MOL_PROPERTY
W(SA)
SciTegic.value.DoubleValue
2.357

@<SCITEGIC>MOL_PROPERTY
Valence
SciTegic.value.DoubleValue
11.198

@<SCITEGIC>MOL_PROPERTY
Coulomb
SciTegic.value.DoubleValue
46.940

@<SCITEGIC>MOL_PROPERTY
VdW
SciTegic.value.DoubleValue
0.379

@<SCITEGIC>MOL_PROPERTY
VdW6
SciTegic.value.DoubleValue
-11.859

@<SCITEGIC>MOL_PROPERTY
VdW12
SciTegic.value.DoubleValue
12.237

@<SCITEGIC>MOL_PROPERTY
Bond
SciTegic.value.DoubleValue
0.370

@<SCITEGIC>MOL_PROPERTY
Angle
SciTegic.value.DoubleValue
2.762

@<SCITEGIC>MOL_PROPERTY
Pdih
SciTegic.value.DoubleValue
8.066

@<SCITEGIC>MOL_PROPERTY
Idih
SciTegic.value.DoubleValue
0.000

@<SCITEGIC>MOL_PROPERTY
Tether
SciTegic.value.DoubleValue
0.000

@<TRIPOS>MOLECULE
guest-3_vm2.mol2 : vm2 ligand conformer 495
          29          28           1
SMALL
USER_CHARGES
 
@<TRIPOS>ATOM
       1    C1      19.766873   20.676959   21.439235 C.3        1 MOL1        -0.2427
       2    H1      19.097422   21.383219   20.931485 H          1 MOL1         0.0958
       3    H2      19.779341   20.938482   22.503868 H          1 MOL1         0.0958
       4    H3      20.778233   20.828431   21.040351 H          1 MOL1         0.0958
       5    C2      19.294797   19.222867   21.209204 C.3        1 MOL1        -0.1412
       6    H4      19.243582   19.040837   20.126710 H          1 MOL1         0.0947
       7    H5      18.271097   19.091314   21.582930 H          1 MOL1         0.0947
       8    C3      20.237097   18.168672   21.840254 C.3        1 MOL1        -0.1437
       9    H6      19.927951   17.169624   21.503460 H          1 MOL1         0.0947
      10    H7      21.248920   18.316659   21.438454 H          1 MOL1         0.0947
      11    C4      20.309882   18.175904   23.390744 C.3        1 MOL1        -0.1437
      12    H8      20.656710   19.153934   23.744860 H          1 MOL1         0.0947
      13    H9      21.089072   17.457972   23.681344 H          1 MOL1         0.0947
      14    C5      18.987182   17.760381   24.093014 C.3        1 MOL1        -0.1437
      15    H10     18.425432   17.095657   23.422379 H          1 MOL1         0.0947
      16    H11     19.210023   17.147191   24.976456 H          1 MOL1         0.0947
      17    C6      18.073380   18.942487   24.513280 C.3        1 MOL1        -0.1437
      18    H12     17.030045   18.609204   24.426538 H          1 MOL1         0.0947
      19    H13     18.172499   19.778431   23.811252 H          1 MOL1         0.0947
      20    C7      18.276071   19.455834   25.963800 C.3        1 MOL1        -0.1477
      21    H14     17.517986   20.226864   26.155118 H          1 MOL1         0.0947
      22    H15     18.072474   18.651490   26.683119 H          1 MOL1         0.0947
      23    C8      19.657398   20.077498   26.250690 C.3        1 MOL1         0.0145
      24    H16     19.584730   20.721152   27.131527 H          1 MOL1         0.0921
      25    H17     19.970365   20.693712   25.403701 H          1 MOL1         0.0921
      26    N1      20.741319   19.057399   26.534780 N.4        1 MOL1        -0.5969
      27    H18     20.524413   18.496409   27.365281 H          1 MOL1         0.3603
      28    H19     21.650487   19.502675   26.701670 H          1 MOL1         0.3603
      29    H20     20.853554   18.409096   25.749060 H          1 MOL1         0.3603
@<TRIPOS>BOND
    1     1     2    1
    2     1     3    1
    3     1     4    1
    4     1     5    1
    5     5     6    1
    6     5     7    1
    7     5     8    1
    8     8     9    1
    9     8    10    1
   10     8    11    1
   11    11    12    1
   12    11    13    1
   13    11    14    1
   14    14    15    1
   15    14    16    1
   16    14    17    1
   17    17    18    1
   18    17    19    1
   19    17    20    1
   20    20    21    1
   21    20    22    1
   22    20    23    1
   23    23    24    1
   24    23    25    1
   25    23    26    1
   26    26    27    1
   27    26    28    1
   28    26    29    1
@<TRIPOS>SUBSTRUCTURE
       1 MOL1            1 RESIDUE      1      MOL     
@<SCITEGIC>MOL_PROPERTY
VM2 Rank
SciTegic.value.IntegerValue
495

@<SCITEGIC>MOL_PROPERTY
Conf_Id
SciTegic.value.IntegerValue
294

@<SCITEGIC>MOL_PROPERTY
Probability
SciTegic.value.DoubleValue
0.00

@<SCITEGIC>MOL_PROPERTY
Sum Probability
SciTegic.value.DoubleValue
100.00

@<SCITEGIC>MOL_PROPERTY
Delta G
SciTegic.value.DoubleValue
9.968

@<SCITEGIC>MOL_PROPERTY
G
SciTegic.value.DoubleValue
68.115

@<SCITEGIC>MOL_PROPERTY
E
SciTegic.value.DoubleValue
29.274

@<SCITEGIC>MOL_PROPERTY
-TS
SciTegic.value.DoubleValue
38.841

@<SCITEGIC>MOL_PROPERTY
U+W
SciTegic.value.DoubleValue
5.130

@<SCITEGIC>MOL_PROPERTY
U
SciTegic.value.DoubleValue
57.506

@<SCITEGIC>MOL_PROPERTY
W
SciTegic.value.DoubleValue
-52.376

@<SCITEGIC>MOL_PROPERTY
W(PB)
SciTegic.value.DoubleValue
-54.702

@<SCITEGIC>MOL_PROPERTY
W(SA)
SciTegic.value.DoubleValue
2.326

@<SCITEGIC>MOL_PROPERTY
Valence
SciTegic.value.DoubleValue
9.827

@<SCITEGIC>MOL_PROPERTY
Coulomb
SciTegic.value.DoubleValue
47.298

@<SCITEGIC>MOL_PROPERTY
VdW
SciTegic.value.DoubleValue
0.381

@<SCITEGIC>MOL_PROPERTY
VdW6
SciTegic.value.DoubleValue
-12.658

@<SCITEGIC>MOL_PROPERTY
VdW12
SciTegic.value.DoubleValue
13.038

@<SCITEGIC>MOL_PROPERTY
Bond
SciTegic.value.DoubleValue
0.384

@<SCITEGIC>MOL_PROPERTY
Angle
SciTegic.value.DoubleValue
2.465

@<SCITEGIC>MOL_PROPERTY
Pdih
SciTegic.value.DoubleValue
6.978

@<SCITEGIC>MOL_PROPERTY
Idih
SciTegic.value.DoubleValue
0.000

@<SCITEGIC>MOL_PROPERTY
Tether
SciTegic.value.DoubleValue
0.000

